MODEL 1
REMARK VINA RESULT:      -6.4      0.000      0.000
REMARK  Name = 
REMARK  3 active torsions:
REMARK  status: ('A' for Active; 'I' for Inactive)
REMARK    1  A    between atoms: C_7  and  O_8
REMARK    2  A    between atoms: O_8  and  C_9
REMARK    3  A    between atoms: C_9  and  C_10
REMARK                            x       y       z     vdW  Elec       q    Type
REMARK                         _______ _______ _______ _____ _____    ______ ____
ROOT
ATOM      1  C   UNL     1      -0.011   5.353  -9.489  0.00  0.00    +0.031 C 
ATOM      2  C   UNL     1       0.665   5.522 -10.582  0.00  0.00    -0.019 A 
ATOM      3  C   UNL     1       1.996   5.912 -10.522  0.00  0.00    +0.033 A 
ATOM      4  C   UNL     1       2.822   5.901 -11.638  0.00  0.00    +0.138 A 
ATOM      5  C   UNL     1       2.292   5.585 -12.881  0.00  0.00    +0.033 A 
ATOM      6  C   UNL     1       1.018   5.058 -12.911  0.00  0.00    -0.019 A 
ATOM      7  C   UNL     1       0.582   4.333 -14.146  0.00  0.00    +0.031 C 
ATOM      8  C   UNL     1       0.185   5.141 -11.809  0.00  0.00    -0.008 A 
ENDROOT
BRANCH   4   9
ATOM      9  O   UNL     1       4.135   6.294 -11.626  0.00  0.00    -0.472 OA
BRANCH   9  10
ATOM     10  C   UNL     1       4.815   7.054 -10.724  0.00  0.00    +0.251 C 
BRANCH  10  11
ATOM     11  C   UNL     1       6.236   6.309 -10.303  0.00  0.00    +0.235 C 
ATOM     12  O   UNL     1       6.200   5.278 -11.461  0.00  0.00    -0.432 OA
ATOM     13  C   UNL     1       7.449   5.303 -12.014  0.00  0.00    +0.421 C 
ATOM     14  O   UNL     1       7.697   4.655 -13.077  0.00  0.00    -0.225 OA
ATOM     15  N   UNL     1       8.184   6.442 -11.550  0.00  0.00    -0.165 NA
ATOM     16  C   UNL     1       7.121   7.388 -11.207  0.00  0.00    +0.166 C 
ENDBRANCH  10  11
ENDBRANCH   9  10
ENDBRANCH   4   9
TORSDOF 3
ENDMDL
MODEL 2
REMARK VINA RESULT:      -6.4      0.976      2.510
REMARK  Name = 
REMARK  3 active torsions:
REMARK  status: ('A' for Active; 'I' for Inactive)
REMARK    1  A    between atoms: C_7  and  O_8
REMARK    2  A    between atoms: O_8  and  C_9
REMARK    3  A    between atoms: C_9  and  C_10
REMARK                            x       y       z     vdW  Elec       q    Type
REMARK                         _______ _______ _______ _____ _____    ______ ____
ROOT
ATOM      1  C   UNL     1       0.380   4.976 -12.312  0.00  0.00    +0.031 C 
ATOM      2  C   UNL     1       0.917   5.208 -11.155  0.00  0.00    -0.019 A 
ATOM      3  C   UNL     1       2.141   5.858 -11.076  0.00  0.00    +0.033 A 
ATOM      4  C   UNL     1       2.657   6.320  -9.873  0.00  0.00    +0.138 A 
ATOM      5  C   UNL     1       1.987   6.047  -8.688  0.00  0.00    +0.033 A 
ATOM      6  C   UNL     1       0.709   5.538  -8.786  0.00  0.00    -0.019 A 
ATOM      7  C   UNL     1      -0.181   5.624  -7.586  0.00  0.00    +0.031 C 
ATOM      8  C   UNL     1       0.237   5.019  -9.979  0.00  0.00    -0.008 A 
ENDROOT
BRANCH   4   9
ATOM      9  O   UNL     1       3.867   6.950  -9.747  0.00  0.00    -0.472 OA
BRANCH   9  10
ATOM     10  C   UNL     1       4.877   7.097 -10.648  0.00  0.00    +0.251 C 
BRANCH  10  11
ATOM     11  C   UNL     1       6.130   6.074 -10.277  0.00  0.00    +0.235 C 
ATOM     12  O   UNL     1       6.076   5.298 -11.619  0.00  0.00    -0.432 OA
ATOM     13  C   UNL     1       7.368   5.232 -12.057  0.00  0.00    +0.421 C 
ATOM     14  O   UNL     1       7.637   4.765 -13.207  0.00  0.00    -0.225 OA
ATOM     15  N   UNL     1       8.199   6.136 -11.318  0.00  0.00    -0.165 NA
ATOM     16  C   UNL     1       7.246   7.153 -10.874  0.00  0.00    +0.166 C 
ENDBRANCH  10  11
ENDBRANCH   9  10
ENDBRANCH   4   9
TORSDOF 3
ENDMDL
MODEL 3
REMARK VINA RESULT:      -6.3      5.774      7.484
REMARK  Name = 
REMARK  3 active torsions:
REMARK  status: ('A' for Active; 'I' for Inactive)
REMARK    1  A    between atoms: C_7  and  O_8
REMARK    2  A    between atoms: O_8  and  C_9
REMARK    3  A    between atoms: C_9  and  C_10
REMARK                            x       y       z     vdW  Elec       q    Type
REMARK                         _______ _______ _______ _____ _____    ______ ____
ROOT
ATOM      1  C   UNL     1      -2.317   5.761  -1.839  0.00  0.00    +0.031 C 
ATOM      2  C   UNL     1      -1.799   5.848  -3.024  0.00  0.00    -0.019 A 
ATOM      3  C   UNL     1      -0.481   5.470  -3.234  0.00  0.00    +0.033 A 
ATOM      4  C   UNL     1       0.058   5.338  -4.508  0.00  0.00    +0.138 A 
ATOM      5  C   UNL     1      -0.704   5.687  -5.614  0.00  0.00    +0.033 A 
ATOM      6  C   UNL     1      -2.049   5.916  -5.411  0.00  0.00    -0.019 A 
ATOM      7  C   UNL     1      -2.960   5.880  -6.598  0.00  0.00    +0.031 C 
ATOM      8  C   UNL     1      -2.555   6.113  -4.138  0.00  0.00    -0.008 A 
ENDROOT
BRANCH   4   9
ATOM      9  O   UNL     1       1.357   4.984  -4.759  0.00  0.00    -0.472 OA
BRANCH   9  10
ATOM     10  C   UNL     1       1.889   4.274  -5.792  0.00  0.00    +0.251 C 
BRANCH  10  11
ATOM     11  C   UNL     1       3.146   5.111  -6.477  0.00  0.00    +0.235 C 
ATOM     12  O   UNL     1       2.247   5.999  -7.376  0.00  0.00    -0.432 OA
ATOM     13  C   UNL     1       2.703   7.276  -7.204  0.00  0.00    +0.421 C 
ATOM     14  O   UNL     1       2.079   8.258  -7.713  0.00  0.00    -0.225 OA
ATOM     15  N   UNL     1       3.580   7.351  -6.073  0.00  0.00    -0.165 NA
ATOM     16  C   UNL     1       3.131   6.229  -5.247  0.00  0.00    +0.166 C 
ENDBRANCH  10  11
ENDBRANCH   9  10
ENDBRANCH   4   9
TORSDOF 3
ENDMDL
MODEL 4
REMARK VINA RESULT:      -6.3      2.983      5.791
REMARK  Name = 
REMARK  3 active torsions:
REMARK  status: ('A' for Active; 'I' for Inactive)
REMARK    1  A    between atoms: C_7  and  O_8
REMARK    2  A    between atoms: O_8  and  C_9
REMARK    3  A    between atoms: C_9  and  C_10
REMARK                            x       y       z     vdW  Elec       q    Type
REMARK                         _______ _______ _______ _____ _____    ______ ____
ROOT
ATOM      1  C   UNL     1       9.064   5.761 -12.048  0.00  0.00    +0.031 C 
ATOM      2  C   UNL     1       7.831   5.692 -12.442  0.00  0.00    -0.019 A 
ATOM      3  C   UNL     1       6.812   5.554 -11.510  0.00  0.00    +0.033 A 
ATOM      4  C   UNL     1       5.473   5.691 -11.851  0.00  0.00    +0.138 A 
ATOM      5  C   UNL     1       5.119   5.874 -13.181  0.00  0.00    +0.033 A 
ATOM      6  C   UNL     1       6.132   6.158 -14.073  0.00  0.00    -0.019 A 
ATOM      7  C   UNL     1       5.765   6.761 -15.392  0.00  0.00    +0.031 C 
ATOM      8  C   UNL     1       7.459   5.950 -13.737  0.00  0.00    -0.008 A 
ENDROOT
BRANCH   4   9
ATOM      9  O   UNL     1       4.436   5.545 -10.968  0.00  0.00    -0.472 OA
BRANCH   9  10
ATOM     10  C   UNL     1       4.413   4.989  -9.726  0.00  0.00    +0.251 C 
BRANCH  10  11
ATOM     11  C   UNL     1       2.885   5.076  -9.086  0.00  0.00    +0.235 C 
ATOM     12  O   UNL     1       3.182   6.304  -8.186  0.00  0.00    -0.432 OA
ATOM     13  C   UNL     1       2.147   7.171  -8.395  0.00  0.00    +0.421 C 
ATOM     14  O   UNL     1       2.170   8.337  -7.893  0.00  0.00    -0.225 OA
ATOM     15  N   UNL     1       1.387   6.782  -9.546  0.00  0.00    -0.165 NA
ATOM     16  C   UNL     1       2.367   6.039 -10.339  0.00  0.00    +0.166 C 
ENDBRANCH  10  11
ENDBRANCH   9  10
ENDBRANCH   4   9
TORSDOF 3
ENDMDL
MODEL 5
REMARK VINA RESULT:      -6.2      1.344      2.062
REMARK  Name = 
REMARK  3 active torsions:
REMARK  status: ('A' for Active; 'I' for Inactive)
REMARK    1  A    between atoms: C_7  and  O_8
REMARK    2  A    between atoms: O_8  and  C_9
REMARK    3  A    between atoms: C_9  and  C_10
REMARK                            x       y       z     vdW  Elec       q    Type
REMARK                         _______ _______ _______ _____ _____    ______ ____
ROOT
ATOM      1  C   UNL     1       0.603   5.483  -6.548  0.00  0.00    +0.031 C 
ATOM      2  C   UNL     1       0.928   5.831  -7.754  0.00  0.00    -0.019 A 
ATOM      3  C   UNL     1       2.183   6.366  -8.008  0.00  0.00    +0.033 A 
ATOM      4  C   UNL     1       2.661   6.554  -9.298  0.00  0.00    +0.138 A 
ATOM      5  C   UNL     1       1.832   6.297 -10.381  0.00  0.00    +0.033 A 
ATOM      6  C   UNL     1       0.651   5.629 -10.130  0.00  0.00    -0.019 A 
ATOM      7  C   UNL     1      -0.050   4.976 -11.280  0.00  0.00    +0.031 C 
ATOM      8  C   UNL     1       0.157   5.511  -8.843  0.00  0.00    -0.008 A 
ENDROOT
BRANCH   4   9
ATOM      9  O   UNL     1       3.885   7.095  -9.593  0.00  0.00    -0.472 OA
BRANCH   9  10
ATOM     10  C   UNL     1       4.673   6.935 -10.691  0.00  0.00    +0.251 C 
BRANCH  10  11
ATOM     11  C   UNL     1       6.039   6.080 -10.297  0.00  0.00    +0.235 C 
ATOM     12  O   UNL     1       6.045   5.227 -11.592  0.00  0.00    -0.432 OA
ATOM     13  C   UNL     1       7.328   5.278 -12.060  0.00  0.00    +0.421 C 
ATOM     14  O   UNL     1       7.624   4.778 -13.189  0.00  0.00    -0.225 OA
ATOM     15  N   UNL     1       8.067   6.310 -11.394  0.00  0.00    -0.165 NA
ATOM     16  C   UNL     1       7.015   7.240 -10.982  0.00  0.00    +0.166 C 
ENDBRANCH  10  11
ENDBRANCH   9  10
ENDBRANCH   4   9
TORSDOF 3
ENDMDL
MODEL 6
REMARK VINA RESULT:      -6.2      5.931      8.160
REMARK  Name = 
REMARK  3 active torsions:
REMARK  status: ('A' for Active; 'I' for Inactive)
REMARK    1  A    between atoms: C_7  and  O_8
REMARK    2  A    between atoms: O_8  and  C_9
REMARK    3  A    between atoms: C_9  and  C_10
REMARK                            x       y       z     vdW  Elec       q    Type
REMARK                         _______ _______ _______ _____ _____    ______ ____
ROOT
ATOM      1  C   UNL     1      -2.925   7.726  -5.330  0.00  0.00    +0.031 C 
ATOM      2  C   UNL     1      -2.244   6.896  -4.604  0.00  0.00    -0.019 A 
ATOM      3  C   UNL     1      -1.005   6.446  -5.040  0.00  0.00    +0.033 A 
ATOM      4  C   UNL     1      -0.144   5.734  -4.217  0.00  0.00    +0.138 A 
ATOM      5  C   UNL     1      -0.558   5.366  -2.944  0.00  0.00    +0.033 A 
ATOM      6  C   UNL     1      -1.718   5.939  -2.466  0.00  0.00    -0.019 A 
ATOM      7  C   UNL     1      -1.969   5.902  -0.990  0.00  0.00    +0.031 C 
ATOM      8  C   UNL     1      -2.598   6.586  -3.315  0.00  0.00    -0.008 A 
ENDROOT
BRANCH   4   9
ATOM      9  O   UNL     1       1.078   5.257  -4.612  0.00  0.00    -0.472 OA
BRANCH   9  10
ATOM     10  C   UNL     1       1.412   4.472  -5.674  0.00  0.00    +0.251 C 
BRANCH  10  11
ATOM     11  C   UNL     1       2.740   5.092  -6.451  0.00  0.00    +0.235 C 
ATOM     12  O   UNL     1       1.932   6.063  -7.350  0.00  0.00    -0.432 OA
ATOM     13  C   UNL     1       2.571   7.267  -7.258  0.00  0.00    +0.421 C 
ATOM     14  O   UNL     1       2.069   8.307  -7.785  0.00  0.00    -0.225 OA
ATOM     15  N   UNL     1       3.505   7.261  -6.170  0.00  0.00    -0.165 NA
ATOM     16  C   UNL     1       2.943   6.250  -5.274  0.00  0.00    +0.166 C 
ENDBRANCH  10  11
ENDBRANCH   9  10
ENDBRANCH   4   9
TORSDOF 3
ENDMDL
MODEL 7
REMARK VINA RESULT:      -6.2      3.714      6.133
REMARK  Name = 
REMARK  3 active torsions:
REMARK  status: ('A' for Active; 'I' for Inactive)
REMARK    1  A    between atoms: C_7  and  O_8
REMARK    2  A    between atoms: O_8  and  C_9
REMARK    3  A    between atoms: C_9  and  C_10
REMARK                            x       y       z     vdW  Elec       q    Type
REMARK                         _______ _______ _______ _____ _____    ______ ____
ROOT
ATOM      1  C   UNL     1       9.152   5.940 -12.276  0.00  0.00    +0.031 C 
ATOM      2  C   UNL     1       7.918   5.676 -11.984  0.00  0.00    -0.019 A 
ATOM      3  C   UNL     1       7.456   5.865 -10.689  0.00  0.00    +0.033 A 
ATOM      4  C   UNL     1       6.106   5.806 -10.368  0.00  0.00    +0.138 A 
ATOM      5  C   UNL     1       5.184   5.451 -11.343  0.00  0.00    +0.033 A 
ATOM      6  C   UNL     1       5.626   5.412 -12.649  0.00  0.00    -0.019 A 
ATOM      7  C   UNL     1       4.605   5.448 -13.743  0.00  0.00    +0.031 C 
ATOM      8  C   UNL     1       6.978   5.403 -12.945  0.00  0.00    -0.008 A 
ENDROOT
BRANCH   4   9
ATOM      9  O   UNL     1       5.609   5.969  -9.102  0.00  0.00    -0.472 OA
BRANCH   9  10
ATOM     10  C   UNL     1       4.902   5.108  -8.319  0.00  0.00    +0.251 C 
BRANCH  10  11
ATOM     11  C   UNL     1       3.657   5.907  -7.567  0.00  0.00    +0.235 C 
ATOM     12  O   UNL     1       2.676   4.707  -7.613  0.00  0.00    -0.432 OA
ATOM     13  C   UNL     1       2.151   4.613  -6.355  0.00  0.00    +0.421 C 
ATOM     14  O   UNL     1       1.405   3.636  -6.038  0.00  0.00    -0.225 OA
ATOM     15  N   UNL     1       2.906   5.409  -5.433  0.00  0.00    -0.165 NA
ATOM     16  C   UNL     1       4.223   5.468  -6.066  0.00  0.00    +0.166 C 
ENDBRANCH  10  11
ENDBRANCH   9  10
ENDBRANCH   4   9
TORSDOF 3
ENDMDL
MODEL 8
REMARK VINA RESULT:      -6.1      5.791      8.036
REMARK  Name = 
REMARK  3 active torsions:
REMARK  status: ('A' for Active; 'I' for Inactive)
REMARK    1  A    between atoms: C_7  and  O_8
REMARK    2  A    between atoms: O_8  and  C_9
REMARK    3  A    between atoms: C_9  and  C_10
REMARK                            x       y       z     vdW  Elec       q    Type
REMARK                         _______ _______ _______ _____ _____    ______ ____
ROOT
ATOM      1  C   UNL     1       4.065   5.021  -9.544  0.00  0.00    +0.031 C 
ATOM      2  C   UNL     1       2.778   5.150  -9.469  0.00  0.00    -0.019 A 
ATOM      3  C   UNL     1       2.135   4.990  -8.249  0.00  0.00    +0.033 A 
ATOM      4  C   UNL     1       0.799   5.324  -8.067  0.00  0.00    +0.138 A 
ATOM      5  C   UNL     1       0.042   5.740  -9.153  0.00  0.00    +0.033 A 
ATOM      6  C   UNL     1       0.716   6.038 -10.318  0.00  0.00    -0.019 A 
ATOM      7  C   UNL     1       0.015   6.868 -11.349  0.00  0.00    +0.031 C 
ATOM      8  C   UNL     1       2.026   5.636 -10.508  0.00  0.00    -0.008 A 
ENDROOT
BRANCH   4   9
ATOM      9  O   UNL     1       0.122   5.167  -6.886  0.00  0.00    -0.472 OA
BRANCH   9  10
ATOM     10  C   UNL     1      -1.173   5.445  -6.574  0.00  0.00    +0.251 C 
BRANCH  10  11
ATOM     11  C   UNL     1      -1.243   6.424  -5.236  0.00  0.00    +0.235 C 
ATOM     12  O   UNL     1      -2.438   5.681  -4.584  0.00  0.00    -0.432 OA
ATOM     13  C   UNL     1      -2.079   5.482  -3.281  0.00  0.00    +0.421 C 
ATOM     14  O   UNL     1      -2.802   4.776  -2.512  0.00  0.00    -0.225 OA
ATOM     15  N   UNL     1      -0.680   5.732  -3.098  0.00  0.00    -0.165 NA
ATOM     16  C   UNL     1      -0.135   5.480  -4.433  0.00  0.00    +0.166 C 
ENDBRANCH  10  11
ENDBRANCH   9  10
ENDBRANCH   4   9
TORSDOF 3
ENDMDL
MODEL 9
REMARK VINA RESULT:      -6.1      7.864      9.307
REMARK  Name = 
REMARK  3 active torsions:
REMARK  status: ('A' for Active; 'I' for Inactive)
REMARK    1  A    between atoms: C_7  and  O_8
REMARK    2  A    between atoms: O_8  and  C_9
REMARK    3  A    between atoms: C_9  and  C_10
REMARK                            x       y       z     vdW  Elec       q    Type
REMARK                         _______ _______ _______ _____ _____    ______ ____
ROOT
ATOM      1  C   UNL     1      -3.432   5.689  -3.242  0.00  0.00    +0.031 C 
ATOM      2  C   UNL     1      -2.309   5.804  -3.878  0.00  0.00    -0.019 A 
ATOM      3  C   UNL     1      -1.108   5.728  -3.185  0.00  0.00    +0.033 A 
ATOM      4  C   UNL     1       0.116   5.630  -3.833  0.00  0.00    +0.138 A 
ATOM      5  C   UNL     1       0.167   5.707  -5.217  0.00  0.00    +0.033 A 
ATOM      6  C   UNL     1      -1.028   5.631  -5.901  0.00  0.00    -0.019 A 
ATOM      7  C   UNL     1      -0.990   5.294  -7.359  0.00  0.00    +0.031 C 
ATOM      8  C   UNL     1      -2.236   5.800  -5.248  0.00  0.00    -0.008 A 
ENDROOT
BRANCH   4   9
ATOM      9  O   UNL     1       1.324   5.571  -3.189  0.00  0.00    -0.472 OA
BRANCH   9  10
ATOM     10  C   UNL     1       2.216   6.559  -2.906  0.00  0.00    +0.251 C 
BRANCH  10  11
ATOM     11  C   UNL     1       3.697   5.907  -2.538  0.00  0.00    +0.235 C 
ATOM     12  O   UNL     1       3.981   6.868  -1.355  0.00  0.00    -0.432 OA
ATOM     13  C   UNL     1       4.404   6.073  -0.328  0.00  0.00    +0.421 C 
ATOM     14  O   UNL     1       4.592   6.558   0.830  0.00  0.00    -0.225 OA
ATOM     15  N   UNL     1       4.132   4.694  -0.612  0.00  0.00    -0.165 NA
ATOM     16  C   UNL     1       3.000   4.778  -1.536  0.00  0.00    +0.166 C 
ENDBRANCH  10  11
ENDBRANCH   9  10
ENDBRANCH   4   9
TORSDOF 3
ENDMDL
