MODEL 1
REMARK VINA RESULT:      -4.5      0.000      0.000
REMARK  Name = 
REMARK  0 active torsions:
REMARK  status: ('A' for Active; 'I' for Inactive)
REMARK                            x       y       z     vdW  Elec       q    Type
REMARK                         _______ _______ _______ _____ _____    ______ ____
ROOT
ATOM      1  N   UNL     1       5.100   5.006 -13.490  0.00  0.00    -0.105 NA
ATOM      2  C   UNL     1       6.112   5.240 -12.524  0.00  0.00    +0.203 A 
ATOM      3  C   UNL     1       5.742   5.964 -11.396  0.00  0.00    +0.194 A 
ATOM      4  F   UNL     1       4.815   6.965 -11.481  0.00  0.00    -0.199 F 
ATOM      5  C   UNL     1       6.676   5.918 -10.366  0.00  0.00    +0.136 A 
ATOM      6  N   UNL     1       7.968   5.625 -10.658  0.00  0.00    -0.187 NA
ATOM      7  C   UNL     1       8.387   5.440 -11.934  0.00  0.00    +0.370 A 
ATOM      8  O   UNL     1       9.465   5.937 -12.373  0.00  0.00    -0.243 OA
ATOM      9  N   UNL     1       7.420   4.978 -12.766  0.00  0.00    -0.170 NA
ENDROOT
TORSDOF 0
ENDMDL
MODEL 2
REMARK VINA RESULT:      -4.5     11.542     12.075
REMARK  Name = 
REMARK  0 active torsions:
REMARK  status: ('A' for Active; 'I' for Inactive)
REMARK                            x       y       z     vdW  Elec       q    Type
REMARK                         _______ _______ _______ _____ _____    ______ ____
ROOT
ATOM      1  N   UNL     1      -1.874   5.571  -6.570  0.00  0.00    -0.105 NA
ATOM      2  C   UNL     1      -2.144   6.051  -5.263  0.00  0.00    +0.203 A 
ATOM      3  C   UNL     1      -1.526   7.241  -4.895  0.00  0.00    +0.194 A 
ATOM      4  F   UNL     1      -0.273   7.548  -5.349  0.00  0.00    -0.199 F 
ATOM      5  C   UNL     1      -2.041   7.808  -3.734  0.00  0.00    +0.136 A 
ATOM      6  N   UNL     1      -2.696   7.017  -2.847  0.00  0.00    -0.187 NA
ATOM      7  C   UNL     1      -2.807   5.678  -3.030  0.00  0.00    +0.370 A 
ATOM      8  O   UNL     1      -2.633   4.848  -2.091  0.00  0.00    -0.243 OA
ATOM      9  N   UNL     1      -2.784   5.301  -4.333  0.00  0.00    -0.170 NA
ENDROOT
TORSDOF 0
ENDMDL
MODEL 3
REMARK VINA RESULT:      -4.4      2.098      2.568
REMARK  Name = 
REMARK  0 active torsions:
REMARK  status: ('A' for Active; 'I' for Inactive)
REMARK                            x       y       z     vdW  Elec       q    Type
REMARK                         _______ _______ _______ _____ _____    ______ ____
ROOT
ATOM      1  N   UNL     1       5.096   7.277 -10.848  0.00  0.00    -0.105 NA
ATOM      2  C   UNL     1       5.996   6.459 -11.578  0.00  0.00    +0.203 A 
ATOM      3  C   UNL     1       7.253   6.259 -11.017  0.00  0.00    +0.194 A 
ATOM      4  F   UNL     1       7.863   7.249 -10.298  0.00  0.00    -0.199 F 
ATOM      5  C   UNL     1       7.981   5.235 -11.616  0.00  0.00    +0.136 A 
ATOM      6  N   UNL     1       7.676   4.863 -12.884  0.00  0.00    -0.187 NA
ATOM      7  C   UNL     1       6.725   5.504 -13.608  0.00  0.00    +0.370 A 
ATOM      8  O   UNL     1       6.892   5.815 -14.824  0.00  0.00    -0.243 OA
ATOM      9  N   UNL     1       5.750   6.067 -12.852  0.00  0.00    -0.170 NA
ENDROOT
TORSDOF 0
ENDMDL
MODEL 4
REMARK VINA RESULT:      -4.4      2.786      3.236
REMARK  Name = 
REMARK  0 active torsions:
REMARK  status: ('A' for Active; 'I' for Inactive)
REMARK                            x       y       z     vdW  Elec       q    Type
REMARK                         _______ _______ _______ _____ _____    ______ ____
ROOT
ATOM      1  N   UNL     1       7.587   4.806 -13.006  0.00  0.00    -0.105 NA
ATOM      2  C   UNL     1       6.662   5.603 -12.284  0.00  0.00    +0.203 A 
ATOM      3  C   UNL     1       7.181   6.696 -11.599  0.00  0.00    +0.194 A 
ATOM      4  F   UNL     1       8.423   6.640 -11.031  0.00  0.00    -0.199 F 
ATOM      5  C   UNL     1       6.214   7.593 -11.154  0.00  0.00    +0.136 A 
ATOM      6  N   UNL     1       4.939   7.162 -10.988  0.00  0.00    -0.187 NA
ATOM      7  C   UNL     1       4.593   5.865 -11.181  0.00  0.00    +0.370 A 
ATOM      8  O   UNL     1       3.828   5.241 -10.388  0.00  0.00    -0.243 OA
ATOM      9  N   UNL     1       5.379   5.217 -12.077  0.00  0.00    -0.170 NA
ENDROOT
TORSDOF 0
ENDMDL
MODEL 5
REMARK VINA RESULT:      -4.3     10.524     11.053
REMARK  Name = 
REMARK  0 active torsions:
REMARK  status: ('A' for Active; 'I' for Inactive)
REMARK                            x       y       z     vdW  Elec       q    Type
REMARK                         _______ _______ _______ _____ _____    ______ ____
ROOT
ATOM      1  N   UNL     1      -1.179   5.456  -6.951  0.00  0.00    -0.105 NA
ATOM      2  C   UNL     1      -0.987   5.482  -5.546  0.00  0.00    +0.203 A 
ATOM      3  C   UNL     1       0.273   5.125  -5.081  0.00  0.00    +0.194 A 
ATOM      4  F   UNL     1       1.010   4.168  -5.723  0.00  0.00    -0.199 F 
ATOM      5  C   UNL     1       0.492   5.440  -3.744  0.00  0.00    +0.136 A 
ATOM      6  N   UNL     1      -0.575   5.600  -2.921  0.00  0.00    -0.187 NA
ATOM      7  C   UNL     1      -1.845   5.398  -3.350  0.00  0.00    +0.370 A 
ATOM      8  O   UNL     1      -2.701   4.765  -2.664  0.00  0.00    -0.243 OA
ATOM      9  N   UNL     1      -2.017   5.627  -4.676  0.00  0.00    -0.170 NA
ENDROOT
TORSDOF 0
ENDMDL
MODEL 6
REMARK VINA RESULT:      -4.2     11.795     12.337
REMARK  Name = 
REMARK  0 active torsions:
REMARK  status: ('A' for Active; 'I' for Inactive)
REMARK                            x       y       z     vdW  Elec       q    Type
REMARK                         _______ _______ _______ _____ _____    ______ ____
ROOT
ATOM      1  N   UNL     1      -0.056   6.452  -5.092  0.00  0.00    -0.105 NA
ATOM      2  C   UNL     1      -0.951   5.957  -4.110  0.00  0.00    +0.203 A 
ATOM      3  C   UNL     1      -2.307   6.020  -4.413  0.00  0.00    +0.194 A 
ATOM      4  F   UNL     1      -2.811   7.055  -5.150  0.00  0.00    -0.199 F 
ATOM      5  C   UNL     1      -3.111   5.271  -3.559  0.00  0.00    +0.136 A 
ATOM      6  N   UNL     1      -2.650   4.961  -2.322  0.00  0.00    -0.187 NA
ATOM      7  C   UNL     1      -1.454   5.413  -1.870  0.00  0.00    +0.370 A 
ATOM      8  O   UNL     1      -1.300   5.873  -0.701  0.00  0.00    -0.243 OA
ATOM      9  N   UNL     1      -0.549   5.641  -2.854  0.00  0.00    -0.170 NA
ENDROOT
TORSDOF 0
ENDMDL
MODEL 7
REMARK VINA RESULT:      -4.2     10.697     11.222
REMARK  Name = 
REMARK  0 active torsions:
REMARK  status: ('A' for Active; 'I' for Inactive)
REMARK                            x       y       z     vdW  Elec       q    Type
REMARK                         _______ _______ _______ _____ _____    ______ ____
ROOT
ATOM      1  N   UNL     1      -2.668   4.787  -2.593  0.00  0.00    -0.105 NA
ATOM      2  C   UNL     1      -1.660   5.460  -3.330  0.00  0.00    +0.203 A 
ATOM      3  C   UNL     1      -2.008   5.905  -4.600  0.00  0.00    +0.194 A 
ATOM      4  F   UNL     1      -2.878   5.192  -5.377  0.00  0.00    -0.199 F 
ATOM      5  C   UNL     1      -1.094   6.795  -5.155  0.00  0.00    +0.136 A 
ATOM      6  N   UNL     1       0.184   6.797  -4.702  0.00  0.00    -0.187 NA
ATOM      7  C   UNL     1       0.613   5.913  -3.768  0.00  0.00    +0.370 A 
ATOM      8  O   UNL     1       1.723   5.311  -3.862  0.00  0.00    -0.243 OA
ATOM      9  N   UNL     1      -0.365   5.485  -2.931  0.00  0.00    -0.170 NA
ENDROOT
TORSDOF 0
ENDMDL
MODEL 8
REMARK VINA RESULT:      -4.1     12.345     12.922
REMARK  Name = 
REMARK  0 active torsions:
REMARK  status: ('A' for Active; 'I' for Inactive)
REMARK                            x       y       z     vdW  Elec       q    Type
REMARK                         _______ _______ _______ _____ _____    ______ ____
ROOT
ATOM      1  N   UNL     1      -2.422   5.157  -2.005  0.00  0.00    -0.105 NA
ATOM      2  C   UNL     1      -1.195   5.507  -1.386  0.00  0.00    +0.203 A 
ATOM      3  C   UNL     1      -1.149   6.740  -0.745  0.00  0.00    +0.194 A 
ATOM      4  F   UNL     1      -1.847   7.809  -1.235  0.00  0.00    -0.199 F 
ATOM      5  C   UNL     1      -0.039   6.908   0.077  0.00  0.00    +0.136 A 
ATOM      6  N   UNL     1       1.068   6.156  -0.147  0.00  0.00    -0.187 NA
ATOM      7  C   UNL     1       1.146   5.293  -1.190  0.00  0.00    +0.370 A 
ATOM      8  O   UNL     1       2.178   5.200  -1.918  0.00  0.00    -0.243 OA
ATOM      9  N   UNL     1      -0.054   4.801  -1.584  0.00  0.00    -0.170 NA
ENDROOT
TORSDOF 0
ENDMDL
MODEL 9
REMARK VINA RESULT:      -4.1     10.356     10.880
REMARK  Name = 
REMARK  0 active torsions:
REMARK  status: ('A' for Active; 'I' for Inactive)
REMARK                            x       y       z     vdW  Elec       q    Type
REMARK                         _______ _______ _______ _____ _____    ______ ____
ROOT
ATOM      1  N   UNL     1      -2.603   7.378  -5.240  0.00  0.00    -0.105 NA
ATOM      2  C   UNL     1      -1.495   6.567  -4.883  0.00  0.00    +0.203 A 
ATOM      3  C   UNL     1      -1.028   5.687  -5.852  0.00  0.00    +0.194 A 
ATOM      4  F   UNL     1      -1.891   5.090  -6.729  0.00  0.00    -0.199 F 
ATOM      5  C   UNL     1       0.215   5.134  -5.560  0.00  0.00    +0.136 A 
ATOM      6  N   UNL     1       0.631   5.093  -4.269  0.00  0.00    -0.187 NA
ATOM      7  C   UNL     1      -0.156   5.516  -3.250  0.00  0.00    +0.370 A 
ATOM      8  O   UNL     1      -0.271   4.870  -2.167  0.00  0.00    -0.243 OA
ATOM      9  N   UNL     1      -1.043   6.478  -3.608  0.00  0.00    -0.170 NA
ENDROOT
TORSDOF 0
ENDMDL
