MODEL 1
REMARK VINA RESULT:      -9.1      0.000      0.000
REMARK  Name = 
REMARK  6 active torsions:
REMARK  status: ('A' for Active; 'I' for Inactive)
REMARK    1  A    between atoms: C_5  and  C_6
REMARK    2  A    between atoms: C_6  and  C_14
REMARK    3  A    between atoms: C_7  and  C_8
REMARK    4  A    between atoms: C_8  and  N_9
REMARK    5  A    between atoms: C_18  and  C_19
REMARK    6  A    between atoms: C_20  and  C_21
REMARK                            x       y       z     vdW  Elec       q    Type
REMARK                         _______ _______ _______ _____ _____    ______ ____
ROOT
ATOM      1  C   UNL     1       2.809   5.464  -6.696  0.00  0.00    +0.015 C 
ATOM      2  C   UNL     1       3.330   5.432  -7.903  0.00  0.00    -0.007 C 
ENDROOT
BRANCH   1   7
ATOM      3  C   UNL     1       4.677   7.004  -1.636  0.00  0.00    +0.031 C 
ATOM      4  C   UNL     1       4.407   6.589  -3.046  0.00  0.00    -0.022 A 
ATOM      5  C   UNL     1       4.436   5.240  -3.375  0.00  0.00    -0.004 A 
ATOM      6  C   UNL     1       3.873   4.876  -4.591  0.00  0.00    -0.000 A 
ATOM      7  C   UNL     1       3.674   5.825  -5.586  0.00  0.00    +0.001 A 
ATOM      8  C   UNL     1       3.958   7.162  -5.355  0.00  0.00    -0.000 A 
ATOM      9  C   UNL     1       4.397   7.493  -4.095  0.00  0.00    -0.004 A 
ENDBRANCH   1   7
BRANCH   1  10
ATOM     10  C   UNL     1       1.360   5.461  -6.534  0.00  0.00    +0.081 A 
ATOM     11  N   UNL     1       0.885   5.974  -5.372  0.00  0.00    -0.245 NA
ATOM     12  C   UNL     1      -0.432   6.080  -5.145  0.00  0.00    +0.082 A 
ATOM     13  C   UNL     1      -1.265   5.671  -6.179  0.00  0.00    +0.019 A 
ATOM     14  C   UNL     1      -0.809   5.408  -7.451  0.00  0.00    +0.003 A 
ATOM     15  C   UNL     1       0.539   5.278  -7.639  0.00  0.00    +0.019 A 
BRANCH  12  16
ATOM     16  C   UNL     1      -0.990   7.085  -4.229  0.00  0.00    +0.026 C 
ATOM     17  C   UNL     1      -2.095   6.701  -3.588  0.00  0.00    +0.088 C 
BRANCH  17  18
ATOM     18  C   UNL     1      -1.948   5.458  -2.822  0.00  0.00    +0.388 C 
ATOM     19  O   UNL     1      -0.798   5.121  -2.142  0.00  0.00    -0.241 OA
ATOM     20  O   UNL     1      -2.865   4.602  -2.979  0.00  0.00    -0.241 OA
ENDBRANCH  17  18
ENDBRANCH  12  16
ENDBRANCH   1  10
BRANCH   2  21
ATOM     21  C   UNL     1       4.767   5.127  -8.126  0.00  0.00    +0.099 C 
BRANCH  21  22
ATOM     22  N   UNL     1       5.175   5.389  -9.500  0.00  0.00    -0.269 NA
ATOM     23  C   UNL     1       4.509   6.622  -9.883  0.00  0.00    +0.072 C 
ATOM     24  C   UNL     1       5.351   7.275 -10.938  0.00  0.00    +0.019 C 
ATOM     25  C   UNL     1       6.735   6.756 -10.639  0.00  0.00    +0.019 C 
ATOM     26  C   UNL     1       6.557   5.805  -9.464  0.00  0.00    +0.072 C 
ENDBRANCH  21  22
ENDBRANCH   2  21
TORSDOF 6
ENDMDL
MODEL 2
REMARK VINA RESULT:      -8.9      1.574      4.372
REMARK  Name = 
REMARK  6 active torsions:
REMARK  status: ('A' for Active; 'I' for Inactive)
REMARK    1  A    between atoms: C_5  and  C_6
REMARK    2  A    between atoms: C_6  and  C_14
REMARK    3  A    between atoms: C_7  and  C_8
REMARK    4  A    between atoms: C_8  and  N_9
REMARK    5  A    between atoms: C_18  and  C_19
REMARK    6  A    between atoms: C_20  and  C_21
REMARK                            x       y       z     vdW  Elec       q    Type
REMARK                         _______ _______ _______ _____ _____    ______ ____
ROOT
ATOM      1  C   UNL     1       1.732   5.361  -6.129  0.00  0.00    +0.015 C 
ATOM      2  C   UNL     1       2.497   4.879  -5.175  0.00  0.00    -0.007 C 
ENDROOT
BRANCH   1   7
ATOM      3  C   UNL     1       5.309   5.637 -10.441  0.00  0.00    +0.031 C 
ATOM      4  C   UNL     1       4.187   5.587  -9.455  0.00  0.00    -0.022 A 
ATOM      5  C   UNL     1       3.568   4.372  -9.191  0.00  0.00    -0.004 A 
ATOM      6  C   UNL     1       2.769   4.305  -8.058  0.00  0.00    -0.000 A 
ATOM      7  C   UNL     1       2.289   5.467  -7.467  0.00  0.00    +0.001 A 
ATOM      8  C   UNL     1       2.664   6.712  -7.948  0.00  0.00    -0.000 A 
ATOM      9  C   UNL     1       3.555   6.730  -8.995  0.00  0.00    -0.004 A 
ENDBRANCH   1   7
BRANCH   1  10
ATOM     10  C   UNL     1       0.293   5.469  -5.917  0.00  0.00    +0.081 A 
ATOM     11  N   UNL     1      -0.102   6.087  -4.778  0.00  0.00    -0.245 NA
ATOM     12  C   UNL     1      -1.399   6.298  -4.514  0.00  0.00    +0.082 A 
ATOM     13  C   UNL     1      -2.297   5.882  -5.489  0.00  0.00    +0.019 A 
ATOM     14  C   UNL     1      -1.908   5.506  -6.755  0.00  0.00    +0.003 A 
ATOM     15  C   UNL     1      -0.580   5.272  -6.980  0.00  0.00    +0.019 A 
BRANCH  12  16
ATOM     16  C   UNL     1      -1.854   7.394  -3.648  0.00  0.00    +0.026 C 
ATOM     17  C   UNL     1      -2.673   7.024  -2.662  0.00  0.00    +0.088 C 
BRANCH  17  18
ATOM     18  C   UNL     1      -2.128   5.982  -1.784  0.00  0.00    +0.388 C 
ATOM     19  O   UNL     1      -0.980   6.147  -1.039  0.00  0.00    -0.241 OA
ATOM     20  O   UNL     1      -2.654   4.838  -1.893  0.00  0.00    -0.241 OA
ENDBRANCH  17  18
ENDBRANCH  12  16
ENDBRANCH   1  10
BRANCH   2  21
ATOM     21  C   UNL     1       3.975   5.026  -5.209  0.00  0.00    +0.099 C 
BRANCH  21  22
ATOM     22  N   UNL     1       4.479   5.745  -4.046  0.00  0.00    -0.269 NA
ATOM     23  C   UNL     1       4.584   7.136  -4.453  0.00  0.00    +0.072 C 
ATOM     24  C   UNL     1       4.436   7.975  -3.219  0.00  0.00    +0.019 C 
ATOM     25  C   UNL     1       3.615   7.098  -2.307  0.00  0.00    +0.019 C 
ATOM     26  C   UNL     1       3.406   5.805  -3.081  0.00  0.00    +0.072 C 
ENDBRANCH  21  22
ENDBRANCH   2  21
TORSDOF 6
ENDMDL
MODEL 3
REMARK VINA RESULT:      -8.5      4.680      7.441
REMARK  Name = 
REMARK  6 active torsions:
REMARK  status: ('A' for Active; 'I' for Inactive)
REMARK    1  A    between atoms: C_5  and  C_6
REMARK    2  A    between atoms: C_6  and  C_14
REMARK    3  A    between atoms: C_7  and  C_8
REMARK    4  A    between atoms: C_8  and  N_9
REMARK    5  A    between atoms: C_18  and  C_19
REMARK    6  A    between atoms: C_20  and  C_21
REMARK                            x       y       z     vdW  Elec       q    Type
REMARK                         _______ _______ _______ _____ _____    ______ ____
ROOT
ATOM      1  C   UNL     1       2.562   5.190  -9.182  0.00  0.00    +0.015 C 
ATOM      2  C   UNL     1       1.820   4.650 -10.122  0.00  0.00    -0.007 C 
ENDROOT
BRANCH   1   7
ATOM      3  C   UNL     1       1.897   6.203  -3.705  0.00  0.00    +0.031 C 
ATOM      4  C   UNL     1       1.842   5.890  -5.165  0.00  0.00    -0.022 A 
ATOM      5  C   UNL     1       1.515   6.896  -6.064  0.00  0.00    -0.004 A 
ATOM      6  C   UNL     1       1.786   6.657  -7.404  0.00  0.00    -0.000 A 
ATOM      7  C   UNL     1       1.980   5.359  -7.861  0.00  0.00    +0.001 A 
ATOM      8  C   UNL     1       1.985   4.291  -6.977  0.00  0.00    -0.000 A 
ATOM      9  C   UNL     1       1.835   4.590  -5.643  0.00  0.00    -0.004 A 
ENDBRANCH   1   7
BRANCH   1  10
ATOM     10  C   UNL     1       4.003   5.305  -9.374  0.00  0.00    +0.081 A 
ATOM     11  N   UNL     1       4.411   5.924 -10.509  0.00  0.00    -0.245 NA
ATOM     12  C   UNL     1       5.710   6.141 -10.756  0.00  0.00    +0.082 A 
ATOM     13  C   UNL     1       6.596   5.731  -9.767  0.00  0.00    +0.019 A 
ATOM     14  C   UNL     1       6.192   5.355  -8.506  0.00  0.00    +0.003 A 
ATOM     15  C   UNL     1       4.863   5.114  -8.299  0.00  0.00    +0.019 A 
BRANCH  12  16
ATOM     16  C   UNL     1       6.171   7.240 -11.616  0.00  0.00    +0.026 C 
ATOM     17  C   UNL     1       7.209   6.937 -12.398  0.00  0.00    +0.088 C 
BRANCH  17  18
ATOM     18  C   UNL     1       6.992   5.774 -13.266  0.00  0.00    +0.388 C 
ATOM     19  O   UNL     1       7.633   4.567 -13.088  0.00  0.00    -0.241 OA
ATOM     20  O   UNL     1       6.330   5.990 -14.321  0.00  0.00    -0.241 OA
ENDBRANCH  17  18
ENDBRANCH  12  16
ENDBRANCH   1  10
BRANCH   2  21
ATOM     21  C   UNL     1       0.340   4.780 -10.122  0.00  0.00    +0.099 C 
BRANCH  21  22
ATOM     22  N   UNL     1      -0.153   5.416 -11.337  0.00  0.00    -0.269 NA
ATOM     23  C   UNL     1      -0.327   6.821 -11.008  0.00  0.00    +0.072 C 
ATOM     24  C   UNL     1      -0.171   7.600 -12.280  0.00  0.00    +0.019 C 
ATOM     25  C   UNL     1       0.714   6.711 -13.118  0.00  0.00    +0.019 C 
ATOM     26  C   UNL     1       0.949   5.470 -12.269  0.00  0.00    +0.072 C 
ENDBRANCH  21  22
ENDBRANCH   2  21
TORSDOF 6
ENDMDL
MODEL 4
REMARK VINA RESULT:      -8.4      4.685      6.373
REMARK  Name = 
REMARK  6 active torsions:
REMARK  status: ('A' for Active; 'I' for Inactive)
REMARK    1  A    between atoms: C_5  and  C_6
REMARK    2  A    between atoms: C_6  and  C_14
REMARK    3  A    between atoms: C_7  and  C_8
REMARK    4  A    between atoms: C_8  and  N_9
REMARK    5  A    between atoms: C_18  and  C_19
REMARK    6  A    between atoms: C_20  and  C_21
REMARK                            x       y       z     vdW  Elec       q    Type
REMARK                         _______ _______ _______ _____ _____    ______ ____
ROOT
ATOM      1  C   UNL     1       3.496   5.938 -10.004  0.00  0.00    +0.015 C 
ATOM      2  C   UNL     1       4.504   6.218 -10.799  0.00  0.00    -0.007 C 
ENDROOT
BRANCH   1   7
ATOM      3  C   UNL     1       2.673   6.255  -4.465  0.00  0.00    +0.031 C 
ATOM      4  C   UNL     1       3.061   6.332  -5.906  0.00  0.00    -0.022 A 
ATOM      5  C   UNL     1       4.104   5.542  -6.371  0.00  0.00    -0.004 A 
ATOM      6  C   UNL     1       4.221   5.399  -7.747  0.00  0.00    -0.000 A 
ATOM      7  C   UNL     1       3.606   6.305  -8.602  0.00  0.00    +0.001 A 
ATOM      8  C   UNL     1       2.803   7.317  -8.101  0.00  0.00    -0.000 A 
ATOM      9  C   UNL     1       2.617   7.345  -6.739  0.00  0.00    -0.004 A 
ENDBRANCH   1   7
BRANCH   1  10
ATOM     10  C   UNL     1       2.202   5.580 -10.575  0.00  0.00    +0.081 A 
ATOM     11  N   UNL     1       2.099   5.656 -11.924  0.00  0.00    -0.245 NA
ATOM     12  C   UNL     1       0.977   5.289 -12.558  0.00  0.00    +0.082 A 
ATOM     13  C   UNL     1      -0.045   4.796 -11.756  0.00  0.00    +0.019 A 
ATOM     14  C   UNL     1       0.136   4.460 -10.433  0.00  0.00    +0.003 A 
ATOM     15  C   UNL     1       1.280   4.876  -9.811  0.00  0.00    +0.019 A 
BRANCH  12  16
ATOM     16  C   UNL     1       0.981   4.822 -13.951  0.00  0.00    +0.026 C 
ATOM     17  C   UNL     1       0.548   5.717 -14.841  0.00  0.00    +0.088 C 
BRANCH  17  18
ATOM     18  C   UNL     1       1.272   6.994 -14.814  0.00  0.00    +0.388 C 
ATOM     19  O   UNL     1       0.713   8.170 -14.362  0.00  0.00    -0.241 OA
ATOM     20  O   UNL     1       2.382   7.011 -15.417  0.00  0.00    -0.241 OA
ENDBRANCH  17  18
ENDBRANCH  12  16
ENDBRANCH   1  10
BRANCH   2  21
ATOM     21  C   UNL     1       5.901   6.287 -10.296  0.00  0.00    +0.099 C 
BRANCH  21  22
ATOM     22  N   UNL     1       6.819   5.515 -11.123  0.00  0.00    -0.269 NA
ATOM     23  C   UNL     1       6.306   5.609 -12.479  0.00  0.00    +0.072 C 
ATOM     24  C   UNL     1       7.471   5.448 -13.410  0.00  0.00    +0.019 C 
ATOM     25  C   UNL     1       8.637   5.925 -12.582  0.00  0.00    +0.019 C 
ATOM     26  C   UNL     1       8.044   6.273 -11.224  0.00  0.00    +0.072 C 
ENDBRANCH  21  22
ENDBRANCH   2  21
TORSDOF 6
ENDMDL
MODEL 5
REMARK VINA RESULT:      -8.3      3.613      6.902
REMARK  Name = 
REMARK  6 active torsions:
REMARK  status: ('A' for Active; 'I' for Inactive)
REMARK    1  A    between atoms: C_5  and  C_6
REMARK    2  A    between atoms: C_6  and  C_14
REMARK    3  A    between atoms: C_7  and  C_8
REMARK    4  A    between atoms: C_8  and  N_9
REMARK    5  A    between atoms: C_18  and  C_19
REMARK    6  A    between atoms: C_20  and  C_21
REMARK                            x       y       z     vdW  Elec       q    Type
REMARK                         _______ _______ _______ _____ _____    ______ ____
ROOT
ATOM      1  C   UNL     1       1.523   5.522  -7.891  0.00  0.00    +0.015 C 
ATOM      2  C   UNL     1       2.492   4.961  -7.204  0.00  0.00    -0.007 C 
ENDROOT
BRANCH   1   7
ATOM      3  C   UNL     1      -2.374   6.335  -3.939  0.00  0.00    +0.031 C 
ATOM      4  C   UNL     1      -1.460   6.273  -5.120  0.00  0.00    -0.022 A 
ATOM      5  C   UNL     1      -0.438   7.207  -5.237  0.00  0.00    -0.004 A 
ATOM      6  C   UNL     1       0.568   6.928  -6.153  0.00  0.00    -0.000 A 
ATOM      7  C   UNL     1       0.358   6.002  -7.167  0.00  0.00    +0.001 A 
ATOM      8  C   UNL     1      -0.826   5.285  -7.236  0.00  0.00    -0.000 A 
ATOM      9  C   UNL     1      -1.744   5.506  -6.237  0.00  0.00    -0.004 A 
ENDBRANCH   1   7
BRANCH   1  10
ATOM     10  C   UNL     1       1.759   5.938  -9.269  0.00  0.00    +0.081 A 
ATOM     11  N   UNL     1       3.008   5.733  -9.752  0.00  0.00    -0.245 NA
ATOM     12  C   UNL     1       3.318   6.019 -11.025  0.00  0.00    +0.082 A 
ATOM     13  C   UNL     1       2.278   6.495 -11.815  0.00  0.00    +0.019 A 
ATOM     14  C   UNL     1       0.959   6.452 -11.424  0.00  0.00    +0.003 A 
ATOM     15  C   UNL     1       0.682   6.186 -10.112  0.00  0.00    +0.019 A 
BRANCH  12  16
ATOM     16  C   UNL     1       4.406   5.335 -11.739  0.00  0.00    +0.026 C 
ATOM     17  C   UNL     1       5.362   6.142 -12.202  0.00  0.00    +0.088 C 
BRANCH  17  18
ATOM     18  C   UNL     1       5.986   6.989 -11.179  0.00  0.00    +0.388 C 
ATOM     19  O   UNL     1       6.204   8.339 -11.344  0.00  0.00    -0.241 OA
ATOM     20  O   UNL     1       6.504   6.379 -10.200  0.00  0.00    -0.241 OA
ENDBRANCH  17  18
ENDBRANCH  12  16
ENDBRANCH   1  10
BRANCH   2  21
ATOM     21  C   UNL     1       2.234   4.248  -5.926  0.00  0.00    +0.099 C 
BRANCH  21  22
ATOM     22  N   UNL     1       3.272   4.507  -4.936  0.00  0.00    -0.269 NA
ATOM     23  C   UNL     1       4.199   5.433  -5.565  0.00  0.00    +0.072 C 
ATOM     24  C   UNL     1       4.850   6.225  -4.471  0.00  0.00    +0.019 C 
ATOM     25  C   UNL     1       3.822   6.192  -3.368  0.00  0.00    +0.019 C 
ATOM     26  C   UNL     1       2.686   5.337  -3.909  0.00  0.00    +0.072 C 
ENDBRANCH  21  22
ENDBRANCH   2  21
TORSDOF 6
ENDMDL
MODEL 6
REMARK VINA RESULT:      -8.2      3.211      4.156
REMARK  Name = 
REMARK  6 active torsions:
REMARK  status: ('A' for Active; 'I' for Inactive)
REMARK    1  A    between atoms: C_5  and  C_6
REMARK    2  A    between atoms: C_6  and  C_14
REMARK    3  A    between atoms: C_7  and  C_8
REMARK    4  A    between atoms: C_8  and  N_9
REMARK    5  A    between atoms: C_18  and  C_19
REMARK    6  A    between atoms: C_20  and  C_21
REMARK                            x       y       z     vdW  Elec       q    Type
REMARK                         _______ _______ _______ _____ _____    ______ ____
ROOT
ATOM      1  C   UNL     1       3.729   5.620  -7.354  0.00  0.00    +0.015 C 
ATOM      2  C   UNL     1       4.547   5.654  -8.382  0.00  0.00    -0.007 C 
ENDROOT
BRANCH   1   7
ATOM      3  C   UNL     1       4.221   6.543  -1.843  0.00  0.00    +0.031 C 
ATOM      4  C   UNL     1       4.322   6.340  -3.320  0.00  0.00    -0.022 A 
ATOM      5  C   UNL     1       4.675   5.090  -3.811  0.00  0.00    -0.004 A 
ATOM      6  C   UNL     1       4.447   4.855  -5.160  0.00  0.00    -0.000 A 
ATOM      7  C   UNL     1       4.270   5.918  -6.038  0.00  0.00    +0.001 A 
ATOM      8  C   UNL     1       4.239   7.223  -5.572  0.00  0.00    -0.000 A 
ATOM      9  C   UNL     1       4.347   7.398  -4.212  0.00  0.00    -0.004 A 
ENDBRANCH   1   7
BRANCH   1  10
ATOM     10  C   UNL     1       2.288   5.612  -7.575  0.00  0.00    +0.081 A 
ATOM     11  N   UNL     1       1.879   5.518  -8.864  0.00  0.00    -0.245 NA
ATOM     12  C   UNL     1       0.578   5.437  -9.178  0.00  0.00    +0.082 A 
ATOM     13  C   UNL     1      -0.308   5.416  -8.108  0.00  0.00    +0.019 A 
ATOM     14  C   UNL     1       0.095   5.237  -6.804  0.00  0.00    +0.003 A 
ATOM     15  C   UNL     1       1.426   5.355  -6.516  0.00  0.00    +0.019 A 
BRANCH  12  16
ATOM     16  C   UNL     1       0.109   4.794 -10.413  0.00  0.00    +0.026 C 
ATOM     17  C   UNL     1      -0.619   5.579 -11.209  0.00  0.00    +0.088 C 
BRANCH  17  18
ATOM     18  C   UNL     1       0.049   6.826 -11.601  0.00  0.00    +0.388 C 
ATOM     19  O   UNL     1      -0.517   8.072 -11.434  0.00  0.00    -0.241 OA
ATOM     20  O   UNL     1       1.099   6.695 -12.291  0.00  0.00    -0.241 OA
ENDBRANCH  17  18
ENDBRANCH  12  16
ENDBRANCH   1  10
BRANCH   2  21
ATOM     21  C   UNL     1       5.997   5.359  -8.238  0.00  0.00    +0.099 C 
BRANCH  21  22
ATOM     22  N   UNL     1       6.678   5.325  -9.526  0.00  0.00    -0.269 NA
ATOM     23  C   UNL     1       5.676   5.687 -10.515  0.00  0.00    +0.072 C 
ATOM     24  C   UNL     1       6.398   6.306 -11.675  0.00  0.00    +0.019 C 
ATOM     25  C   UNL     1       7.648   6.863 -11.041  0.00  0.00    +0.019 C 
ATOM     26  C   UNL     1       7.560   6.468  -9.574  0.00  0.00    +0.072 C 
ENDBRANCH  21  22
ENDBRANCH   2  21
TORSDOF 6
ENDMDL
MODEL 7
REMARK VINA RESULT:      -8.1      5.233      8.173
REMARK  Name = 
REMARK  6 active torsions:
REMARK  status: ('A' for Active; 'I' for Inactive)
REMARK    1  A    between atoms: C_5  and  C_6
REMARK    2  A    between atoms: C_6  and  C_14
REMARK    3  A    between atoms: C_7  and  C_8
REMARK    4  A    between atoms: C_8  and  N_9
REMARK    5  A    between atoms: C_18  and  C_19
REMARK    6  A    between atoms: C_20  and  C_21
REMARK                            x       y       z     vdW  Elec       q    Type
REMARK                         _______ _______ _______ _____ _____    ______ ____
ROOT
ATOM      1  C   UNL     1       3.248   6.053 -10.807  0.00  0.00    +0.015 C 
ATOM      2  C   UNL     1       3.151   5.136  -9.871  0.00  0.00    -0.007 C 
ENDROOT
BRANCH   1   7
ATOM      3  C   UNL     1       8.753   5.937 -11.877  0.00  0.00    +0.031 C 
ATOM      4  C   UNL     1       7.273   6.119 -11.773  0.00  0.00    -0.022 A 
ATOM      5  C   UNL     1       6.436   5.330 -12.551  0.00  0.00    -0.004 A 
ATOM      6  C   UNL     1       5.093   5.299 -12.198  0.00  0.00    -0.000 A 
ATOM      7  C   UNL     1       4.554   6.297 -11.396  0.00  0.00    +0.001 A 
ATOM      8  C   UNL     1       5.360   7.294 -10.870  0.00  0.00    -0.000 A 
ATOM      9  C   UNL     1       6.704   7.215 -11.146  0.00  0.00    -0.004 A 
ENDBRANCH   1   7
BRANCH   1  10
ATOM     10  C   UNL     1       2.042   6.562 -11.449  0.00  0.00    +0.081 A 
ATOM     11  N   UNL     1       1.995   6.467 -12.800  0.00  0.00    -0.245 NA
ATOM     12  C   UNL     1       0.908   6.844 -13.488  0.00  0.00    +0.082 A 
ATOM     13  C   UNL     1      -0.166   7.296 -12.732  0.00  0.00    +0.019 A 
ATOM     14  C   UNL     1      -0.238   7.146 -11.365  0.00  0.00    +0.003 A 
ATOM     15  C   UNL     1       0.898   6.788 -10.694  0.00  0.00    +0.019 A 
BRANCH  12  16
ATOM     16  C   UNL     1       0.575   6.275 -14.801  0.00  0.00    +0.026 C 
ATOM     17  C   UNL     1       0.387   7.175 -15.768  0.00  0.00    +0.088 C 
BRANCH  17  18
ATOM     18  C   UNL     1       1.518   8.088 -15.970  0.00  0.00    +0.388 C 
ATOM     19  O   UNL     1       1.432   9.450 -15.785  0.00  0.00    -0.241 OA
ATOM     20  O   UNL     1       2.538   7.586 -16.524  0.00  0.00    -0.241 OA
ENDBRANCH  17  18
ENDBRANCH  12  16
ENDBRANCH   1  10
BRANCH   2  21
ATOM     21  C   UNL     1       4.293   4.805  -8.979  0.00  0.00    +0.099 C 
BRANCH  21  22
ATOM     22  N   UNL     1       3.906   4.802  -7.574  0.00  0.00    -0.269 NA
ATOM     23  C   UNL     1       3.685   6.194  -7.220  0.00  0.00    +0.072 C 
ATOM     24  C   UNL     1       2.693   6.217  -6.095  0.00  0.00    +0.019 C 
ATOM     25  C   UNL     1       1.916   4.941  -6.300  0.00  0.00    +0.019 C 
ATOM     26  C   UNL     1       2.566   4.268  -7.501  0.00  0.00    +0.072 C 
ENDBRANCH  21  22
ENDBRANCH   2  21
TORSDOF 6
ENDMDL
MODEL 8
REMARK VINA RESULT:      -8.1      2.577      5.181
REMARK  Name = 
REMARK  6 active torsions:
REMARK  status: ('A' for Active; 'I' for Inactive)
REMARK    1  A    between atoms: C_5  and  C_6
REMARK    2  A    between atoms: C_6  and  C_14
REMARK    3  A    between atoms: C_7  and  C_8
REMARK    4  A    between atoms: C_8  and  N_9
REMARK    5  A    between atoms: C_18  and  C_19
REMARK    6  A    between atoms: C_20  and  C_21
REMARK                            x       y       z     vdW  Elec       q    Type
REMARK                         _______ _______ _______ _____ _____    ______ ____
ROOT
ATOM      1  C   UNL     1       0.757   5.980  -5.408  0.00  0.00    +0.015 C 
ATOM      2  C   UNL     1       1.592   5.331  -4.628  0.00  0.00    -0.007 C 
ENDROOT
BRANCH   1   7
ATOM      3  C   UNL     1       0.427   6.884 -10.935  0.00  0.00    +0.031 C 
ATOM      4  C   UNL     1       0.659   6.465  -9.519  0.00  0.00    -0.022 A 
ATOM      5  C   UNL     1       1.765   6.955  -8.838  0.00  0.00    -0.004 A 
ATOM      6  C   UNL     1       1.771   6.808  -7.457  0.00  0.00    -0.000 A 
ATOM      7  C   UNL     1       0.941   5.877  -6.846  0.00  0.00    +0.001 A 
ATOM      8  C   UNL     1       0.038   5.136  -7.593  0.00  0.00    -0.000 A 
ATOM      9  C   UNL     1      -0.019   5.404  -8.941  0.00  0.00    -0.004 A 
ENDBRANCH   1   7
BRANCH   1  10
ATOM     10  C   UNL     1      -0.488   6.504  -4.859  0.00  0.00    +0.081 A 
ATOM     11  N   UNL     1      -1.105   5.734  -3.929  0.00  0.00    -0.245 NA
ATOM     12  C   UNL     1      -2.220   6.147  -3.311  0.00  0.00    +0.082 A 
ATOM     13  C   UNL     1      -2.674   7.415  -3.655  0.00  0.00    +0.019 A 
ATOM     14  C   UNL     1      -1.923   8.310  -4.382  0.00  0.00    +0.003 A 
ATOM     15  C   UNL     1      -0.807   7.846  -5.022  0.00  0.00    +0.019 A 
BRANCH  12  16
ATOM     16  C   UNL     1      -2.598   5.670  -1.974  0.00  0.00    +0.026 C 
ATOM     17  C   UNL     1      -1.589   5.590  -1.105  0.00  0.00    +0.088 C 
BRANCH  17  18
ATOM     18  C   UNL     1      -0.852   6.846  -0.920  0.00  0.00    +0.388 C 
ATOM     19  O   UNL     1      -1.466   8.052  -0.662  0.00  0.00    -0.241 OA
ATOM     20  O   UNL     1       0.378   6.810  -1.207  0.00  0.00    -0.241 OA
ENDBRANCH  17  18
ENDBRANCH  12  16
ENDBRANCH   1  10
BRANCH   2  21
ATOM     21  C   UNL     1       2.990   5.047  -5.045  0.00  0.00    +0.099 C 
BRANCH  21  22
ATOM     22  N   UNL     1       3.963   5.669  -4.155  0.00  0.00    -0.269 NA
ATOM     23  C   UNL     1       4.087   7.045  -4.602  0.00  0.00    +0.072 C 
ATOM     24  C   UNL     1       4.497   7.865  -3.415  0.00  0.00    +0.019 C 
ATOM     25  C   UNL     1       3.954   7.075  -2.251  0.00  0.00    +0.019 C 
ATOM     26  C   UNL     1       3.322   5.838  -2.872  0.00  0.00    +0.072 C 
ENDBRANCH  21  22
ENDBRANCH   2  21
TORSDOF 6
ENDMDL
MODEL 9
REMARK VINA RESULT:      -8.1      5.120      7.003
REMARK  Name = 
REMARK  6 active torsions:
REMARK  status: ('A' for Active; 'I' for Inactive)
REMARK    1  A    between atoms: C_5  and  C_6
REMARK    2  A    between atoms: C_6  and  C_14
REMARK    3  A    between atoms: C_7  and  C_8
REMARK    4  A    between atoms: C_8  and  N_9
REMARK    5  A    between atoms: C_18  and  C_19
REMARK    6  A    between atoms: C_20  and  C_21
REMARK                            x       y       z     vdW  Elec       q    Type
REMARK                         _______ _______ _______ _____ _____    ______ ____
ROOT
ATOM      1  C   UNL     1       3.269   6.109 -10.461  0.00  0.00    +0.015 C 
ATOM      2  C   UNL     1       4.461   6.368 -10.950  0.00  0.00    -0.007 C 
ENDROOT
BRANCH   1   7
ATOM      3  C   UNL     1       1.276   4.639  -5.428  0.00  0.00    +0.031 C 
ATOM      4  C   UNL     1       2.020   4.993  -6.675  0.00  0.00    -0.022 A 
ATOM      5  C   UNL     1       2.386   3.985  -7.556  0.00  0.00    -0.004 A 
ATOM      6  C   UNL     1       2.778   4.374  -8.831  0.00  0.00    -0.000 A 
ATOM      7  C   UNL     1       3.174   5.683  -9.075  0.00  0.00    +0.001 A 
ATOM      8  C   UNL     1       3.111   6.640  -8.074  0.00  0.00    -0.000 A 
ATOM      9  C   UNL     1       2.600   6.237  -6.863  0.00  0.00    -0.004 A 
ENDBRANCH   1   7
BRANCH   1  10
ATOM     10  C   UNL     1       2.081   6.552 -11.180  0.00  0.00    +0.081 A 
ATOM     11  N   UNL     1       2.076   6.342 -12.519  0.00  0.00    -0.245 NA
ATOM     12  C   UNL     1       1.008   6.650 -13.269  0.00  0.00    +0.082 A 
ATOM     13  C   UNL     1      -0.091   7.157 -12.587  0.00  0.00    +0.019 A 
ATOM     14  C   UNL     1      -0.204   7.123 -11.215  0.00  0.00    +0.003 A 
ATOM     15  C   UNL     1       0.913   6.832 -10.482  0.00  0.00    +0.019 A 
BRANCH  12  16
ATOM     16  C   UNL     1       0.719   5.968 -14.538  0.00  0.00    +0.026 C 
ATOM     17  C   UNL     1       0.435   6.783 -15.556  0.00  0.00    +0.088 C 
BRANCH  17  18
ATOM     18  C   UNL     1       1.471   7.785 -15.834  0.00  0.00    +0.388 C 
ATOM     19  O   UNL     1       2.785   7.461 -16.096  0.00  0.00    -0.241 OA
ATOM     20  O   UNL     1       1.145   8.988 -15.625  0.00  0.00    -0.241 OA
ENDBRANCH  17  18
ENDBRANCH  12  16
ENDBRANCH   1  10
BRANCH   2  21
ATOM     21  C   UNL     1       5.681   5.691 -10.436  0.00  0.00    +0.099 C 
BRANCH  21  22
ATOM     22  N   UNL     1       6.563   5.263 -11.514  0.00  0.00    -0.269 NA
ATOM     23  C   UNL     1       6.302   6.165 -12.622  0.00  0.00    +0.072 C 
ATOM     24  C   UNL     1       7.553   6.233 -13.447  0.00  0.00    +0.019 C 
ATOM     25  C   UNL     1       8.638   5.915 -12.448  0.00  0.00    +0.019 C 
ATOM     26  C   UNL     1       7.907   5.641 -11.142  0.00  0.00    +0.072 C 
ENDBRANCH  21  22
ENDBRANCH   2  21
TORSDOF 6
ENDMDL
