MODEL 1
REMARK VINA RESULT:     -10.0      0.000      0.000
REMARK  Name = 
REMARK  6 active torsions:
REMARK  status: ('A' for Active; 'I' for Inactive)
REMARK    1  A    between atoms: C_2  and  C_4
REMARK    2  A    between atoms: C_4  and  O_6
REMARK    3  A    between atoms: O_6  and  C_7
REMARK    4  A    between atoms: C_7  and  C_8
REMARK    5  A    between atoms: C_8  and  C_10
REMARK    6  A    between atoms: C_12  and  C_13
REMARK                            x       y       z     vdW  Elec       q    Type
REMARK                         _______ _______ _______ _____ _____    ______ ____
ROOT
ATOM      1  C   UNL     1       2.060   5.993  -2.895  0.00  0.00    +0.174 C 
ATOM      2  C   UNL     1       2.028   6.062  -4.287  0.00  0.00    +0.034 C 
ATOM      3  C   UNL     1       3.585   6.124  -4.725  0.00  0.00    +0.005 C 
ATOM      4  C   UNL     1       3.160   5.489  -6.224  0.00  0.00    +0.004 C 
ATOM      5  C   UNL     1       2.953   7.008  -6.900  0.00  0.00    +0.038 C 
ATOM      6  C   UNL     1       1.300   7.213  -6.493  0.00  0.00    +0.153 C 
ATOM      7  O   UNL     1       0.895   5.765  -6.664  0.00  0.00    -0.223 OA
ATOM      8  C   UNL     1       2.638   6.498  -8.370  0.00  0.00    +0.036 C 
ATOM      9  C   UNL     1       2.986   5.085  -8.572  0.00  0.00    -0.038 C 
ATOM     10  C   UNL     1       2.543   4.688  -9.773  0.00  0.00    +0.034 C 
ATOM     11  C   UNL     1       2.428   5.658 -10.882  0.00  0.00    +0.195 C 
ATOM     12  C   UNL     1       3.268   6.836 -10.600  0.00  0.00    +0.038 C 
ATOM     13  O   UNL     1       1.958   5.381 -11.998  0.00  0.00    -0.287 OA
ATOM     14  C   UNL     1       4.338   4.647  -8.078  0.00  0.00    +0.022 C 
ATOM     15  C   UNL     1       1.298   6.895  -8.862  0.00  0.00    +0.009 C 
ATOM     16  C   UNL     1       3.566   7.180  -9.336  0.00  0.00    -0.020 C 
ATOM     17  C   UNL     1       4.660   5.393  -6.785  0.00  0.00    +0.004 C 
ATOM     18  C   UNL     1       3.813   4.700  -4.026  0.00  0.00    +0.033 C 
ATOM     19  C   UNL     1       1.548   4.659  -4.688  0.00  0.00    +0.003 C 
ATOM     20  C   UNL     1       1.466   7.185  -4.875  0.00  0.00    +0.036 C 
ATOM     21  C   UNL     1       3.333   5.051  -2.484  0.00  0.00    +0.149 C 
ATOM     22  O   UNL     1       4.347   6.152  -2.309  0.00  0.00    -0.330 OA
ATOM     23  C   UNL     1       3.538   7.409  -2.562  0.00  0.00    +0.235 C 
ATOM     24  O   UNL     1       2.260   6.866  -1.932  0.00  0.00    -0.326 OA
ENDROOT
BRANCH  23  25
ATOM     25  C   UNL     1       3.990   8.108  -1.122  0.00  0.00    +0.057 C 
ATOM     26  C   UNL     1       4.920   7.147  -0.490  0.00  0.00    +0.005 C 
ATOM     27  C   UNL     1       5.119   7.430   0.934  0.00  0.00    +0.000 C 
ATOM     28  C   UNL     1       4.297   8.427   1.611  0.00  0.00    +0.000 C 
ATOM     29  C   UNL     1       3.090   8.946   0.944  0.00  0.00    +0.000 C 
ATOM     30  C   UNL     1       2.742   8.392  -0.378  0.00  0.00    +0.005 C 
ENDBRANCH  23  25
BRANCH   1  31
ATOM     31  C   UNL     1       0.833   5.273  -2.378  0.00  0.00    +0.221 C 
ATOM     32  O   UNL     1       1.002   4.290  -1.674  0.00  0.00    -0.290 OA
BRANCH  31  33
ATOM     33  C   UNL     1      -0.450   5.806  -2.621  0.00  0.00    +0.275 C 
BRANCH  33  34
ATOM     34  O   UNL     1      -1.547   5.081  -2.959  0.00  0.00    -0.440 OA
BRANCH  34  35
ATOM     35  C   UNL     1      -2.514   5.840  -3.635  0.00  0.00    +0.317 C 
ATOM     36  O   UNL     1      -3.696   5.974  -3.202  0.00  0.00    -0.250 OA
BRANCH  35  38
ATOM     37  C   UNL     1      -2.435   7.501  -4.975  0.00  0.00    +0.012 C 
ATOM     38  C   UNL     1      -2.201   6.483  -4.924  0.00  0.00    +0.099 C 
ATOM     39  C   UNL     1      -2.479   5.485  -6.019  0.00  0.00    +0.012 C 
ENDBRANCH  35  38
ENDBRANCH  34  35
ENDBRANCH  33  34
ENDBRANCH  31  33
ENDBRANCH   1  31
TORSDOF 6
ENDMDL
MODEL 2
REMARK VINA RESULT:      -9.8      1.490      1.890
REMARK  Name = 
REMARK  6 active torsions:
REMARK  status: ('A' for Active; 'I' for Inactive)
REMARK    1  A    between atoms: C_2  and  C_4
REMARK    2  A    between atoms: C_4  and  O_6
REMARK    3  A    between atoms: O_6  and  C_7
REMARK    4  A    between atoms: C_7  and  C_8
REMARK    5  A    between atoms: C_8  and  C_10
REMARK    6  A    between atoms: C_12  and  C_13
REMARK                            x       y       z     vdW  Elec       q    Type
REMARK                         _______ _______ _______ _____ _____    ______ ____
ROOT
ATOM      1  C   UNL     1       2.528   6.276  -1.807  0.00  0.00    +0.174 C 
ATOM      2  C   UNL     1       2.288   6.176  -3.176  0.00  0.00    +0.034 C 
ATOM      3  C   UNL     1       3.612   6.802  -3.866  0.00  0.00    +0.005 C 
ATOM      4  C   UNL     1       3.289   5.893  -5.244  0.00  0.00    +0.004 C 
ATOM      5  C   UNL     1       2.395   7.124  -5.946  0.00  0.00    +0.038 C 
ATOM      6  C   UNL     1       0.871   6.701  -5.284  0.00  0.00    +0.153 C 
ATOM      7  O   UNL     1       1.072   5.202  -5.320  0.00  0.00    -0.223 OA
ATOM      8  C   UNL     1       2.124   6.377  -7.320  0.00  0.00    +0.036 C 
ATOM      9  C   UNL     1       2.988   5.204  -7.512  0.00  0.00    -0.038 C 
ATOM     10  C   UNL     1       2.592   4.538  -8.605  0.00  0.00    +0.034 C 
ATOM     11  C   UNL     1       1.947   5.257  -9.723  0.00  0.00    +0.195 C 
ATOM     12  C   UNL     1       2.263   6.695  -9.636  0.00  0.00    +0.038 C 
ATOM     13  O   UNL     1       1.488   4.699 -10.734  0.00  0.00    -0.287 OA
ATOM     14  C   UNL     1       4.454   5.392  -7.226  0.00  0.00    +0.022 C 
ATOM     15  C   UNL     1       0.687   6.156  -7.603  0.00  0.00    +0.009 C 
ATOM     16  C   UNL     1       2.558   7.263  -8.455  0.00  0.00    -0.020 C 
ATOM     17  C   UNL     1       4.610   6.339  -6.039  0.00  0.00    +0.004 C 
ATOM     18  C   UNL     1       4.490   5.669  -3.150  0.00  0.00    +0.033 C 
ATOM     19  C   UNL     1       2.373   4.664  -3.430  0.00  0.00    +0.003 C 
ATOM     20  C   UNL     1       1.245   6.915  -3.715  0.00  0.00    +0.036 C 
ATOM     21  C   UNL     1       4.115   5.964  -1.568  0.00  0.00    +0.149 C 
ATOM     22  O   UNL     1       4.606   7.389  -1.611  0.00  0.00    -0.330 OA
ATOM     23  C   UNL     1       3.330   8.188  -1.785  0.00  0.00    +0.235 C 
ATOM     24  O   UNL     1       2.479   7.255  -0.930  0.00  0.00    -0.326 OA
ENDROOT
BRANCH  23  25
ATOM     25  C   UNL     1       3.643   9.160  -0.471  0.00  0.00    +0.057 C 
ATOM     26  C   UNL     1       2.643   8.777   0.550  0.00  0.00    +0.005 C 
ATOM     27  C   UNL     1       2.537   9.777   1.616  0.00  0.00    +0.000 C 
ATOM     28  C   UNL     1       3.217  11.063   1.495  0.00  0.00    +0.000 C 
ATOM     29  C   UNL     1       3.775  11.467   0.193  0.00  0.00    +0.000 C 
ATOM     30  C   UNL     1       3.579  10.558  -0.953  0.00  0.00    +0.005 C 
ENDBRANCH  23  25
BRANCH   1  31
ATOM     31  C   UNL     1       1.780   5.189  -1.065  0.00  0.00    +0.221 C 
ATOM     32  O   UNL     1       2.417   4.226  -0.667  0.00  0.00    -0.290 OA
BRANCH  31  33
ATOM     33  C   UNL     1       0.415   5.361  -0.753  0.00  0.00    +0.275 C 
BRANCH  33  34
ATOM     34  O   UNL     1      -0.621   4.960  -1.533  0.00  0.00    -0.440 OA
BRANCH  34  35
ATOM     35  C   UNL     1      -1.712   5.840  -1.482  0.00  0.00    +0.317 C 
ATOM     36  O   UNL     1      -2.030   6.467  -0.429  0.00  0.00    -0.250 OA
BRANCH  35  38
ATOM     37  C   UNL     1      -2.673   5.199  -3.279  0.00  0.00    +0.012 C 
ATOM     38  C   UNL     1      -2.578   6.036  -2.660  0.00  0.00    +0.099 C 
ATOM     39  C   UNL     1      -2.375   7.447  -3.154  0.00  0.00    +0.012 C 
ENDBRANCH  35  38
ENDBRANCH  34  35
ENDBRANCH  33  34
ENDBRANCH  31  33
ENDBRANCH   1  31
TORSDOF 6
ENDMDL
MODEL 3
REMARK VINA RESULT:      -8.8      2.210      3.530
REMARK  Name = 
REMARK  6 active torsions:
REMARK  status: ('A' for Active; 'I' for Inactive)
REMARK    1  A    between atoms: C_2  and  C_4
REMARK    2  A    between atoms: C_4  and  O_6
REMARK    3  A    between atoms: O_6  and  C_7
REMARK    4  A    between atoms: C_7  and  C_8
REMARK    5  A    between atoms: C_8  and  C_10
REMARK    6  A    between atoms: C_12  and  C_13
REMARK                            x       y       z     vdW  Elec       q    Type
REMARK                         _______ _______ _______ _____ _____    ______ ____
ROOT
ATOM      1  C   UNL     1       2.825   5.374  -6.375  0.00  0.00    +0.174 C 
ATOM      2  C   UNL     1       3.273   5.625  -7.670  0.00  0.00    +0.034 C 
ATOM      3  C   UNL     1       4.830   6.031  -7.488  0.00  0.00    +0.005 C 
ATOM      4  C   UNL     1       5.114   5.540  -9.072  0.00  0.00    +0.004 C 
ATOM      5  C   UNL     1       4.830   7.073  -9.685  0.00  0.00    +0.038 C 
ATOM      6  C   UNL     1       3.139   6.914  -9.916  0.00  0.00    +0.153 C 
ATOM      7  O   UNL     1       3.151   5.453 -10.312  0.00  0.00    -0.223 OA
ATOM      8  C   UNL     1       5.177   6.720 -11.194  0.00  0.00    +0.036 C 
ATOM      9  C   UNL     1       5.877   5.436 -11.333  0.00  0.00    -0.038 C 
ATOM     10  C   UNL     1       5.987   5.133 -12.634  0.00  0.00    +0.034 C 
ATOM     11  C   UNL     1       6.061   6.207 -13.646  0.00  0.00    +0.195 C 
ATOM     12  C   UNL     1       6.464   7.470 -13.000  0.00  0.00    +0.038 C 
ATOM     13  O   UNL     1       6.090   6.004 -14.871  0.00  0.00    -0.287 OA
ATOM     14  C   UNL     1       7.028   5.190 -10.395  0.00  0.00    +0.022 C 
ATOM     15  C   UNL     1       4.046   6.928 -12.127  0.00  0.00    +0.009 C 
ATOM     16  C   UNL     1       6.211   7.687 -11.699  0.00  0.00    -0.020 C 
ATOM     17  C   UNL     1       6.697   5.799  -9.035  0.00  0.00    +0.004 C 
ATOM     18  C   UNL     1       5.104   4.592  -6.840  0.00  0.00    +0.033 C 
ATOM     19  C   UNL     1       3.290   4.227  -8.304  0.00  0.00    +0.003 C 
ATOM     20  C   UNL     1       2.723   6.696  -8.359  0.00  0.00    +0.036 C 
ATOM     21  C   UNL     1       4.044   4.635  -5.574  0.00  0.00    +0.149 C 
ATOM     22  O   UNL     1       4.660   5.868  -4.966  0.00  0.00    -0.330 OA
ATOM     23  C   UNL     1       3.738   6.979  -5.429  0.00  0.00    +0.235 C 
ATOM     24  O   UNL     1       2.473   6.129  -5.357  0.00  0.00    -0.326 OA
ENDROOT
BRANCH  23  25
ATOM     25  C   UNL     1       3.484   7.545  -3.886  0.00  0.00    +0.057 C 
ATOM     26  C   UNL     1       4.806   7.494  -3.223  0.00  0.00    +0.005 C 
ATOM     27  C   UNL     1       4.694   7.603  -1.765  0.00  0.00    +0.000 C 
ATOM     28  C   UNL     1       3.387   7.551  -1.118  0.00  0.00    +0.000 C 
ATOM     29  C   UNL     1       2.213   7.112  -1.891  0.00  0.00    +0.000 C 
ATOM     30  C   UNL     1       2.424   6.699  -3.291  0.00  0.00    +0.005 C 
ENDBRANCH  23  25
BRANCH   1  31
ATOM     31  C   UNL     1       1.687   4.377  -6.399  0.00  0.00    +0.221 C 
ATOM     32  O   UNL     1       1.961   3.193  -6.285  0.00  0.00    -0.290 OA
BRANCH  31  33
ATOM     33  C   UNL     1       0.352   4.834  -6.437  0.00  0.00    +0.275 C 
BRANCH  33  34
ATOM     34  O   UNL     1      -0.412   5.107  -5.350  0.00  0.00    -0.440 OA
BRANCH  34  35
ATOM     35  C   UNL     1      -1.550   5.866  -5.661  0.00  0.00    +0.317 C 
ATOM     36  O   UNL     1      -2.241   5.657  -6.701  0.00  0.00    -0.250 OA
BRANCH  35  38
ATOM     37  C   UNL     1      -1.274   7.769  -4.733  0.00  0.00    +0.012 C 
ATOM     38  C   UNL     1      -1.966   6.989  -4.800  0.00  0.00    +0.099 C 
ATOM     39  C   UNL     1      -2.729   6.418  -3.631  0.00  0.00    +0.012 C 
ENDBRANCH  35  38
ENDBRANCH  34  35
ENDBRANCH  33  34
ENDBRANCH  31  33
ENDBRANCH   1  31
TORSDOF 6
ENDMDL
MODEL 4
REMARK VINA RESULT:      -8.7      1.846      7.136
REMARK  Name = 
REMARK  6 active torsions:
REMARK  status: ('A' for Active; 'I' for Inactive)
REMARK    1  A    between atoms: C_2  and  C_4
REMARK    2  A    between atoms: C_4  and  O_6
REMARK    3  A    between atoms: O_6  and  C_7
REMARK    4  A    between atoms: C_7  and  C_8
REMARK    5  A    between atoms: C_8  and  C_10
REMARK    6  A    between atoms: C_12  and  C_13
REMARK                            x       y       z     vdW  Elec       q    Type
REMARK                         _______ _______ _______ _____ _____    ______ ____
ROOT
ATOM      1  C   UNL     1       2.589   5.204  -6.390  0.00  0.00    +0.174 C 
ATOM      2  C   UNL     1       2.911   5.417  -5.051  0.00  0.00    +0.034 C 
ATOM      3  C   UNL     1       3.840   6.742  -5.063  0.00  0.00    +0.005 C 
ATOM      4  C   UNL     1       3.393   7.035  -3.467  0.00  0.00    +0.004 C 
ATOM      5  C   UNL     1       4.698   6.179  -2.859  0.00  0.00    +0.038 C 
ATOM      6  C   UNL     1       3.952   4.636  -2.807  0.00  0.00    +0.153 C 
ATOM      7  O   UNL     1       2.566   5.123  -2.439  0.00  0.00    -0.223 OA
ATOM      8  C   UNL     1       4.407   6.489  -1.329  0.00  0.00    +0.036 C 
ATOM      9  C   UNL     1       3.440   7.578  -1.141  0.00  0.00    -0.038 C 
ATOM     10  C   UNL     1       3.124   7.669   0.158  0.00  0.00    +0.034 C 
ATOM     11  C   UNL     1       4.102   7.270   1.192  0.00  0.00    +0.195 C 
ATOM     12  C   UNL     1       5.459   7.262   0.614  0.00  0.00    +0.038 C 
ATOM     13  O   UNL     1       3.857   7.257   2.410  0.00  0.00    -0.287 OA
ATOM     14  C   UNL     1       3.657   8.822  -1.959  0.00  0.00    +0.022 C 
ATOM     15  C   UNL     1       4.160   5.277  -0.514  0.00  0.00    +0.009 C 
ATOM     16  C   UNL     1       5.644   7.069  -0.701  0.00  0.00    -0.020 C 
ATOM     17  C   UNL     1       4.186   8.425  -3.335  0.00  0.00    +0.004 C 
ATOM     18  C   UNL     1       2.621   7.561  -5.705  0.00  0.00    +0.033 C 
ATOM     19  C   UNL     1       1.572   5.864  -4.444  0.00  0.00    +0.003 C 
ATOM     20  C   UNL     1       3.686   4.466  -4.403  0.00  0.00    +0.036 C 
ATOM     21  C   UNL     1       2.362   6.672  -7.074  0.00  0.00    +0.149 C 
ATOM     22  O   UNL     1       3.763   6.870  -7.591  0.00  0.00    -0.330 OA
ATOM     23  C   UNL     1       4.458   5.579  -7.206  0.00  0.00    +0.235 C 
ATOM     24  O   UNL     1       3.229   4.704  -7.424  0.00  0.00    -0.326 OA
ENDROOT
BRANCH  23  25
ATOM     25  C   UNL     1       4.984   5.284  -8.757  0.00  0.00    +0.057 C 
ATOM     26  C   UNL     1       6.438   5.559  -8.741  0.00  0.00    +0.005 C 
ATOM     27  C   UNL     1       6.983   5.708 -10.093  0.00  0.00    +0.000 C 
ATOM     28  C   UNL     1       6.092   5.775 -11.247  0.00  0.00    +0.000 C 
ATOM     29  C   UNL     1       4.648   5.972 -11.037  0.00  0.00    +0.000 C 
ATOM     30  C   UNL     1       4.170   6.140  -9.651  0.00  0.00    +0.005 C 
ENDBRANCH  23  25
BRANCH   1  31
ATOM     31  C   UNL     1       1.260   4.489  -6.502  0.00  0.00    +0.221 C 
ATOM     32  O   UNL     1       1.219   3.307  -6.198  0.00  0.00    -0.290 OA
BRANCH  31  33
ATOM     33  C   UNL     1       0.097   5.215  -6.837  0.00  0.00    +0.275 C 
BRANCH  33  34
ATOM     34  O   UNL     1      -1.172   4.744  -6.741  0.00  0.00    -0.440 OA
BRANCH  34  35
ATOM     35  C   UNL     1      -2.054   5.671  -6.165  0.00  0.00    +0.317 C 
ATOM     36  O   UNL     1      -3.011   6.190  -6.811  0.00  0.00    -0.250 OA
BRANCH  35  38
ATOM     37  C   UNL     1      -2.366   5.552  -4.055  0.00  0.00    +0.012 C 
ATOM     38  C   UNL     1      -1.867   6.124  -4.774  0.00  0.00    +0.099 C 
ATOM     39  C   UNL     1      -1.813   7.631  -4.781  0.00  0.00    +0.012 C 
ENDBRANCH  35  38
ENDBRANCH  34  35
ENDBRANCH  33  34
ENDBRANCH  31  33
ENDBRANCH   1  31
TORSDOF 6
ENDMDL
MODEL 5
REMARK VINA RESULT:      -8.7      2.592      8.591
REMARK  Name = 
REMARK  6 active torsions:
REMARK  status: ('A' for Active; 'I' for Inactive)
REMARK    1  A    between atoms: C_2  and  C_4
REMARK    2  A    between atoms: C_4  and  O_6
REMARK    3  A    between atoms: O_6  and  C_7
REMARK    4  A    between atoms: C_7  and  C_8
REMARK    5  A    between atoms: C_8  and  C_10
REMARK    6  A    between atoms: C_12  and  C_13
REMARK                            x       y       z     vdW  Elec       q    Type
REMARK                         _______ _______ _______ _____ _____    ______ ____
ROOT
ATOM      1  C   UNL     1       3.398   5.412  -7.762  0.00  0.00    +0.174 C 
ATOM      2  C   UNL     1       3.602   5.766  -6.430  0.00  0.00    +0.034 C 
ATOM      3  C   UNL     1       2.123   5.740  -5.773  0.00  0.00    +0.005 C 
ATOM      4  C   UNL     1       2.826   5.477  -4.268  0.00  0.00    +0.004 C 
ATOM      5  C   UNL     1       2.902   7.115  -3.925  0.00  0.00    +0.038 C 
ATOM      6  C   UNL     1       4.441   7.419  -4.616  0.00  0.00    +0.153 C 
ATOM      7  O   UNL     1       5.067   6.092  -4.245  0.00  0.00    -0.223 OA
ATOM      8  C   UNL     1       3.475   6.955  -2.454  0.00  0.00    +0.036 C 
ATOM      9  C   UNL     1       3.361   5.584  -1.942  0.00  0.00    -0.038 C 
ATOM     10  C   UNL     1       4.009   5.493  -0.772  0.00  0.00    +0.034 C 
ATOM     11  C   UNL     1       4.129   6.675   0.107  0.00  0.00    +0.195 C 
ATOM     12  C   UNL     1       3.100   7.668  -0.255  0.00  0.00    +0.038 C 
ATOM     13  O   UNL     1       4.775   6.688   1.167  0.00  0.00    -0.287 OA
ATOM     14  C   UNL     1       2.032   4.903  -2.129  0.00  0.00    +0.022 C 
ATOM     15  C   UNL     1       4.798   7.594  -2.260  0.00  0.00    +0.009 C 
ATOM     16  C   UNL     1       2.594   7.711  -1.498  0.00  0.00    -0.020 C 
ATOM     17  C   UNL     1       1.441   5.328  -3.471  0.00  0.00    +0.004 C 
ATOM     18  C   UNL     1       2.010   4.186  -6.152  0.00  0.00    +0.033 C 
ATOM     19  C   UNL     1       4.324   4.539  -5.855  0.00  0.00    +0.003 C 
ATOM     20  C   UNL     1       4.071   7.043  -6.155  0.00  0.00    +0.036 C 
ATOM     21  C   UNL     1       2.230   4.268  -7.787  0.00  0.00    +0.149 C 
ATOM     22  O   UNL     1       1.056   5.187  -8.003  0.00  0.00    -0.330 OA
ATOM     23  C   UNL     1       1.703   6.553  -8.117  0.00  0.00    +0.235 C 
ATOM     24  O   UNL     1       2.952   6.041  -8.827  0.00  0.00    -0.326 OA
ENDROOT
BRANCH  23  25
ATOM     25  C   UNL     1       0.973   6.888  -9.573  0.00  0.00    +0.057 C 
ATOM     26  C   UNL     1      -0.175   5.958  -9.663  0.00  0.00    +0.005 C 
ATOM     27  C   UNL     1      -0.698   5.861 -11.029  0.00  0.00    +0.000 C 
ATOM     28  C   UNL     1       0.019   6.477 -12.140  0.00  0.00    +0.000 C 
ATOM     29  C   UNL     1       1.399   6.951 -11.939  0.00  0.00    +0.000 C 
ATOM     30  C   UNL     1       2.014   6.738 -10.615  0.00  0.00    +0.005 C 
ENDBRANCH  23  25
BRANCH   1  31
ATOM     31  C   UNL     1       4.637   4.745  -8.321  0.00  0.00    +0.221 C 
ATOM     32  O   UNL     1       4.532   3.603  -8.739  0.00  0.00    -0.290 OA
BRANCH  31  33
ATOM     33  C   UNL     1       5.835   5.481  -8.450  0.00  0.00    +0.275 C 
BRANCH  33  34
ATOM     34  O   UNL     1       6.775   5.280  -9.407  0.00  0.00    -0.440 OA
BRANCH  34  35
ATOM     35  C   UNL     1       6.434   5.866 -10.636  0.00  0.00    +0.317 C 
ATOM     36  O   UNL     1       5.448   5.471 -11.325  0.00  0.00    -0.250 OA
BRANCH  35  38
ATOM     37  C   UNL     1       6.743   7.850 -11.362  0.00  0.00    +0.012 C 
ATOM     38  C   UNL     1       7.253   6.951 -11.207  0.00  0.00    +0.099 C 
ATOM     39  C   UNL     1       8.219   6.334 -12.187  0.00  0.00    +0.012 C 
ENDBRANCH  35  38
ENDBRANCH  34  35
ENDBRANCH  33  34
ENDBRANCH  31  33
ENDBRANCH   1  31
TORSDOF 6
ENDMDL
MODEL 6
REMARK VINA RESULT:      -8.7      2.996      8.851
REMARK  Name = 
REMARK  6 active torsions:
REMARK  status: ('A' for Active; 'I' for Inactive)
REMARK    1  A    between atoms: C_2  and  C_4
REMARK    2  A    between atoms: C_4  and  O_6
REMARK    3  A    between atoms: O_6  and  C_7
REMARK    4  A    between atoms: C_7  and  C_8
REMARK    5  A    between atoms: C_8  and  C_10
REMARK    6  A    between atoms: C_12  and  C_13
REMARK                            x       y       z     vdW  Elec       q    Type
REMARK                         _______ _______ _______ _____ _____    ______ ____
ROOT
ATOM      1  C   UNL     1       1.985   5.211  -8.908  0.00  0.00    +0.174 C 
ATOM      2  C   UNL     1       1.426   5.554  -7.679  0.00  0.00    +0.034 C 
ATOM      3  C   UNL     1      -0.130   5.856  -8.011  0.00  0.00    +0.005 C 
ATOM      4  C   UNL     1      -0.512   5.495  -6.413  0.00  0.00    +0.004 C 
ATOM      5  C   UNL     1      -0.350   7.091  -5.928  0.00  0.00    +0.038 C 
ATOM      6  C   UNL     1       1.323   7.046  -5.561  0.00  0.00    +0.153 C 
ATOM      7  O   UNL     1       1.351   5.629  -5.031  0.00  0.00    -0.223 OA
ATOM      8  C   UNL     1      -0.796   6.857  -4.423  0.00  0.00    +0.036 C 
ATOM      9  C   UNL     1      -1.443   5.555  -4.214  0.00  0.00    -0.038 C 
ATOM     10  C   UNL     1      -1.639   5.365  -2.902  0.00  0.00    +0.034 C 
ATOM     11  C   UNL     1      -1.843   6.521  -2.004  0.00  0.00    +0.195 C 
ATOM     12  C   UNL     1      -2.255   7.696  -2.794  0.00  0.00    +0.038 C 
ATOM     13  O   UNL     1      -1.958   6.428  -0.771  0.00  0.00    -0.287 OA
ATOM     14  C   UNL     1      -2.504   5.162  -5.206  0.00  0.00    +0.022 C 
ATOM     15  C   UNL     1       0.247   7.210  -3.433  0.00  0.00    +0.009 C 
ATOM     16  C   UNL     1      -1.912   7.808  -4.088  0.00  0.00    -0.020 C 
ATOM     17  C   UNL     1      -2.098   5.662  -6.590  0.00  0.00    +0.004 C 
ATOM     18  C   UNL     1      -0.283   4.350  -8.539  0.00  0.00    +0.033 C 
ATOM     19  C   UNL     1       1.427   4.219  -6.918  0.00  0.00    +0.003 C 
ATOM     20  C   UNL     1       1.869   6.711  -7.056  0.00  0.00    +0.036 C 
ATOM     21  C   UNL     1       0.869   4.337  -9.723  0.00  0.00    +0.149 C 
ATOM     22  O   UNL     1       0.244   5.475 -10.488  0.00  0.00    -0.330 OA
ATOM     23  C   UNL     1       1.073   6.671 -10.066  0.00  0.00    +0.235 C 
ATOM     24  O   UNL     1       2.379   5.889  -9.964  0.00  0.00    -0.326 OA
ENDROOT
BRANCH  23  25
ATOM     25  C   UNL     1       1.419   7.109 -11.633  0.00  0.00    +0.057 C 
ATOM     26  C   UNL     1       0.107   7.334 -12.279  0.00  0.00    +0.005 C 
ATOM     27  C   UNL     1       0.213   7.361 -13.741  0.00  0.00    +0.000 C 
ATOM     28  C   UNL     1       1.462   6.991 -14.399  0.00  0.00    +0.000 C 
ATOM     29  C   UNL     1       2.521   6.326 -13.622  0.00  0.00    +0.000 C 
ATOM     30  C   UNL     1       2.248   6.023 -12.204  0.00  0.00    +0.005 C 
ENDBRANCH  23  25
BRANCH   1  31
ATOM     31  C   UNL     1       3.165   4.284  -8.707  0.00  0.00    +0.221 C 
ATOM     32  O   UNL     1       3.021   3.105  -8.991  0.00  0.00    -0.290 OA
BRANCH  31  33
ATOM     33  C   UNL     1       4.413   4.811  -8.312  0.00  0.00    +0.275 C 
BRANCH  33  34
ATOM     34  O   UNL     1       4.927   5.996  -8.725  0.00  0.00    -0.440 OA
BRANCH  34  35
ATOM     35  C   UNL     1       5.943   5.845  -9.682  0.00  0.00    +0.317 C 
ATOM     36  O   UNL     1       7.091   5.400  -9.388  0.00  0.00    -0.250 OA
BRANCH  35  38
ATOM     37  C   UNL     1       5.973   5.527 -11.793  0.00  0.00    +0.012 C 
ATOM     38  C   UNL     1       5.725   6.252 -11.082  0.00  0.00    +0.099 C 
ATOM     39  C   UNL     1       6.066   7.717 -11.197  0.00  0.00    +0.012 C 
ENDBRANCH  35  38
ENDBRANCH  34  35
ENDBRANCH  33  34
ENDBRANCH  31  33
ENDBRANCH   1  31
TORSDOF 6
ENDMDL
MODEL 7
REMARK VINA RESULT:      -8.7      2.278      7.621
REMARK  Name = 
REMARK  6 active torsions:
REMARK  status: ('A' for Active; 'I' for Inactive)
REMARK    1  A    between atoms: C_2  and  C_4
REMARK    2  A    between atoms: C_4  and  O_6
REMARK    3  A    between atoms: O_6  and  C_7
REMARK    4  A    between atoms: C_7  and  C_8
REMARK    5  A    between atoms: C_8  and  C_10
REMARK    6  A    between atoms: C_12  and  C_13
REMARK                            x       y       z     vdW  Elec       q    Type
REMARK                         _______ _______ _______ _____ _____    ______ ____
ROOT
ATOM      1  C   UNL     1       2.659   5.310  -6.776  0.00  0.00    +0.174 C 
ATOM      2  C   UNL     1       2.897   5.491  -5.415  0.00  0.00    +0.034 C 
ATOM      3  C   UNL     1       3.989   6.684  -5.350  0.00  0.00    +0.005 C 
ATOM      4  C   UNL     1       3.458   7.048  -3.795  0.00  0.00    +0.004 C 
ATOM      5  C   UNL     1       4.587   6.034  -3.084  0.00  0.00    +0.038 C 
ATOM      6  C   UNL     1       3.643   4.603  -3.096  0.00  0.00    +0.153 C 
ATOM      7  O   UNL     1       2.308   5.269  -2.840  0.00  0.00    -0.223 OA
ATOM      8  C   UNL     1       4.217   6.393  -1.583  0.00  0.00    +0.036 C 
ATOM      9  C   UNL     1       3.388   7.601  -1.472  0.00  0.00    -0.038 C 
ATOM     10  C   UNL     1       2.984   7.744  -0.203  0.00  0.00    +0.034 C 
ATOM     11  C   UNL     1       3.815   7.231   0.906  0.00  0.00    +0.195 C 
ATOM     12  C   UNL     1       5.201   7.041   0.440  0.00  0.00    +0.038 C 
ATOM     13  O   UNL     1       3.473   7.261   2.100  0.00  0.00    -0.287 OA
ATOM     14  C   UNL     1       3.832   8.798  -2.268  0.00  0.00    +0.022 C 
ATOM     15  C   UNL     1       3.749   5.231  -0.793  0.00  0.00    +0.009 C 
ATOM     16  C   UNL     1       5.465   6.813  -0.857  0.00  0.00    -0.020 C 
ATOM     17  C   UNL     1       4.413   8.323  -3.598  0.00  0.00    +0.004 C 
ATOM     18  C   UNL     1       2.943   7.649  -6.088  0.00  0.00    +0.033 C 
ATOM     19  C   UNL     1       1.584   6.115  -4.918  0.00  0.00    +0.003 C 
ATOM     20  C   UNL     1       3.487   4.453  -4.708  0.00  0.00    +0.036 C 
ATOM     21  C   UNL     1       2.681   6.789  -7.474  0.00  0.00    +0.149 C 
ATOM     22  O   UNL     1       4.133   6.798  -7.876  0.00  0.00    -0.330 OA
ATOM     23  C   UNL     1       4.621   5.431  -7.438  0.00  0.00    +0.235 C 
ATOM     24  O   UNL     1       3.309   4.721  -7.756  0.00  0.00    -0.326 OA
ENDROOT
BRANCH  23  25
ATOM     25  C   UNL     1       5.226   5.056  -8.942  0.00  0.00    +0.057 C 
ATOM     26  C   UNL     1       6.568   5.675  -8.994  0.00  0.00    +0.005 C 
ATOM     27  C   UNL     1       7.081   5.759 -10.364  0.00  0.00    +0.000 C 
ATOM     28  C   UNL     1       6.219   5.442 -11.497  0.00  0.00    +0.000 C 
ATOM     29  C   UNL     1       4.767   5.310 -11.288  0.00  0.00    +0.000 C 
ATOM     30  C   UNL     1       4.241   5.551  -9.931  0.00  0.00    +0.005 C 
ENDBRANCH  23  25
BRANCH   1  31
ATOM     31  C   UNL     1       1.261   4.774  -6.996  0.00  0.00    +0.221 C 
ATOM     32  O   UNL     1       0.922   3.784  -6.365  0.00  0.00    -0.290 OA
BRANCH  31  33
ATOM     33  C   UNL     1       0.358   5.479  -7.821  0.00  0.00    +0.275 C 
BRANCH  33  34
ATOM     34  O   UNL     1      -0.058   5.075  -9.047  0.00  0.00    -0.440 OA
BRANCH  34  35
ATOM     35  C   UNL     1       0.305   5.969 -10.066  0.00  0.00    +0.317 C 
ATOM     36  O   UNL     1       0.609   7.176  -9.833  0.00  0.00    -0.250 OA
BRANCH  35  38
ATOM     37  C   UNL     1       0.191   4.516 -11.627  0.00  0.00    +0.012 C 
ATOM     38  C   UNL     1       0.299   5.545 -11.478  0.00  0.00    +0.099 C 
ATOM     39  C   UNL     1       1.270   6.422 -12.229  0.00  0.00    +0.012 C 
ENDBRANCH  35  38
ENDBRANCH  34  35
ENDBRANCH  33  34
ENDBRANCH  31  33
ENDBRANCH   1  31
TORSDOF 6
ENDMDL
MODEL 8
REMARK VINA RESULT:      -8.5      3.246     10.114
REMARK  Name = 
REMARK  6 active torsions:
REMARK  status: ('A' for Active; 'I' for Inactive)
REMARK    1  A    between atoms: C_2  and  C_4
REMARK    2  A    between atoms: C_4  and  O_6
REMARK    3  A    between atoms: O_6  and  C_7
REMARK    4  A    between atoms: C_7  and  C_8
REMARK    5  A    between atoms: C_8  and  C_10
REMARK    6  A    between atoms: C_12  and  C_13
REMARK                            x       y       z     vdW  Elec       q    Type
REMARK                         _______ _______ _______ _____ _____    ______ ____
ROOT
ATOM      1  C   UNL     1       2.270   5.936 -12.515  0.00  0.00    +0.174 C 
ATOM      2  C   UNL     1       2.366   6.023 -11.128  0.00  0.00    +0.034 C 
ATOM      3  C   UNL     1       0.830   6.075 -10.618  0.00  0.00    +0.005 C 
ATOM      4  C   UNL     1       1.331   5.464  -9.133  0.00  0.00    +0.004 C 
ATOM      5  C   UNL     1       1.552   6.994  -8.486  0.00  0.00    +0.038 C 
ATOM      6  C   UNL     1       3.182   7.211  -8.972  0.00  0.00    +0.153 C 
ATOM      7  O   UNL     1       3.611   5.769  -8.802  0.00  0.00    -0.223 OA
ATOM      8  C   UNL     1       1.940   6.507  -7.026  0.00  0.00    +0.036 C 
ATOM      9  C   UNL     1       1.618   5.094  -6.791  0.00  0.00    -0.038 C 
ATOM     10  C   UNL     1       2.120   4.717  -5.607  0.00  0.00    +0.034 C 
ATOM     11  C   UNL     1       2.275   5.702  -4.516  0.00  0.00    +0.195 C 
ATOM     12  C   UNL     1       1.411   6.869  -4.774  0.00  0.00    +0.038 C 
ATOM     13  O   UNL     1       2.799   5.446  -3.419  0.00  0.00    -0.287 OA
ATOM     14  C   UNL     1       0.249   4.635  -7.216  0.00  0.00    +0.022 C 
ATOM     15  C   UNL     1       3.297   6.924  -6.602  0.00  0.00    +0.009 C 
ATOM     16  C   UNL     1       1.051   7.193  -6.027  0.00  0.00    -0.020 C 
ATOM     17  C   UNL     1      -0.140   5.361  -8.501  0.00  0.00    +0.004 C 
ATOM     18  C   UNL     1       0.585   4.640 -11.288  0.00  0.00    +0.033 C 
ATOM     19  C   UNL     1       2.879   4.631 -10.731  0.00  0.00    +0.003 C 
ATOM     20  C   UNL     1       2.942   7.160 -10.580  0.00  0.00    +0.036 C 
ATOM     21  C   UNL     1       0.990   4.975 -12.854  0.00  0.00    +0.149 C 
ATOM     22  O   UNL     1      -0.043   6.063 -12.997  0.00  0.00    -0.330 OA
ATOM     23  C   UNL     1       0.762   7.332 -12.797  0.00  0.00    +0.235 C 
ATOM     24  O   UNL     1       2.016   6.794 -13.479  0.00  0.00    -0.326 OA
ENDROOT
BRANCH  23  25
ATOM     25  C   UNL     1       0.237   8.007 -14.224  0.00  0.00    +0.057 C 
ATOM     26  C   UNL     1       0.310   6.921 -15.226  0.00  0.00    +0.005 C 
ATOM     27  C   UNL     1       0.241   7.434 -16.597  0.00  0.00    +0.000 C 
ATOM     28  C   UNL     1       0.306   8.869 -16.854  0.00  0.00    +0.000 C 
ATOM     29  C   UNL     1       0.721   9.781 -15.774  0.00  0.00    +0.000 C 
ATOM     30  C   UNL     1       1.096   9.186 -14.477  0.00  0.00    +0.005 C 
ENDBRANCH  23  25
BRANCH   1  31
ATOM     31  C   UNL     1       3.479   5.221 -13.079  0.00  0.00    +0.221 C 
ATOM     32  O   UNL     1       3.289   4.320 -13.881  0.00  0.00    -0.290 OA
BRANCH  31  33
ATOM     33  C   UNL     1       4.777   5.677 -12.762  0.00  0.00    +0.275 C 
BRANCH  33  34
ATOM     34  O   UNL     1       5.919   4.965 -12.935  0.00  0.00    -0.440 OA
BRANCH  34  35
ATOM     35  C   UNL     1       6.961   5.397 -12.101  0.00  0.00    +0.317 C 
ATOM     36  O   UNL     1       8.130   4.915 -12.171  0.00  0.00    -0.250 OA
BRANCH  35  38
ATOM     37  C   UNL     1       7.039   7.377 -11.305  0.00  0.00    +0.012 C 
ATOM     38  C   UNL     1       6.721   6.412 -11.059  0.00  0.00    +0.099 C 
ATOM     39  C   UNL     1       6.931   5.757  -9.717  0.00  0.00    +0.012 C 
ENDBRANCH  35  38
ENDBRANCH  34  35
ENDBRANCH  33  34
ENDBRANCH  31  33
ENDBRANCH   1  31
TORSDOF 6
ENDMDL
MODEL 9
REMARK VINA RESULT:      -8.3      2.121      3.943
REMARK  Name = 
REMARK  6 active torsions:
REMARK  status: ('A' for Active; 'I' for Inactive)
REMARK    1  A    between atoms: C_2  and  C_4
REMARK    2  A    between atoms: C_4  and  O_6
REMARK    3  A    between atoms: O_6  and  C_7
REMARK    4  A    between atoms: C_7  and  C_8
REMARK    5  A    between atoms: C_8  and  C_10
REMARK    6  A    between atoms: C_12  and  C_13
REMARK                            x       y       z     vdW  Elec       q    Type
REMARK                         _______ _______ _______ _____ _____    ______ ____
ROOT
ATOM      1  C   UNL     1       2.321   5.197  -6.927  0.00  0.00    +0.174 C 
ATOM      2  C   UNL     1       1.893   5.421  -8.234  0.00  0.00    +0.034 C 
ATOM      3  C   UNL     1       3.168   6.097  -8.968  0.00  0.00    +0.005 C 
ATOM      4  C   UNL     1       2.578   5.542 -10.442  0.00  0.00    +0.004 C 
ATOM      5  C   UNL     1       1.722   6.954 -10.725  0.00  0.00    +0.038 C 
ATOM      6  C   UNL     1       0.266   6.496  -9.945  0.00  0.00    +0.153 C 
ATOM      7  O   UNL     1       0.314   5.032 -10.327  0.00  0.00    -0.223 OA
ATOM      8  C   UNL     1       1.201   6.552 -12.169  0.00  0.00    +0.036 C 
ATOM      9  C   UNL     1       1.913   5.398 -12.732  0.00  0.00    -0.038 C 
ATOM     10  C   UNL     1       1.312   5.019 -13.869  0.00  0.00    +0.034 C 
ATOM     11  C   UNL     1       0.598   6.011 -14.700  0.00  0.00    +0.195 C 
ATOM     12  C   UNL     1       1.061   7.369 -14.359  0.00  0.00    +0.038 C 
ATOM     13  O   UNL     1      -0.043   5.724 -15.724  0.00  0.00    -0.287 OA
ATOM     14  C   UNL     1       3.415   5.420 -12.638  0.00  0.00    +0.022 C 
ATOM     15  C   UNL     1      -0.276   6.495 -12.272  0.00  0.00    +0.009 C 
ATOM     16  C   UNL     1       1.564   7.638 -13.143  0.00  0.00    -0.020 C 
ATOM     17  C   UNL     1       3.819   6.066 -11.315  0.00  0.00    +0.004 C 
ATOM     18  C   UNL     1       4.020   4.777  -8.648  0.00  0.00    +0.033 C 
ATOM     19  C   UNL     1       1.797   4.002  -8.811  0.00  0.00    +0.003 C 
ATOM     20  C   UNL     1       0.864   6.329  -8.441  0.00  0.00    +0.036 C 
ATOM     21  C   UNL     1       3.888   4.737  -7.002  0.00  0.00    +0.149 C 
ATOM     22  O   UNL     1       4.505   6.099  -6.816  0.00  0.00    -0.330 OA
ATOM     23  C   UNL     1       3.301   6.999  -6.623  0.00  0.00    +0.235 C 
ATOM     24  O   UNL     1       2.485   5.957  -5.866  0.00  0.00    -0.326 OA
ENDROOT
BRANCH  23  25
ATOM     25  C   UNL     1       3.878   7.630  -5.196  0.00  0.00    +0.057 C 
ATOM     26  C   UNL     1       5.241   7.075  -5.041  0.00  0.00    +0.005 C 
ATOM     27  C   UNL     1       5.744   7.229  -3.672  0.00  0.00    +0.000 C 
ATOM     28  C   UNL     1       4.860   7.691  -2.607  0.00  0.00    +0.000 C 
ATOM     29  C   UNL     1       3.407   7.736  -2.840  0.00  0.00    +0.000 C 
ATOM     30  C   UNL     1       2.903   7.264  -4.144  0.00  0.00    +0.005 C 
ENDBRANCH  23  25
BRANCH   1  31
ATOM     31  C   UNL     1       1.577   4.024  -6.327  0.00  0.00    +0.221 C 
ATOM     32  O   UNL     1       2.117   2.929  -6.357  0.00  0.00    -0.290 OA
BRANCH  31  33
ATOM     33  C   UNL     1       0.352   4.235  -5.658  0.00  0.00    +0.275 C 
BRANCH  33  34
ATOM     34  O   UNL     1       0.218   4.812  -4.437  0.00  0.00    -0.440 OA
BRANCH  34  35
ATOM     35  C   UNL     1      -0.955   5.573  -4.322  0.00  0.00    +0.317 C 
ATOM     36  O   UNL     1      -1.832   5.338  -3.439  0.00  0.00    -0.250 OA
BRANCH  35  38
ATOM     37  C   UNL     1      -0.973   7.618  -4.937  0.00  0.00    +0.012 C 
ATOM     38  C   UNL     1      -1.241   6.665  -5.271  0.00  0.00    +0.099 C 
ATOM     39  C   UNL     1      -2.533   6.337  -5.977  0.00  0.00    +0.012 C 
ENDBRANCH  35  38
ENDBRANCH  34  35
ENDBRANCH  33  34
ENDBRANCH  31  33
ENDBRANCH   1  31
TORSDOF 6
ENDMDL
