MODEL 1
REMARK VINA RESULT:      -6.2      0.000      0.000
REMARK  Name = 
REMARK  2 active torsions:
REMARK  status: ('A' for Active; 'I' for Inactive)
REMARK    1  A    between atoms: N_6  and  C1*_7
REMARK    2  A    between atoms: C4*_11  and  C5*_12
REMARK                            x       y       z     vdW  Elec       q    Type
REMARK                         _______ _______ _______ _____ _____    ______ ____
ROOT
ATOM      1  O   UNL     1      -2.746   4.974  -2.032  0.00  0.00    -0.263 OA
ATOM      2  C   UNL     1      -2.220   5.425  -2.875  0.00  0.00    +0.312 A 
ATOM      3  C   UNL     1      -0.869   5.506  -2.692  0.00  0.00    +0.215 A 
ATOM      4  F   UNL     1      -0.255   5.556  -1.498  0.00  0.00    -0.197 F 
ATOM      5  C   UNL     1      -0.076   5.498  -3.793  0.00  0.00    +0.117 A 
ATOM      6  N   UNL     1      -0.479   5.250  -5.074  0.00  0.00    -0.253 N 
ATOM      7  C   UNL     1      -1.767   5.669  -5.190  0.00  0.00    +0.355 A 
ATOM      8  O   UNL     1      -2.165   5.902  -6.378  0.00  0.00    -0.244 OA
ATOM      9  N   UNL     1      -2.641   5.478  -4.166  0.00  0.00    -0.151 NA
ENDROOT
BRANCH   6  10
ATOM     10  C1* UNL     1       0.580   6.075  -5.941  0.00  0.00    +0.211 C 
ATOM     11  O4* UNL     1       0.795   4.979  -6.979  0.00  0.00    -0.332 OA
ATOM     12  C4* UNL     1       2.239   5.397  -7.150  0.00  0.00    +0.180 C 
ATOM     13  C3* UNL     1       2.459   4.399  -5.768  0.00  0.00    +0.186 C 
ATOM     14  O3* UNL     1       3.866   4.901  -5.518  0.00  0.00    -0.220 OA
ATOM     15  C2* UNL     1       1.819   5.628  -4.933  0.00  0.00    +0.089 C 
BRANCH  12  16
ATOM     16  C5* UNL     1       2.579   4.171  -8.190  0.00  0.00    +0.214 C 
ATOM     17  O5* UNL     1       1.703   4.585  -9.211  0.00  0.00    -0.218 OA
ENDBRANCH  12  16
ENDBRANCH   6  10
TORSDOF 2
ENDMDL
MODEL 2
REMARK VINA RESULT:      -6.1      5.888      9.060
REMARK  Name = 
REMARK  2 active torsions:
REMARK  status: ('A' for Active; 'I' for Inactive)
REMARK    1  A    between atoms: N_6  and  C1*_7
REMARK    2  A    between atoms: C4*_11  and  C5*_12
REMARK                            x       y       z     vdW  Elec       q    Type
REMARK                         _______ _______ _______ _____ _____    ______ ____
ROOT
ATOM      1  O   UNL     1       7.767   4.727 -13.390  0.00  0.00    -0.263 OA
ATOM      2  C   UNL     1       7.264   5.284 -12.598  0.00  0.00    +0.312 A 
ATOM      3  C   UNL     1       5.909   5.344 -12.753  0.00  0.00    +0.215 A 
ATOM      4  F   UNL     1       5.262   5.242 -13.926  0.00  0.00    -0.197 F 
ATOM      5  C   UNL     1       5.146   5.480 -11.639  0.00  0.00    +0.117 A 
ATOM      6  N   UNL     1       5.585   5.398 -10.348  0.00  0.00    -0.253 N 
ATOM      7  C   UNL     1       6.876   5.825 -10.323  0.00  0.00    +0.355 A 
ATOM      8  O   UNL     1       7.306   6.208  -9.186  0.00  0.00    -0.244 OA
ATOM      9  N   UNL     1       7.721   5.501 -11.337  0.00  0.00    -0.151 NA
ENDROOT
BRANCH   6  10
ATOM     10  C1* UNL     1       4.551   6.331  -9.566  0.00  0.00    +0.211 C 
ATOM     11  O4* UNL     1       4.616   5.548  -8.259  0.00  0.00    -0.332 OA
ATOM     12  C4* UNL     1       3.166   5.865  -7.972  0.00  0.00    +0.180 C 
ATOM     13  C3* UNL     1       2.899   4.509  -8.995  0.00  0.00    +0.186 C 
ATOM     14  O3* UNL     1       1.418   4.795  -9.138  0.00  0.00    -0.220 OA
ATOM     15  C2* UNL     1       3.259   5.514 -10.212  0.00  0.00    +0.089 C 
BRANCH  12  16
ATOM     16  C5* UNL     1       3.126   4.947  -6.611  0.00  0.00    +0.214 C 
ATOM     17  O5* UNL     1       4.253   5.527  -5.998  0.00  0.00    -0.218 OA
ENDBRANCH  12  16
ENDBRANCH   6  10
TORSDOF 2
ENDMDL
MODEL 3
REMARK VINA RESULT:      -6.1      2.685      5.809
REMARK  Name = 
REMARK  2 active torsions:
REMARK  status: ('A' for Active; 'I' for Inactive)
REMARK    1  A    between atoms: N_6  and  C1*_7
REMARK    2  A    between atoms: C4*_11  and  C5*_12
REMARK                            x       y       z     vdW  Elec       q    Type
REMARK                         _______ _______ _______ _____ _____    ______ ____
ROOT
ATOM      1  O   UNL     1       4.014   6.099  -8.003  0.00  0.00    -0.263 OA
ATOM      2  C   UNL     1       3.503   6.264  -7.053  0.00  0.00    +0.312 A 
ATOM      3  C   UNL     1       2.397   7.057  -7.162  0.00  0.00    +0.215 A 
ATOM      4  F   UNL     1       2.197   7.973  -8.126  0.00  0.00    -0.197 F 
ATOM      5  C   UNL     1       1.401   6.888  -6.257  0.00  0.00    +0.117 A 
ATOM      6  N   UNL     1       1.313   5.886  -5.334  0.00  0.00    -0.253 N 
ATOM      7  C   UNL     1       2.580   5.520  -5.000  0.00  0.00    +0.355 A 
ATOM      8  O   UNL     1       2.702   4.916  -3.884  0.00  0.00    -0.244 OA
ATOM      9  N   UNL     1       3.547   5.468  -5.954  0.00  0.00    -0.151 NA
ENDROOT
BRANCH   6  10
ATOM     10  C1* UNL     1       0.475   6.566  -4.156  0.00  0.00    +0.211 C 
ATOM     11  O4* UNL     1      -0.446   5.371  -3.931  0.00  0.00    -0.332 OA
ATOM     12  C4* UNL     1      -1.585   6.294  -3.559  0.00  0.00    +0.180 C 
ATOM     13  C3* UNL     1      -1.784   6.373  -5.265  0.00  0.00    +0.186 C 
ATOM     14  O3* UNL     1      -2.738   7.548  -5.189  0.00  0.00    -0.220 OA
ATOM     15  C2* UNL     1      -0.497   7.354  -5.244  0.00  0.00    +0.089 C 
BRANCH  12  16
ATOM     16  C5* UNL     1      -2.667   5.067  -3.408  0.00  0.00    +0.214 C 
ATOM     17  O5* UNL     1      -2.620   4.989  -2.003  0.00  0.00    -0.218 OA
ENDBRANCH  12  16
ENDBRANCH   6  10
TORSDOF 2
ENDMDL
MODEL 4
REMARK VINA RESULT:      -6.1      2.863      4.316
REMARK  Name = 
REMARK  2 active torsions:
REMARK  status: ('A' for Active; 'I' for Inactive)
REMARK    1  A    between atoms: N_6  and  C1*_7
REMARK    2  A    between atoms: C4*_11  and  C5*_12
REMARK                            x       y       z     vdW  Elec       q    Type
REMARK                         _______ _______ _______ _____ _____    ______ ____
ROOT
ATOM      1  O   UNL     1       4.101   4.305  -0.733  0.00  0.00    -0.263 OA
ATOM      2  C   UNL     1       3.235   4.849  -1.116  0.00  0.00    +0.312 A 
ATOM      3  C   UNL     1       3.499   5.560  -2.251  0.00  0.00    +0.215 A 
ATOM      4  F   UNL     1       4.711   6.020  -2.608  0.00  0.00    -0.197 F 
ATOM      5  C   UNL     1       2.475   5.793  -3.109  0.00  0.00    +0.117 A 
ATOM      6  N   UNL     1       1.226   5.246  -3.039  0.00  0.00    -0.253 N 
ATOM      7  C   UNL     1       0.951   5.011  -1.728  0.00  0.00    +0.355 A 
ATOM      8  O   UNL     1      -0.285   4.900  -1.437  0.00  0.00    -0.244 OA
ATOM      9  N   UNL     1       1.927   4.557  -0.898  0.00  0.00    -0.151 NA
ENDROOT
BRANCH   6  10
ATOM     10  C1* UNL     1       0.315   6.360  -3.731  0.00  0.00    +0.211 C 
ATOM     11  O4* UNL     1      -0.513   5.376  -4.551  0.00  0.00    -0.332 OA
ATOM     12  C4* UNL     1      -0.645   6.388  -5.668  0.00  0.00    +0.180 C 
ATOM     13  C3* UNL     1       0.894   5.765  -6.115  0.00  0.00    +0.186 C 
ATOM     14  O3* UNL     1       1.159   6.881  -7.103  0.00  0.00    -0.220 OA
ATOM     15  C2* UNL     1       1.469   6.649  -4.887  0.00  0.00    +0.089 C 
BRANCH  12  16
ATOM     16  C5* UNL     1      -1.443   5.346  -6.657  0.00  0.00    +0.214 C 
ATOM     17  O5* UNL     1      -2.625   5.282  -5.894  0.00  0.00    -0.218 OA
ENDBRANCH  12  16
ENDBRANCH   6  10
TORSDOF 2
ENDMDL
MODEL 5
REMARK VINA RESULT:      -5.9      2.487      3.996
REMARK  Name = 
REMARK  2 active torsions:
REMARK  status: ('A' for Active; 'I' for Inactive)
REMARK    1  A    between atoms: N_6  and  C1*_7
REMARK    2  A    between atoms: C4*_11  and  C5*_12
REMARK                            x       y       z     vdW  Elec       q    Type
REMARK                         _______ _______ _______ _____ _____    ______ ____
ROOT
ATOM      1  O   UNL     1      -1.157   5.960  -4.516  0.00  0.00    -0.263 OA
ATOM      2  C   UNL     1      -0.420   5.383  -5.077  0.00  0.00    +0.312 A 
ATOM      3  C   UNL     1      -0.649   5.373  -6.423  0.00  0.00    +0.215 A 
ATOM      4  F   UNL     1      -1.849   5.550  -7.002  0.00  0.00    -0.197 F 
ATOM      5  C   UNL     1       0.415   5.210  -7.249  0.00  0.00    +0.117 A 
ATOM      6  N   UNL     1       1.730   5.218  -6.878  0.00  0.00    -0.253 N 
ATOM      7  C   UNL     1       1.803   4.749  -5.604  0.00  0.00    +0.355 A 
ATOM      8  O   UNL     1       2.941   4.301  -5.247  0.00  0.00    -0.244 OA
ATOM      9  N   UNL     1       0.851   5.093  -4.696  0.00  0.00    -0.151 NA
ENDROOT
BRANCH   6  10
ATOM     10  C1* UNL     1       2.411   4.283  -7.980  0.00  0.00    +0.211 C 
ATOM     11  O4* UNL     1       3.715   5.071  -8.047  0.00  0.00    -0.332 OA
ATOM     12  C4* UNL     1       3.859   4.748  -9.517  0.00  0.00    +0.180 C 
ATOM     13  C3* UNL     1       2.809   6.099  -9.688  0.00  0.00    +0.186 C 
ATOM     14  O3* UNL     1       2.523   5.806 -11.147  0.00  0.00    -0.220 OA
ATOM     15  C2* UNL     1       1.638   5.091  -9.206  0.00  0.00    +0.089 C 
BRANCH  12  16
ATOM     16  C5* UNL     1       5.207   5.671  -9.694  0.00  0.00    +0.214 C 
ATOM     17  O5* UNL     1       5.916   5.121  -8.609  0.00  0.00    -0.218 OA
ENDBRANCH  12  16
ENDBRANCH   6  10
TORSDOF 2
ENDMDL
MODEL 6
REMARK VINA RESULT:      -5.9      6.444      9.021
REMARK  Name = 
REMARK  2 active torsions:
REMARK  status: ('A' for Active; 'I' for Inactive)
REMARK    1  A    between atoms: N_6  and  C1*_7
REMARK    2  A    between atoms: C4*_11  and  C5*_12
REMARK                            x       y       z     vdW  Elec       q    Type
REMARK                         _______ _______ _______ _____ _____    ______ ____
ROOT
ATOM      1  O   UNL     1       8.873   5.985 -12.409  0.00  0.00    -0.263 OA
ATOM      2  C   UNL     1       7.919   5.523 -12.149  0.00  0.00    +0.312 A 
ATOM      3  C   UNL     1       7.576   5.685 -10.837  0.00  0.00    +0.215 A 
ATOM      4  F   UNL     1       8.446   5.885  -9.832  0.00  0.00    -0.197 F 
ATOM      5  C   UNL     1       6.258   5.683 -10.519  0.00  0.00    +0.117 A 
ATOM      6  N   UNL     1       5.217   5.700 -11.402  0.00  0.00    -0.253 N 
ATOM      7  C   UNL     1       5.625   5.067 -12.534  0.00  0.00    +0.355 A 
ATOM      8  O   UNL     1       4.694   4.626 -13.285  0.00  0.00    -0.244 OA
ATOM      9  N   UNL     1       6.893   5.242 -12.993  0.00  0.00    -0.151 NA
ENDROOT
BRANCH   6  10
ATOM     10  C1* UNL     1       4.058   4.955 -10.594  0.00  0.00    +0.211 C 
ATOM     11  O4* UNL     1       2.942   5.887 -11.055  0.00  0.00    -0.332 OA
ATOM     12  C4* UNL     1       2.228   5.721  -9.732  0.00  0.00    +0.180 C 
ATOM     13  C3* UNL     1       3.320   6.955  -9.242  0.00  0.00    +0.186 C 
ATOM     14  O3* UNL     1       3.011   6.769  -7.771  0.00  0.00    -0.220 OA
ATOM     15  C2* UNL     1       4.434   5.782  -9.206  0.00  0.00    +0.089 C 
BRANCH  12  16
ATOM     16  C5* UNL     1       1.051   6.801 -10.113  0.00  0.00    +0.214 C 
ATOM     17  O5* UNL     1      -0.034   5.996  -9.717  0.00  0.00    -0.218 OA
ENDBRANCH  12  16
ENDBRANCH   6  10
TORSDOF 2
ENDMDL
MODEL 7
REMARK VINA RESULT:      -5.9      2.278      3.315
REMARK  Name = 
REMARK  2 active torsions:
REMARK  status: ('A' for Active; 'I' for Inactive)
REMARK    1  A    between atoms: N_6  and  C1*_7
REMARK    2  A    between atoms: C4*_11  and  C5*_12
REMARK                            x       y       z     vdW  Elec       q    Type
REMARK                         _______ _______ _______ _____ _____    ______ ____
ROOT
ATOM      1  O   UNL     1      -3.637   5.797  -3.259  0.00  0.00    -0.263 OA
ATOM      2  C   UNL     1      -2.633   5.391  -3.387  0.00  0.00    +0.312 A 
ATOM      3  C   UNL     1      -2.138   5.551  -4.650  0.00  0.00    +0.215 A 
ATOM      4  F   UNL     1      -2.885   5.680  -5.760  0.00  0.00    -0.197 F 
ATOM      5  C   UNL     1      -0.792   5.625  -4.802  0.00  0.00    +0.117 A 
ATOM      6  N   UNL     1       0.127   5.721  -3.797  0.00  0.00    -0.253 N 
ATOM      7  C   UNL     1      -0.381   5.084  -2.709  0.00  0.00    +0.355 A 
ATOM      8  O   UNL     1       0.473   4.714  -1.838  0.00  0.00    -0.244 OA
ATOM      9  N   UNL     1      -1.705   5.188  -2.416  0.00  0.00    -0.151 NA
ENDROOT
BRANCH   6  10
ATOM     10  C1* UNL     1       1.420   5.036  -4.437  0.00  0.00    +0.211 C 
ATOM     11  O4* UNL     1       2.403   6.084  -3.927  0.00  0.00    -0.332 OA
ATOM     12  C4* UNL     1       3.263   5.908  -5.159  0.00  0.00    +0.180 C 
ATOM     13  C3* UNL     1       2.133   7.015  -5.833  0.00  0.00    +0.186 C 
ATOM     14  O3* UNL     1       2.608   6.775  -7.251  0.00  0.00    -0.220 OA
ATOM     15  C2* UNL     1       1.126   5.750  -5.905  0.00  0.00    +0.089 C 
BRANCH  12  16
ATOM     16  C5* UNL     1       4.303   7.105  -4.731  0.00  0.00    +0.214 C 
ATOM     17  O5* UNL     1       4.733   6.516  -3.527  0.00  0.00    -0.218 OA
ENDBRANCH  12  16
ENDBRANCH   6  10
TORSDOF 2
ENDMDL
MODEL 8
REMARK VINA RESULT:      -5.9      3.405      4.682
REMARK  Name = 
REMARK  2 active torsions:
REMARK  status: ('A' for Active; 'I' for Inactive)
REMARK    1  A    between atoms: N_6  and  C1*_7
REMARK    2  A    between atoms: C4*_11  and  C5*_12
REMARK                            x       y       z     vdW  Elec       q    Type
REMARK                         _______ _______ _______ _____ _____    ______ ____
ROOT
ATOM      1  O   UNL     1      -2.784   6.237  -3.851  0.00  0.00    -0.263 OA
ATOM      2  C   UNL     1      -1.791   5.826  -3.655  0.00  0.00    +0.312 A 
ATOM      3  C   UNL     1      -0.817   6.354  -4.453  0.00  0.00    +0.215 A 
ATOM      4  F   UNL     1      -1.023   6.887  -5.670  0.00  0.00    -0.197 F 
ATOM      5  C   UNL     1       0.452   6.383  -3.975  0.00  0.00    +0.117 A 
ATOM      6  N   UNL     1       0.838   6.085  -2.700  0.00  0.00    -0.253 N 
ATOM      7  C   UNL     1      -0.034   5.164  -2.208  0.00  0.00    +0.355 A 
ATOM      8  O   UNL     1       0.391   4.475  -1.224  0.00  0.00    -0.244 OA
ATOM      9  N   UNL     1      -1.358   5.256  -2.500  0.00  0.00    -0.151 NA
ENDROOT
BRANCH   6  10
ATOM     10  C1* UNL     1       2.333   5.558  -2.900  0.00  0.00    +0.211 C 
ATOM     11  O4* UNL     1       2.841   6.059  -1.552  0.00  0.00    -0.332 OA
ATOM     12  C4* UNL     1       4.207   6.326  -2.142  0.00  0.00    +0.180 C 
ATOM     13  C3* UNL     1       3.464   7.798  -2.628  0.00  0.00    +0.186 C 
ATOM     14  O3* UNL     1       4.596   8.164  -3.567  0.00  0.00    -0.220 OA
ATOM     15  C2* UNL     1       2.739   6.910  -3.770  0.00  0.00    +0.089 C 
BRANCH  12  16
ATOM     16  C5* UNL     1       4.793   6.985  -0.756  0.00  0.00    +0.214 C 
ATOM     17  O5* UNL     1       4.488   5.891   0.077  0.00  0.00    -0.218 OA
ENDBRANCH  12  16
ENDBRANCH   6  10
TORSDOF 2
ENDMDL
MODEL 9
REMARK VINA RESULT:      -5.8      7.468      9.680
REMARK  Name = 
REMARK  2 active torsions:
REMARK  status: ('A' for Active; 'I' for Inactive)
REMARK    1  A    between atoms: N_6  and  C1*_7
REMARK    2  A    between atoms: C4*_11  and  C5*_12
REMARK                            x       y       z     vdW  Elec       q    Type
REMARK                         _______ _______ _______ _____ _____    ______ ____
ROOT
ATOM      1  O   UNL     1       8.006   4.730 -12.740  0.00  0.00    -0.263 OA
ATOM      2  C   UNL     1       7.109   5.276 -12.444  0.00  0.00    +0.312 A 
ATOM      3  C   UNL     1       6.235   5.482 -13.473  0.00  0.00    +0.215 A 
ATOM      4  F   UNL     1       6.572   5.528 -14.773  0.00  0.00    -0.197 F 
ATOM      5  C   UNL     1       4.918   5.613 -13.173  0.00  0.00    +0.117 A 
ATOM      6  N   UNL     1       4.345   5.396 -11.953  0.00  0.00    -0.253 N 
ATOM      7  C   UNL     1       5.273   5.690 -11.002  0.00  0.00    +0.355 A 
ATOM      8  O   UNL     1       4.810   5.945  -9.843  0.00  0.00    -0.244 OA
ATOM      9  N   UNL     1       6.576   5.357 -11.197  0.00  0.00    -0.151 NA
ENDROOT
BRANCH   6  10
ATOM     10  C1* UNL     1       3.078   6.368 -11.981  0.00  0.00    +0.211 C 
ATOM     11  O4* UNL     1       2.135   5.391 -11.288  0.00  0.00    -0.332 OA
ATOM     12  C4* UNL     1       0.965   5.921 -12.087  0.00  0.00    +0.180 C 
ATOM     13  C3* UNL     1       1.556   4.816 -13.264  0.00  0.00    +0.186 C 
ATOM     14  O3* UNL     1       0.689   5.389 -14.367  0.00  0.00    -0.220 OA
ATOM     15  C2* UNL     1       2.712   5.916 -13.535  0.00  0.00    +0.089 C 
BRANCH  12  16
ATOM     16  C5* UNL     1      -0.089   4.823 -11.468  0.00  0.00    +0.214 C 
ATOM     17  O5* UNL     1       0.072   5.196 -10.119  0.00  0.00    -0.218 OA
ENDBRANCH  12  16
ENDBRANCH   6  10
TORSDOF 2
ENDMDL
