MODEL 1
REMARK VINA RESULT:      -8.2      0.000      0.000
REMARK  Name = 
REMARK  0 active torsions:
REMARK  status: ('A' for Active; 'I' for Inactive)
REMARK                            x       y       z     vdW  Elec       q    Type
REMARK                         _______ _______ _______ _____ _____    ______ ____
ROOT
ATOM      1  C   UNL     1       2.332   4.866  -9.863  0.00  0.00    +0.090 C 
ATOM      2  N   UNL     1       2.270   5.556  -9.050  0.00  0.00    -0.272 NA
ATOM      3  C   UNL     1       1.597   4.776  -7.870  0.00  0.00    +0.066 C 
ATOM      4  C   UNL     1       2.865   5.326  -6.876  0.00  0.00    +0.044 C 
ATOM      5  C   UNL     1       2.228   6.670  -6.297  0.00  0.00    +0.067 C 
ATOM      6  C   UNL     1       3.174   7.128  -5.066  0.00  0.00    +0.204 C 
ATOM      7  O   UNL     1       2.392   6.454  -3.939  0.00  0.00    -0.473 OA
ATOM      8  C   UNL     1       1.081   6.429  -4.255  0.00  0.00    +0.173 A 
ATOM      9  C   UNL     1       0.011   5.741  -3.680  0.00  0.00    +0.229 A 
ATOM     10  C   UNL     1      -1.193   5.754  -4.389  0.00  0.00    +0.045 A 
ATOM     11  C   UNL     1      -1.210   5.944  -5.774  0.00  0.00    -0.001 A 
ATOM     12  C   UNL     1      -0.003   5.952  -6.375  0.00  0.00    -0.022 A 
ATOM     13  O   UNL     1       0.216   4.811  -2.648  0.00  0.00    -0.283 OA
ATOM     14  C   UNL     1       4.384   5.897  -5.241  0.00  0.00    +0.214 C 
ATOM     15  O   UNL     1       4.884   6.158  -3.843  0.00  0.00    -0.214 OA
ATOM     16  C   UNL     1       3.471   4.644  -4.784  0.00  0.00    +0.005 C 
ATOM     17  C   UNL     1       1.026   6.530  -5.632  0.00  0.00    +0.014 A 
ATOM     18  C   UNL     1       2.472   7.516  -7.462  0.00  0.00    +0.025 C 
ATOM     19  C   UNL     1       2.418   4.457  -5.602  0.00  0.00    -0.027 C 
ATOM     20  C   UNL     1       0.457   5.926  -7.735  0.00  0.00    +0.042 C 
ATOM     21  C   UNL     1       2.463   6.872  -8.794  0.00  0.00    +0.073 C 
ENDROOT
TORSDOF 0
ENDMDL
MODEL 2
REMARK VINA RESULT:      -8.0      1.575      3.646
REMARK  Name = 
REMARK  0 active torsions:
REMARK  status: ('A' for Active; 'I' for Inactive)
REMARK                            x       y       z     vdW  Elec       q    Type
REMARK                         _______ _______ _______ _____ _____    ______ ____
ROOT
ATOM      1  C   UNL     1       3.922   6.463  -9.887  0.00  0.00    +0.090 C 
ATOM      2  N   UNL     1       3.554   5.793  -9.141  0.00  0.00    -0.272 NA
ATOM      3  C   UNL     1       3.579   6.593  -7.793  0.00  0.00    +0.066 C 
ATOM      4  C   UNL     1       1.970   6.093  -7.549  0.00  0.00    +0.044 C 
ATOM      5  C   UNL     1       2.199   4.754  -6.711  0.00  0.00    +0.067 C 
ATOM      6  C   UNL     1       0.755   4.346  -6.103  0.00  0.00    +0.204 C 
ATOM      7  O   UNL     1       0.897   5.036  -4.746  0.00  0.00    -0.473 OA
ATOM      8  C   UNL     1       2.193   5.028  -4.373  0.00  0.00    +0.173 A 
ATOM      9  C   UNL     1       2.859   5.712  -3.354  0.00  0.00    +0.229 A 
ATOM     10  C   UNL     1       4.255   5.658  -3.374  0.00  0.00    +0.045 A 
ATOM     11  C   UNL     1       4.948   5.430  -4.566  0.00  0.00    -0.001 A 
ATOM     12  C   UNL     1       4.196   5.429  -5.686  0.00  0.00    -0.022 A 
ATOM     13  O   UNL     1       2.198   6.673  -2.571  0.00  0.00    -0.283 OA
ATOM     14  C   UNL     1      -0.175   5.593  -6.871  0.00  0.00    +0.214 C 
ATOM     15  O   UNL     1      -1.308   5.379  -5.899  0.00  0.00    -0.214 OA
ATOM     16  C   UNL     1       0.429   6.842  -6.040  0.00  0.00    +0.005 C 
ATOM     17  C   UNL     1       2.918   4.889  -5.541  0.00  0.00    +0.014 A 
ATOM     18  C   UNL     1       2.537   3.881  -7.832  0.00  0.00    +0.025 C 
ATOM     19  C   UNL     1       1.754   6.987  -6.232  0.00  0.00    -0.027 C 
ATOM     20  C   UNL     1       4.469   5.426  -7.095  0.00  0.00    +0.042 C 
ATOM     21  C   UNL     1       3.222   4.489  -8.994  0.00  0.00    +0.073 C 
ENDROOT
TORSDOF 0
ENDMDL
MODEL 3
REMARK VINA RESULT:      -8.0      2.346      3.914
REMARK  Name = 
REMARK  0 active torsions:
REMARK  status: ('A' for Active; 'I' for Inactive)
REMARK                            x       y       z     vdW  Elec       q    Type
REMARK                         _______ _______ _______ _____ _____    ______ ____
ROOT
ATOM      1  C   UNL     1       5.455   7.597  -4.058  0.00  0.00    +0.090 C 
ATOM      2  N   UNL     1       4.834   6.741  -4.205  0.00  0.00    -0.272 NA
ATOM      3  C   UNL     1       3.415   7.293  -4.573  0.00  0.00    +0.066 C 
ATOM      4  C   UNL     1       3.419   6.223  -5.896  0.00  0.00    +0.044 C 
ATOM      5  C   UNL     1       2.710   4.948  -5.251  0.00  0.00    +0.067 C 
ATOM      6  C   UNL     1       2.325   3.969  -6.482  0.00  0.00    +0.204 C 
ATOM      7  O   UNL     1       0.894   4.462  -6.700  0.00  0.00    -0.473 OA
ATOM      8  C   UNL     1       0.373   4.862  -5.523  0.00  0.00    +0.173 A 
ATOM      9  C   UNL     1      -0.786   5.584  -5.230  0.00  0.00    +0.229 A 
ATOM     10  C   UNL     1      -0.925   6.033  -3.914  0.00  0.00    +0.045 A 
ATOM     11  C   UNL     1       0.194   6.242  -3.103  0.00  0.00    -0.001 A 
ATOM     12  C   UNL     1       1.388   6.135  -3.720  0.00  0.00    -0.022 A 
ATOM     13  O   UNL     1      -1.584   6.122  -6.252  0.00  0.00    -0.283 OA
ATOM     14  C   UNL     1       3.059   4.901  -7.749  0.00  0.00    +0.214 C 
ATOM     15  O   UNL     1       2.257   4.160  -8.789  0.00  0.00    -0.214 OA
ATOM     16  C   UNL     1       2.031   6.149  -7.708  0.00  0.00    +0.005 C 
ATOM     17  C   UNL     1       1.455   5.160  -4.717  0.00  0.00    +0.014 A 
ATOM     18  C   UNL     1       3.871   4.425  -4.536  0.00  0.00    +0.025 C 
ATOM     19  C   UNL     1       2.048   6.782  -6.520  0.00  0.00    -0.027 C 
ATOM     20  C   UNL     1       2.747   6.433  -3.366  0.00  0.00    +0.042 C 
ATOM     21  C   UNL     1       4.871   5.397  -4.043  0.00  0.00    +0.073 C 
ENDROOT
TORSDOF 0
ENDMDL
MODEL 4
REMARK VINA RESULT:      -7.8      2.549      4.849
REMARK  Name = 
REMARK  0 active torsions:
REMARK  status: ('A' for Active; 'I' for Inactive)
REMARK                            x       y       z     vdW  Elec       q    Type
REMARK                         _______ _______ _______ _____ _____    ______ ____
ROOT
ATOM      1  C   UNL     1       4.329   4.842  -2.451  0.00  0.00    +0.090 C 
ATOM      2  N   UNL     1       3.966   5.486  -3.222  0.00  0.00    -0.272 NA
ATOM      3  C   UNL     1       3.817   4.590  -4.499  0.00  0.00    +0.066 C 
ATOM      4  C   UNL     1       2.244   5.218  -4.671  0.00  0.00    +0.044 C 
ATOM      5  C   UNL     1       2.525   6.464  -5.628  0.00  0.00    +0.067 C 
ATOM      6  C   UNL     1       1.080   6.958  -6.166  0.00  0.00    +0.204 C 
ATOM      7  O   UNL     1       1.057   6.159  -7.469  0.00  0.00    -0.473 OA
ATOM      8  C   UNL     1       2.316   6.017  -7.931  0.00  0.00    +0.173 A 
ATOM      9  C   UNL     1       2.839   5.200  -8.934  0.00  0.00    +0.229 A 
ATOM     10  C   UNL     1       4.232   5.125  -9.015  0.00  0.00    +0.045 A 
ATOM     11  C   UNL     1       5.032   5.375  -7.897  0.00  0.00    -0.001 A 
ATOM     12  C   UNL     1       4.371   5.530  -6.731  0.00  0.00    -0.022 A 
ATOM     13  O   UNL     1       2.039   4.250  -9.589  0.00  0.00    -0.283 OA
ATOM     14  C   UNL     1       0.106   5.864  -5.236  0.00  0.00    +0.214 C 
ATOM     15  O   UNL     1      -1.075   6.110  -6.141  0.00  0.00    -0.214 OA
ATOM     16  C   UNL     1       0.533   4.507  -6.003  0.00  0.00    +0.005 C 
ATOM     17  C   UNL     1       3.138   6.175  -6.831  0.00  0.00    +0.014 A 
ATOM     18  C   UNL     1       3.024   7.382  -4.608  0.00  0.00    +0.025 C 
ATOM     19  C   UNL     1       1.851   4.253  -5.892  0.00  0.00    -0.027 C 
ATOM     20  C   UNL     1       4.751   5.612  -5.349  0.00  0.00    +0.042 C 
ATOM     21  C   UNL     1       3.739   6.801  -3.451  0.00  0.00    +0.073 C 
ENDROOT
TORSDOF 0
ENDMDL
MODEL 5
REMARK VINA RESULT:      -7.7      3.029      4.939
REMARK  Name = 
REMARK  0 active torsions:
REMARK  status: ('A' for Active; 'I' for Inactive)
REMARK                            x       y       z     vdW  Elec       q    Type
REMARK                         _______ _______ _______ _____ _____    ______ ____
ROOT
ATOM      1  C   UNL     1       1.168   6.600  -4.708  0.00  0.00    +0.090 C 
ATOM      2  N   UNL     1       1.402   5.904  -5.484  0.00  0.00    -0.272 NA
ATOM      3  C   UNL     1       1.274   6.698  -6.829  0.00  0.00    +0.066 C 
ATOM      4  C   UNL     1       2.807   6.091  -7.251  0.00  0.00    +0.044 C 
ATOM      5  C   UNL     1       2.396   4.767  -8.041  0.00  0.00    +0.067 C 
ATOM      6  C   UNL     1       3.730   4.261  -8.807  0.00  0.00    +0.204 C 
ATOM      7  O   UNL     1       3.477   4.954 -10.146  0.00  0.00    -0.473 OA
ATOM      8  C   UNL     1       2.149   5.031 -10.368  0.00  0.00    +0.173 A 
ATOM      9  C   UNL     1       1.416   5.754 -11.311  0.00  0.00    +0.229 A 
ATOM     10  C   UNL     1       0.031   5.792 -11.129  0.00  0.00    +0.045 A 
ATOM     11  C   UNL     1      -0.533   5.616  -9.862  0.00  0.00    -0.001 A 
ATOM     12  C   UNL     1       0.342   5.569  -8.837  0.00  0.00    -0.022 A 
ATOM     13  O   UNL     1       2.043   6.665 -12.176  0.00  0.00    -0.283 OA
ATOM     14  C   UNL     1       4.822   5.447  -8.165  0.00  0.00    +0.214 C 
ATOM     15  O   UNL     1       5.818   5.154  -9.259  0.00  0.00    -0.214 OA
ATOM     16  C   UNL     1       4.209   6.729  -8.936  0.00  0.00    +0.005 C 
ATOM     17  C   UNL     1       1.556   4.945  -9.122  0.00  0.00    +0.014 A 
ATOM     18  C   UNL     1       2.133   3.923  -6.879  0.00  0.00    +0.025 C 
ATOM     19  C   UNL     1       2.928   6.963  -8.594  0.00  0.00    -0.027 C 
ATOM     20  C   UNL     1       0.234   5.591  -7.406  0.00  0.00    +0.042 C 
ATOM     21  C   UNL     1       1.629   4.580  -5.652  0.00  0.00    +0.073 C 
ENDROOT
TORSDOF 0
ENDMDL
MODEL 6
REMARK VINA RESULT:      -7.7      3.497      5.988
REMARK  Name = 
REMARK  0 active torsions:
REMARK  status: ('A' for Active; 'I' for Inactive)
REMARK                            x       y       z     vdW  Elec       q    Type
REMARK                         _______ _______ _______ _____ _____    ______ ____
ROOT
ATOM      1  C   UNL     1       2.316   4.655  -5.251  0.00  0.00    +0.090 C 
ATOM      2  N   UNL     1       2.357   5.368  -6.044  0.00  0.00    -0.272 NA
ATOM      3  C   UNL     1       2.980   4.616  -7.270  0.00  0.00    +0.066 C 
ATOM      4  C   UNL     1       1.684   5.207  -8.202  0.00  0.00    +0.044 C 
ATOM      5  C   UNL     1       2.315   6.561  -8.764  0.00  0.00    +0.067 C 
ATOM      6  C   UNL     1       1.331   7.064  -9.948  0.00  0.00    +0.204 C 
ATOM      7  O   UNL     1       2.066   6.415 -11.120  0.00  0.00    -0.473 OA
ATOM      8  C   UNL     1       3.387   6.368 -10.852  0.00  0.00    +0.173 A 
ATOM      9  C   UNL     1       4.429   5.687 -11.484  0.00  0.00    +0.229 A 
ATOM     10  C   UNL     1       5.657   5.668 -10.818  0.00  0.00    +0.045 A 
ATOM     11  C   UNL     1       5.724   5.818  -9.429  0.00  0.00    -0.001 A 
ATOM     12  C   UNL     1       4.539   5.819  -8.786  0.00  0.00    -0.022 A 
ATOM     13  O   UNL     1       4.178   4.790 -12.534  0.00  0.00    -0.283 OA
ATOM     14  C   UNL     1       0.115   5.840  -9.765  0.00  0.00    +0.214 C 
ATOM     15  O   UNL     1      -0.431   6.146 -11.137  0.00  0.00    -0.214 OA
ATOM     16  C   UNL     1       0.998   4.592 -10.291  0.00  0.00    +0.005 C 
ATOM     17  C   UNL     1       3.491   6.429  -9.475  0.00  0.00    +0.014 A 
ATOM     18  C   UNL     1       2.121   7.375  -7.568  0.00  0.00    +0.025 C 
ATOM     19  C   UNL     1       2.078   4.371  -9.516  0.00  0.00    -0.027 C 
ATOM     20  C   UNL     1       4.127   5.758  -7.412  0.00  0.00    +0.042 C 
ATOM     21  C   UNL     1       2.170   6.692  -6.256  0.00  0.00    +0.073 C 
ENDROOT
TORSDOF 0
ENDMDL
MODEL 7
REMARK VINA RESULT:      -7.5      2.615      4.133
REMARK  Name = 
REMARK  0 active torsions:
REMARK  status: ('A' for Active; 'I' for Inactive)
REMARK                            x       y       z     vdW  Elec       q    Type
REMARK                         _______ _______ _______ _____ _____    ______ ____
ROOT
ATOM      1  C   UNL     1       3.608   7.595  -3.172  0.00  0.00    +0.090 C 
ATOM      2  N   UNL     1       3.415   6.753  -3.800  0.00  0.00    -0.272 NA
ATOM      3  C   UNL     1       2.370   7.236  -4.864  0.00  0.00    +0.066 C 
ATOM      4  C   UNL     1       3.387   6.578  -6.059  0.00  0.00    +0.044 C 
ATOM      5  C   UNL     1       2.779   5.109  -6.190  0.00  0.00    +0.067 C 
ATOM      6  C   UNL     1       3.415   4.472  -7.536  0.00  0.00    +0.204 C 
ATOM      7  O   UNL     1       2.293   4.856  -8.500  0.00  0.00    -0.473 OA
ATOM      8  C   UNL     1       1.117   4.862  -7.839  0.00  0.00    +0.173 A 
ATOM      9  C   UNL     1      -0.138   5.353  -8.204  0.00  0.00    +0.229 A 
ATOM     10  C   UNL     1      -1.104   5.408  -7.196  0.00  0.00    +0.045 A 
ATOM     11  C   UNL     1      -0.735   5.499  -5.851  0.00  0.00    -0.001 A 
ATOM     12  C   UNL     1       0.580   5.688  -5.619  0.00  0.00    -0.022 A 
ATOM     13  O   UNL     1      -0.320   6.068  -9.399  0.00  0.00    -0.283 OA
ATOM     14  C   UNL     1       4.480   5.785  -7.926  0.00  0.00    +0.214 C 
ATOM     15  O   UNL     1       4.621   5.280  -9.340  0.00  0.00    -0.214 OA
ATOM     16  C   UNL     1       3.341   6.862  -8.323  0.00  0.00    +0.005 C 
ATOM     17  C   UNL     1       1.437   5.037  -6.507  0.00  0.00    +0.014 A 
ATOM     18  C   UNL     1       3.416   4.531  -5.010  0.00  0.00    +0.025 C 
ATOM     19  C   UNL     1       2.524   7.143  -7.290  0.00  0.00    -0.027 C 
ATOM     20  C   UNL     1       1.374   6.015  -4.469  0.00  0.00    +0.042 C 
ATOM     21  C   UNL     1       3.683   5.427  -3.864  0.00  0.00    +0.073 C 
ENDROOT
TORSDOF 0
ENDMDL
MODEL 8
REMARK VINA RESULT:      -7.3      2.211      3.196
REMARK  Name = 
REMARK  0 active torsions:
REMARK  status: ('A' for Active; 'I' for Inactive)
REMARK                            x       y       z     vdW  Elec       q    Type
REMARK                         _______ _______ _______ _____ _____    ______ ____
ROOT
ATOM      1  C   UNL     1       0.277   4.501 -12.548  0.00  0.00    +0.090 C 
ATOM      2  N   UNL     1       0.632   5.174 -11.798  0.00  0.00    -0.272 NA
ATOM      3  C   UNL     1       0.616   4.369 -10.453  0.00  0.00    +0.066 C 
ATOM      4  C   UNL     1       2.215   4.893 -10.201  0.00  0.00    +0.044 C 
ATOM      5  C   UNL     1       1.963   6.225  -9.360  0.00  0.00    +0.067 C 
ATOM      6  C   UNL     1       3.398   6.653  -8.744  0.00  0.00    +0.204 C 
ATOM      7  O   UNL     1       3.262   5.955  -7.391  0.00  0.00    -0.473 OA
ATOM      8  C   UNL     1       1.965   5.941  -7.022  0.00  0.00    +0.173 A 
ATOM      9  C   UNL     1       1.307   5.243  -6.008  0.00  0.00    +0.229 A 
ATOM     10  C   UNL     1      -0.090   5.276  -6.033  0.00  0.00    +0.045 A 
ATOM     11  C   UNL     1      -0.783   5.497  -7.227  0.00  0.00    -0.001 A 
ATOM     12  C   UNL     1      -0.027   5.514  -8.344  0.00  0.00    -0.022 A 
ATOM     13  O   UNL     1       1.980   4.289  -5.227  0.00  0.00    -0.283 OA
ATOM     14  C   UNL     1       4.350   5.423  -9.515  0.00  0.00    +0.214 C 
ATOM     15  O   UNL     1       5.476   5.651  -8.538  0.00  0.00    -0.214 OA
ATOM     16  C   UNL     1       3.762   4.162  -8.690  0.00  0.00    +0.005 C 
ATOM     17  C   UNL     1       1.242   6.074  -8.192  0.00  0.00    +0.014 A 
ATOM     18  C   UNL     1       1.614   7.096 -10.478  0.00  0.00    +0.025 C 
ATOM     19  C   UNL     1       2.441   3.997  -8.888  0.00  0.00    -0.027 C 
ATOM     20  C   UNL     1      -0.296   5.518  -9.754  0.00  0.00    +0.042 C 
ATOM     21  C   UNL     1       0.943   6.482 -11.645  0.00  0.00    +0.073 C 
ENDROOT
TORSDOF 0
ENDMDL
MODEL 9
REMARK VINA RESULT:      -7.2      2.725      5.526
REMARK  Name = 
REMARK  0 active torsions:
REMARK  status: ('A' for Active; 'I' for Inactive)
REMARK                            x       y       z     vdW  Elec       q    Type
REMARK                         _______ _______ _______ _____ _____    ______ ____
ROOT
ATOM      1  C   UNL     1      -0.714   7.270 -11.393  0.00  0.00    +0.090 C 
ATOM      2  N   UNL     1      -0.101   6.456 -11.071  0.00  0.00    -0.272 NA
ATOM      3  C   UNL     1       1.334   7.050 -10.865  0.00  0.00    +0.066 C 
ATOM      4  C   UNL     1       1.347   6.303  -9.336  0.00  0.00    +0.044 C 
ATOM      5  C   UNL     1       2.023   4.903  -9.695  0.00  0.00    +0.067 C 
ATOM      6  C   UNL     1       2.424   4.217  -8.284  0.00  0.00    +0.204 C 
ATOM      7  O   UNL     1       3.866   4.719  -8.210  0.00  0.00    -0.473 OA
ATOM      8  C   UNL     1       4.365   4.837  -9.458  0.00  0.00    +0.173 A 
ATOM      9  C   UNL     1       5.526   5.454  -9.927  0.00  0.00    +0.229 A 
ATOM     10  C   UNL     1       5.640   5.597 -11.312  0.00  0.00    +0.045 A 
ATOM     11  C   UNL     1       4.505   5.640 -12.127  0.00  0.00    -0.001 A 
ATOM     12  C   UNL     1       3.324   5.694 -11.477  0.00  0.00    -0.022 A 
ATOM     13  O   UNL     1       6.355   6.192  -9.068  0.00  0.00    -0.283 OA
ATOM     14  C   UNL     1       1.733   5.420  -7.243  0.00  0.00    +0.214 C 
ATOM     15  O   UNL     1       2.550   4.915  -6.080  0.00  0.00    -0.214 OA
ATOM     16  C   UNL     1       2.776   6.608  -7.582  0.00  0.00    +0.005 C 
ATOM     17  C   UNL     1       3.268   4.968 -10.288  0.00  0.00    +0.014 A 
ATOM     18  C   UNL     1       0.839   4.255 -10.251  0.00  0.00    +0.025 C 
ATOM     19  C   UNL     1       2.740   6.962  -8.881  0.00  0.00    -0.027 C 
ATOM     20  C   UNL     1       1.961   5.931 -11.862  0.00  0.00    +0.042 C 
ATOM     21  C   UNL     1      -0.159   5.111 -10.928  0.00  0.00    +0.073 C 
ENDROOT
TORSDOF 0
ENDMDL
