MODEL 1
REMARK VINA RESULT:      -5.0      0.000      0.000
REMARK  Name = 
REMARK  1 active torsions:
REMARK  status: ('A' for Active; 'I' for Inactive)
REMARK    1  A    between atoms: C_4  and  C_5
REMARK                            x       y       z     vdW  Elec       q    Type
REMARK                         _______ _______ _______ _____ _____    ______ ____
ROOT
ATOM      1  O   UNL     1       6.889   5.664 -14.710  0.00  0.00    -0.247 OA
ATOM      2  C   UNL     1       6.397   5.683 -13.771  0.00  0.00    +0.351 C 
ATOM      3  C   UNL     1       7.558   6.064 -12.671  0.00  0.00    +0.282 C 
ATOM      4  O   UNL     1       7.970   4.578 -12.566  0.00  0.00    -0.208 OA
ATOM      5  C   UNL     1       6.481   5.922 -11.296  0.00  0.00    +0.227 C 
ATOM      6  O   UNL     1       6.959   7.220 -10.684  0.00  0.00    -0.217 OA
ATOM      7  C   UNL     1       5.198   6.751 -12.103  0.00  0.00    +0.228 C 
ATOM      8  O   UNL     1       4.489   7.003 -10.792  0.00  0.00    -0.216 OA
ATOM      9  C   UNL     1       4.393   5.221 -12.372  0.00  0.00    +0.234 C 
ATOM     10  O   UNL     1       5.497   4.758 -13.361  0.00  0.00    -0.445 OA
ENDROOT
BRANCH   9  11
ATOM     11  C   UNL     1       3.456   5.785 -13.621  0.00  0.00    +0.228 C 
ATOM     12  O   UNL     1       3.035   4.729 -14.348  0.00  0.00    -0.216 OA
ENDBRANCH   9  11
TORSDOF 1
ENDMDL
MODEL 2
REMARK VINA RESULT:      -4.9      1.421      3.197
REMARK  Name = 
REMARK  1 active torsions:
REMARK  status: ('A' for Active; 'I' for Inactive)
REMARK    1  A    between atoms: C_4  and  C_5
REMARK                            x       y       z     vdW  Elec       q    Type
REMARK                         _______ _______ _______ _____ _____    ______ ____
ROOT
ATOM      1  O   UNL     1       5.976   5.711  -8.884  0.00  0.00    -0.247 OA
ATOM      2  C   UNL     1       5.926   5.835  -9.936  0.00  0.00    +0.351 C 
ATOM      3  C   UNL     1       7.447   5.546 -10.488  0.00  0.00    +0.282 C 
ATOM      4  O   UNL     1       7.846   7.013 -10.208  0.00  0.00    -0.208 OA
ATOM      5  C   UNL     1       7.048   5.912 -12.156  0.00  0.00    +0.227 C 
ATOM      6  O   UNL     1       7.756   4.683 -12.681  0.00  0.00    -0.217 OA
ATOM      7  C   UNL     1       5.556   5.046 -12.081  0.00  0.00    +0.228 C 
ATOM      8  O   UNL     1       5.468   4.997 -13.589  0.00  0.00    -0.216 OA
ATOM      9  C   UNL     1       4.692   6.564 -11.969  0.00  0.00    +0.234 C 
ATOM     10  O   UNL     1       5.270   6.845 -10.556  0.00  0.00    -0.445 OA
ENDROOT
BRANCH   9  11
ATOM     11  C   UNL     1       3.324   5.887 -11.317  0.00  0.00    +0.228 C 
ATOM     12  O   UNL     1       2.254   6.343 -12.002  0.00  0.00    -0.216 OA
ENDBRANCH   9  11
TORSDOF 1
ENDMDL
MODEL 3
REMARK VINA RESULT:      -4.8      4.499      6.262
REMARK  Name = 
REMARK  1 active torsions:
REMARK  status: ('A' for Active; 'I' for Inactive)
REMARK    1  A    between atoms: C_4  and  C_5
REMARK                            x       y       z     vdW  Elec       q    Type
REMARK                         _______ _______ _______ _____ _____    ______ ____
ROOT
ATOM      1  O   UNL     1       2.042   8.319  -7.905  0.00  0.00    -0.247 OA
ATOM      2  C   UNL     1       2.421   7.330  -7.934  0.00  0.00    +0.351 C 
ATOM      3  C   UNL     1       2.215   6.734  -6.415  0.00  0.00    +0.282 C 
ATOM      4  O   UNL     1       3.552   7.367  -5.966  0.00  0.00    -0.208 OA
ATOM      5  C   UNL     1       2.993   5.204  -6.773  0.00  0.00    +0.227 C 
ATOM      6  O   UNL     1       1.901   4.399  -6.102  0.00  0.00    -0.217 OA
ATOM      7  C   UNL     1       2.195   5.054  -8.297  0.00  0.00    +0.228 C 
ATOM      8  O   UNL     1       2.519   3.580  -8.362  0.00  0.00    -0.216 OA
ATOM      9  C   UNL     1       3.673   5.528  -9.105  0.00  0.00    +0.234 C 
ATOM     10  O   UNL     1       3.577   6.971  -8.541  0.00  0.00    -0.445 OA
ENDROOT
BRANCH   9  11
ATOM     11  C   UNL     1       2.913   5.985 -10.508  0.00  0.00    +0.228 C 
ATOM     12  O   UNL     1       3.815   6.602 -11.301  0.00  0.00    -0.216 OA
ENDBRANCH   9  11
TORSDOF 1
ENDMDL
MODEL 4
REMARK VINA RESULT:      -4.8      5.256      7.132
REMARK  Name = 
REMARK  1 active torsions:
REMARK  status: ('A' for Active; 'I' for Inactive)
REMARK    1  A    between atoms: C_4  and  C_5
REMARK                            x       y       z     vdW  Elec       q    Type
REMARK                         _______ _______ _______ _____ _____    ______ ____
ROOT
ATOM      1  O   UNL     1       2.145   3.607  -6.709  0.00  0.00    -0.247 OA
ATOM      2  C   UNL     1       2.411   4.591  -7.000  0.00  0.00    +0.351 C 
ATOM      3  C   UNL     1       2.197   4.644  -8.629  0.00  0.00    +0.282 C 
ATOM      4  O   UNL     1       3.612   4.062  -8.852  0.00  0.00    -0.208 OA
ATOM      5  C   UNL     1       2.787   6.288  -8.781  0.00  0.00    +0.227 C 
ATOM      6  O   UNL     1       1.639   6.705  -9.673  0.00  0.00    -0.217 OA
ATOM      7  C   UNL     1       1.922   6.821  -7.385  0.00  0.00    +0.228 C 
ATOM      8  O   UNL     1       2.079   8.267  -7.796  0.00  0.00    -0.216 OA
ATOM      9  C   UNL     1       3.413   6.805  -6.467  0.00  0.00    +0.234 C 
ATOM     10  O   UNL     1       3.498   5.256  -6.540  0.00  0.00    -0.445 OA
ENDROOT
BRANCH   9  11
ATOM     11  C   UNL     1       2.656   6.733  -4.992  0.00  0.00    +0.228 C 
ATOM     12  O   UNL     1       3.406   7.409  -4.095  0.00  0.00    -0.216 OA
ENDBRANCH   9  11
TORSDOF 1
ENDMDL
MODEL 5
REMARK VINA RESULT:      -4.7      5.316      6.035
REMARK  Name = 
REMARK  1 active torsions:
REMARK  status: ('A' for Active; 'I' for Inactive)
REMARK    1  A    between atoms: C_4  and  C_5
REMARK                            x       y       z     vdW  Elec       q    Type
REMARK                         _______ _______ _______ _____ _____    ______ ____
ROOT
ATOM      1  O   UNL     1       3.189   3.798  -8.641  0.00  0.00    -0.247 OA
ATOM      2  C   UNL     1       2.715   4.703  -8.362  0.00  0.00    +0.351 C 
ATOM      3  C   UNL     1       3.259   5.039  -6.847  0.00  0.00    +0.282 C 
ATOM      4  O   UNL     1       2.168   4.131  -6.235  0.00  0.00    -0.208 OA
ATOM      5  C   UNL     1       2.257   6.466  -6.665  0.00  0.00    +0.227 C 
ATOM      6  O   UNL     1       3.398   7.298  -6.123  0.00  0.00    -0.217 OA
ATOM      7  C   UNL     1       2.593   7.013  -8.268  0.00  0.00    +0.228 C 
ATOM      8  O   UNL     1       2.109   8.405  -7.931  0.00  0.00    -0.216 OA
ATOM      9  C   UNL     1       1.010   6.467  -8.776  0.00  0.00    +0.234 C 
ATOM     10  O   UNL     1       1.406   4.978  -8.577  0.00  0.00    -0.445 OA
ENDROOT
BRANCH   9  11
ATOM     11  C   UNL     1       1.406   6.398 -10.386  0.00  0.00    +0.228 C 
ATOM     12  O   UNL     1       0.265   6.321 -11.103  0.00  0.00    -0.216 OA
ENDBRANCH   9  11
TORSDOF 1
ENDMDL
MODEL 6
REMARK VINA RESULT:      -4.7      9.352     11.232
REMARK  Name = 
REMARK  1 active torsions:
REMARK  status: ('A' for Active; 'I' for Inactive)
REMARK    1  A    between atoms: C_4  and  C_5
REMARK                            x       y       z     vdW  Elec       q    Type
REMARK                         _______ _______ _______ _____ _____    ______ ____
ROOT
ATOM      1  O   UNL     1      -0.866   5.790  -6.430  0.00  0.00    -0.247 OA
ATOM      2  C   UNL     1      -0.796   5.889  -5.378  0.00  0.00    +0.351 C 
ATOM      3  C   UNL     1      -2.323   5.671  -4.810  0.00  0.00    +0.282 C 
ATOM      4  O   UNL     1      -2.647   7.162  -5.056  0.00  0.00    -0.208 OA
ATOM      5  C   UNL     1      -1.884   5.981  -3.141  0.00  0.00    +0.227 C 
ATOM      6  O   UNL     1      -2.650   4.780  -2.631  0.00  0.00    -0.217 OA
ATOM      7  C   UNL     1      -0.442   5.038  -3.254  0.00  0.00    +0.228 C 
ATOM      8  O   UNL     1      -0.338   4.954  -1.748  0.00  0.00    -0.216 OA
ATOM      9  C   UNL     1       0.501   6.510  -3.347  0.00  0.00    +0.234 C 
ATOM     10  O   UNL     1      -0.080   6.850  -4.747  0.00  0.00    -0.445 OA
ENDROOT
BRANCH   9  11
ATOM     11  C   UNL     1       1.822   5.775  -4.031  0.00  0.00    +0.228 C 
ATOM     12  O   UNL     1       2.697   6.733  -4.405  0.00  0.00    -0.216 OA
ENDBRANCH   9  11
TORSDOF 1
ENDMDL
MODEL 7
REMARK VINA RESULT:      -4.5      5.676      7.499
REMARK  Name = 
REMARK  1 active torsions:
REMARK  status: ('A' for Active; 'I' for Inactive)
REMARK    1  A    between atoms: C_4  and  C_5
REMARK                            x       y       z     vdW  Elec       q    Type
REMARK                         _______ _______ _______ _____ _____    ______ ____
ROOT
ATOM      1  O   UNL     1       2.186   8.182  -7.726  0.00  0.00    -0.247 OA
ATOM      2  C   UNL     1       1.934   7.159  -7.613  0.00  0.00    +0.351 C 
ATOM      3  C   UNL     1       2.485   6.417  -8.973  0.00  0.00    +0.282 C 
ATOM      4  O   UNL     1       1.183   6.784  -9.722  0.00  0.00    -0.208 OA
ATOM      5  C   UNL     1       1.851   4.845  -8.524  0.00  0.00    +0.227 C 
ATOM      6  O   UNL     1       3.138   4.133  -8.882  0.00  0.00    -0.217 OA
ATOM      7  C   UNL     1       2.371   5.005  -6.885  0.00  0.00    +0.228 C 
ATOM      8  O   UNL     1       2.227   3.518  -6.657  0.00  0.00    -0.216 OA
ATOM      9  C   UNL     1       0.724   5.351  -6.407  0.00  0.00    +0.234 C 
ATOM     10  O   UNL     1       0.741   6.712  -7.156  0.00  0.00    -0.445 OA
ENDROOT
BRANCH   9  11
ATOM     11  C   UNL     1       1.154   6.087  -4.983  0.00  0.00    +0.228 C 
ATOM     12  O   UNL     1       0.493   5.481  -3.974  0.00  0.00    -0.216 OA
ENDBRANCH   9  11
TORSDOF 1
ENDMDL
MODEL 8
REMARK VINA RESULT:      -4.5      6.102      8.015
REMARK  Name = 
REMARK  1 active torsions:
REMARK  status: ('A' for Active; 'I' for Inactive)
REMARK    1  A    between atoms: C_4  and  C_5
REMARK                            x       y       z     vdW  Elec       q    Type
REMARK                         _______ _______ _______ _____ _____    ______ ____
ROOT
ATOM      1  O   UNL     1       3.826   6.423  -8.278  0.00  0.00    -0.247 OA
ATOM      2  C   UNL     1       3.224   6.399  -7.406  0.00  0.00    +0.351 C 
ATOM      3  C   UNL     1       1.709   6.799  -7.903  0.00  0.00    +0.282 C 
ATOM      4  O   UNL     1       2.046   8.303  -7.782  0.00  0.00    -0.208 OA
ATOM      5  C   UNL     1       1.030   6.761  -6.287  0.00  0.00    +0.227 C 
ATOM      6  O   UNL     1      -0.175   5.957  -6.723  0.00  0.00    -0.217 OA
ATOM      7  C   UNL     1       1.873   5.311  -5.873  0.00  0.00    +0.228 C 
ATOM      8  O   UNL     1       0.952   5.071  -4.698  0.00  0.00    -0.216 OA
ATOM      9  C   UNL     1       3.009   6.253  -4.932  0.00  0.00    +0.234 C 
ATOM     10  O   UNL     1       3.592   6.916  -6.209  0.00  0.00    -0.445 OA
ENDROOT
BRANCH   9  11
ATOM     11  C   UNL     1       4.190   5.087  -4.952  0.00  0.00    +0.228 C 
ATOM     12  O   UNL     1       4.661   4.936  -3.696  0.00  0.00    -0.216 OA
ENDBRANCH   9  11
TORSDOF 1
ENDMDL
MODEL 9
REMARK VINA RESULT:      -4.5      1.225      3.380
REMARK  Name = 
REMARK  1 active torsions:
REMARK  status: ('A' for Active; 'I' for Inactive)
REMARK    1  A    between atoms: C_4  and  C_5
REMARK                            x       y       z     vdW  Elec       q    Type
REMARK                         _______ _______ _______ _____ _____    ______ ____
ROOT
ATOM      1  O   UNL     1       8.022   4.647 -12.658  0.00  0.00    -0.247 OA
ATOM      2  C   UNL     1       7.172   5.249 -12.462  0.00  0.00    +0.351 C 
ATOM      3  C   UNL     1       6.382   5.378 -13.898  0.00  0.00    +0.282 C 
ATOM      4  O   UNL     1       7.284   6.565 -14.308  0.00  0.00    -0.208 OA
ATOM      5  C   UNL     1       5.151   6.456 -13.269  0.00  0.00    +0.227 C 
ATOM      6  O   UNL     1       4.025   5.682 -13.918  0.00  0.00    -0.217 OA
ATOM      7  C   UNL     1       4.969   5.541 -11.816  0.00  0.00    +0.228 C 
ATOM      8  O   UNL     1       3.642   6.204 -11.523  0.00  0.00    -0.216 OA
ATOM      9  C   UNL     1       5.890   6.752 -10.951  0.00  0.00    +0.234 C 
ATOM     10  O   UNL     1       7.191   6.376 -11.712  0.00  0.00    -0.445 OA
ENDROOT
BRANCH   9  11
ATOM     11  C   UNL     1       6.287   5.740  -9.696  0.00  0.00    +0.228 C 
ATOM     12  O   UNL     1       7.494   6.110  -9.216  0.00  0.00    -0.216 OA
ENDBRANCH   9  11
TORSDOF 1
ENDMDL
