MODEL 1
REMARK VINA RESULT:      -8.0      0.000      0.000
REMARK  Name = 
REMARK  5 active torsions:
REMARK  status: ('A' for Active; 'I' for Inactive)
REMARK    1  A    between atoms: C_5  and  O_6
REMARK    2  A    between atoms: O_6  and  C_7
REMARK    3  A    between atoms: C_7  and  C_9
REMARK    4  A    between atoms: C_9  and  C_10
REMARK    5  A    between atoms: C_9  and  C_12
REMARK                            x       y       z     vdW  Elec       q    Type
REMARK                         _______ _______ _______ _____ _____    ______ ____
ROOT
ATOM      1  O   UNL     1       4.657   6.030  -8.792  0.00  0.00    -0.452 OA
ENDROOT
BRANCH   1   9
ATOM      2  C   UNL     1       6.527   8.552 -11.485  0.00  0.00    +0.090 C 
ATOM      3  N   UNL     1       7.401   7.689 -10.847  0.00  0.00    -0.269 NA
ATOM      4  C   UNL     1       6.710   6.310 -11.134  0.00  0.00    +0.091 C 
ATOM      5  C   UNL     1       7.253   6.246 -12.767  0.00  0.00    +0.158 C 
ATOM      6  C   UNL     1       8.421   5.696 -11.649  0.00  0.00    +0.158 C 
ATOM      7  O   UNL     1       7.364   4.615 -12.376  0.00  0.00    -0.351 OA
ATOM      8  C   UNL     1       5.172   6.668 -11.088  0.00  0.00    +0.062 C 
ATOM      9  C   UNL     1       5.415   5.416  -9.964  0.00  0.00    +0.172 C 
ATOM     10  C   UNL     1       6.962   5.806  -9.381  0.00  0.00    +0.062 C 
ATOM     11  C   UNL     1       6.953   6.223 -10.908  0.00  0.00    +0.091 C 
ENDBRANCH   1   9
BRANCH   1  12
ATOM     12  C   UNL     1       3.861   5.193  -8.028  0.00  0.00    +0.323 C 
ATOM     13  O   UNL     1       4.494   5.076  -6.921  0.00  0.00    -0.250 OA
BRANCH  12  14
ATOM     14  C   UNL     1       2.391   5.651  -7.541  0.00  0.00    +0.154 C 
BRANCH  14  15
ATOM     15  C   UNL     1       1.608   5.473  -8.920  0.00  0.00    -0.009 A 
ATOM     16  C   UNL     1       1.376   6.740  -9.445  0.00  0.00    -0.004 A 
ATOM     17  C   UNL     1       0.458   6.854 -10.480  0.00  0.00    -0.000 A 
ATOM     18  C   UNL     1      -0.123   5.661 -10.913  0.00  0.00    -0.000 A 
ATOM     19  C   UNL     1       0.692   4.538 -10.774  0.00  0.00    -0.000 A 
ATOM     20  C   UNL     1       1.520   4.400  -9.655  0.00  0.00    -0.004 A 
ENDBRANCH  14  15
BRANCH  14  21
ATOM     21  C   UNL     1       1.988   4.166  -6.978  0.00  0.00    +0.198 C 
ATOM     22  O   UNL     1       1.168   4.306  -5.910  0.00  0.00    -0.219 OA
ENDBRANCH  14  21
ENDBRANCH  12  14
ENDBRANCH   1  12
TORSDOF 5
ENDMDL
MODEL 2
REMARK VINA RESULT:      -7.9      4.552      8.544
REMARK  Name = 
REMARK  5 active torsions:
REMARK  status: ('A' for Active; 'I' for Inactive)
REMARK    1  A    between atoms: C_5  and  O_6
REMARK    2  A    between atoms: O_6  and  C_7
REMARK    3  A    between atoms: C_7  and  C_9
REMARK    4  A    between atoms: C_9  and  C_10
REMARK    5  A    between atoms: C_9  and  C_12
REMARK                            x       y       z     vdW  Elec       q    Type
REMARK                         _______ _______ _______ _____ _____    ______ ____
ROOT
ATOM      1  O   UNL     1       0.282   5.879  -6.718  0.00  0.00    -0.452 OA
ENDROOT
BRANCH   1   9
ATOM      2  C   UNL     1      -1.906   8.558  -4.450  0.00  0.00    +0.090 C 
ATOM      3  N   UNL     1      -2.645   7.464  -4.867  0.00  0.00    -0.269 NA
ATOM      4  C   UNL     1      -1.736   6.289  -4.365  0.00  0.00    +0.091 C 
ATOM      5  C   UNL     1      -2.225   6.460  -2.722  0.00  0.00    +0.158 C 
ATOM      6  C   UNL     1      -3.315   5.532  -3.654  0.00  0.00    +0.158 C 
ATOM      7  O   UNL     1      -2.082   4.787  -2.795  0.00  0.00    -0.351 OA
ATOM      8  C   UNL     1      -0.276   6.862  -4.558  0.00  0.00    +0.062 C 
ATOM      9  C   UNL     1      -0.341   5.394  -5.413  0.00  0.00    +0.172 C 
ATOM     10  C   UNL     1      -1.943   5.423  -5.976  0.00  0.00    +0.062 C 
ATOM     11  C   UNL     1      -1.967   6.123  -4.557  0.00  0.00    +0.091 C 
ENDBRANCH   1   9
BRANCH   1  12
ATOM     12  C   UNL     1       1.474   5.300  -7.118  0.00  0.00    +0.323 C 
ATOM     13  O   UNL     1       1.240   4.880  -8.306  0.00  0.00    -0.250 OA
BRANCH  12  14
ATOM     14  C   UNL     1       2.810   6.186  -7.319  0.00  0.00    +0.154 C 
BRANCH  14  15
ATOM     15  C   UNL     1       3.478   5.953  -5.889  0.00  0.00    -0.009 A 
ATOM     16  C   UNL     1       3.804   7.199  -5.364  0.00  0.00    -0.004 A 
ATOM     17  C   UNL     1       4.659   7.237  -4.271  0.00  0.00    -0.000 A 
ATOM     18  C   UNL     1       5.084   5.999  -3.787  0.00  0.00    -0.000 A 
ATOM     19  C   UNL     1       4.169   4.963  -3.968  0.00  0.00    -0.000 A 
ATOM     20  C   UNL     1       3.406   4.890  -5.138  0.00  0.00    -0.004 A 
ENDBRANCH  14  15
BRANCH  14  21
ATOM     21  C   UNL     1       3.644   4.975  -8.043  0.00  0.00    +0.198 C 
ATOM     22  O   UNL     1       4.923   5.374  -8.237  0.00  0.00    -0.219 OA
ENDBRANCH  14  21
ENDBRANCH  12  14
ENDBRANCH   1  12
TORSDOF 5
ENDMDL
MODEL 3
REMARK VINA RESULT:      -7.8      6.040      8.953
REMARK  Name = 
REMARK  5 active torsions:
REMARK  status: ('A' for Active; 'I' for Inactive)
REMARK    1  A    between atoms: C_5  and  O_6
REMARK    2  A    between atoms: O_6  and  C_7
REMARK    3  A    between atoms: C_7  and  C_9
REMARK    4  A    between atoms: C_9  and  C_10
REMARK    5  A    between atoms: C_9  and  C_12
REMARK                            x       y       z     vdW  Elec       q    Type
REMARK                         _______ _______ _______ _____ _____    ______ ____
ROOT
ATOM      1  O   UNL     1       1.541   5.280  -2.511  0.00  0.00    -0.452 OA
ENDROOT
BRANCH   1   9
ATOM      2  C   UNL     1      -0.392   5.736  -6.140  0.00  0.00    +0.090 C 
ATOM      3  N   UNL     1      -1.250   5.421  -5.099  0.00  0.00    -0.269 NA
ATOM      4  C   UNL     1      -0.868   6.533  -4.062  0.00  0.00    +0.091 C 
ATOM      5  C   UNL     1      -1.734   7.769  -4.893  0.00  0.00    +0.158 C 
ATOM      6  C   UNL     1      -2.726   6.825  -3.873  0.00  0.00    +0.158 C 
ATOM      7  O   UNL     1      -2.031   8.243  -3.308  0.00  0.00    -0.351 OA
ATOM      8  C   UNL     1       0.685   6.713  -4.288  0.00  0.00    +0.062 C 
ATOM      9  C   UNL     1       0.471   6.359  -2.639  0.00  0.00    +0.172 C 
ATOM     10  C   UNL     1      -0.840   5.281  -2.712  0.00  0.00    +0.062 C 
ATOM     11  C   UNL     1      -1.072   6.329  -3.875  0.00  0.00    +0.091 C 
ENDBRANCH   1   9
BRANCH   1  12
ATOM     12  C   UNL     1       2.368   5.319  -1.402  0.00  0.00    +0.323 C 
ATOM     13  O   UNL     1       1.946   4.367  -0.657  0.00  0.00    -0.250 OA
BRANCH  12  14
ATOM     14  C   UNL     1       3.945   4.994  -1.521  0.00  0.00    +0.154 C 
BRANCH  14  15
ATOM     15  C   UNL     1       4.199   5.543  -2.998  0.00  0.00    -0.009 A 
ATOM     16  C   UNL     1       4.588   6.874  -2.897  0.00  0.00    -0.004 A 
ATOM     17  C   UNL     1       4.575   7.642  -4.053  0.00  0.00    -0.000 A 
ATOM     18  C   UNL     1       4.196   6.979  -5.221  0.00  0.00    -0.000 A 
ATOM     19  C   UNL     1       4.517   5.622  -5.244  0.00  0.00    -0.000 A 
ATOM     20  C   UNL     1       4.404   4.850  -4.083  0.00  0.00    -0.004 A 
ENDBRANCH  14  15
BRANCH  14  21
ATOM     21  C   UNL     1       4.406   6.388  -0.793  0.00  0.00    +0.198 C 
ATOM     22  O   UNL     1       4.446   6.194   0.546  0.00  0.00    -0.219 OA
ENDBRANCH  14  21
ENDBRANCH  12  14
ENDBRANCH   1  12
TORSDOF 5
ENDMDL
MODEL 4
REMARK VINA RESULT:      -7.7      3.318      6.512
REMARK  Name = 
REMARK  5 active torsions:
REMARK  status: ('A' for Active; 'I' for Inactive)
REMARK    1  A    between atoms: C_5  and  O_6
REMARK    2  A    between atoms: O_6  and  C_7
REMARK    3  A    between atoms: C_7  and  C_9
REMARK    4  A    between atoms: C_9  and  C_10
REMARK    5  A    between atoms: C_9  and  C_12
REMARK                            x       y       z     vdW  Elec       q    Type
REMARK                         _______ _______ _______ _____ _____    ______ ____
ROOT
ATOM      1  O   UNL     1       3.759   5.076  -7.127  0.00  0.00    -0.452 OA
ENDROOT
BRANCH   1   9
ATOM      2  C   UNL     1       1.431   6.665  -4.100  0.00  0.00    +0.090 C 
ATOM      3  N   UNL     1       2.433   5.830  -3.638  0.00  0.00    -0.269 NA
ATOM      4  C   UNL     1       3.687   6.468  -4.328  0.00  0.00    +0.091 C 
ATOM      5  C   UNL     1       3.768   7.788  -3.225  0.00  0.00    +0.158 C 
ATOM      6  C   UNL     1       4.519   6.372  -2.634  0.00  0.00    +0.158 C 
ATOM      7  O   UNL     1       5.411   7.527  -3.462  0.00  0.00    -0.351 OA
ATOM      8  C   UNL     1       3.116   6.958  -5.718  0.00  0.00    +0.062 C 
ATOM      9  C   UNL     1       4.431   5.937  -6.064  0.00  0.00    +0.172 C 
ATOM     10  C   UNL     1       4.287   4.796  -4.814  0.00  0.00    +0.062 C 
ATOM     11  C   UNL     1       3.817   6.177  -4.200  0.00  0.00    +0.091 C 
ENDBRANCH   1   9
BRANCH   1  12
ATOM     12  C   UNL     1       4.302   5.081  -8.400  0.00  0.00    +0.323 C 
ATOM     13  O   UNL     1       3.704   4.123  -9.005  0.00  0.00    -0.250 OA
BRANCH  12  14
ATOM     14  C   UNL     1       4.071   6.325  -9.405  0.00  0.00    +0.154 C 
BRANCH  14  15
ATOM     15  C   UNL     1       5.532   6.402 -10.041  0.00  0.00    -0.009 A 
ATOM     16  C   UNL     1       5.570   7.507 -10.886  0.00  0.00    -0.004 A 
ATOM     17  C   UNL     1       6.632   7.608 -11.773  0.00  0.00    -0.000 A 
ATOM     18  C   UNL     1       7.584   6.589 -11.703  0.00  0.00    -0.000 A 
ATOM     19  C   UNL     1       7.735   6.027 -10.436  0.00  0.00    -0.000 A 
ATOM     20  C   UNL     1       6.622   5.831  -9.611  0.00  0.00    -0.004 A 
ENDBRANCH  14  15
BRANCH  14  21
ATOM     21  C   UNL     1       3.463   5.391 -10.607  0.00  0.00    +0.198 C 
ATOM     22  O   UNL     1       2.414   6.030 -11.174  0.00  0.00    -0.219 OA
ENDBRANCH  14  21
ENDBRANCH  12  14
ENDBRANCH   1  12
TORSDOF 5
ENDMDL
MODEL 5
REMARK VINA RESULT:      -7.5      2.864      6.927
REMARK  Name = 
REMARK  5 active torsions:
REMARK  status: ('A' for Active; 'I' for Inactive)
REMARK    1  A    between atoms: C_5  and  O_6
REMARK    2  A    between atoms: O_6  and  C_7
REMARK    3  A    between atoms: C_7  and  C_9
REMARK    4  A    between atoms: C_9  and  C_10
REMARK    5  A    between atoms: C_9  and  C_12
REMARK                            x       y       z     vdW  Elec       q    Type
REMARK                         _______ _______ _______ _____ _____    ______ ____
ROOT
ATOM      1  O   UNL     1       3.534   5.518  -7.279  0.00  0.00    -0.452 OA
ENDROOT
BRANCH   1   9
ATOM      2  C   UNL     1       2.116   5.635  -3.395  0.00  0.00    +0.090 C 
ATOM      3  N   UNL     1       1.702   6.711  -4.161  0.00  0.00    -0.269 NA
ATOM      4  C   UNL     1       1.080   5.969  -5.394  0.00  0.00    +0.091 C 
ATOM      5  C   UNL     1      -0.360   5.537  -4.555  0.00  0.00    +0.158 C 
ATOM      6  C   UNL     1      -0.402   7.122  -5.188  0.00  0.00    +0.158 C 
ATOM      7  O   UNL     1      -1.008   5.834  -6.077  0.00  0.00    -0.351 OA
ATOM      8  C   UNL     1       2.014   4.705  -5.555  0.00  0.00    +0.062 C 
ATOM      9  C   UNL     1       2.027   5.514  -7.051  0.00  0.00    +0.172 C 
ATOM     10  C   UNL     1       1.934   7.131  -6.539  0.00  0.00    +0.062 C 
ATOM     11  C   UNL     1       1.081   6.296  -5.500  0.00  0.00    +0.091 C 
ENDBRANCH   1   9
BRANCH   1  12
ATOM     12  C   UNL     1       3.993   5.296  -8.566  0.00  0.00    +0.323 C 
ATOM     13  O   UNL     1       3.206   4.401  -9.034  0.00  0.00    -0.250 OA
BRANCH  12  14
ATOM     14  C   UNL     1       3.917   6.451  -9.693  0.00  0.00    +0.154 C 
BRANCH  14  15
ATOM     15  C   UNL     1       5.445   6.448 -10.152  0.00  0.00    -0.009 A 
ATOM     16  C   UNL     1       5.657   7.583 -10.929  0.00  0.00    -0.004 A 
ATOM     17  C   UNL     1       6.821   7.643 -11.683  0.00  0.00    -0.000 A 
ATOM     18  C   UNL     1       7.686   6.555 -11.555  0.00  0.00    -0.000 A 
ATOM     19  C   UNL     1       7.649   5.930 -10.309  0.00  0.00    -0.000 A 
ATOM     20  C   UNL     1       6.435   5.781  -9.630  0.00  0.00    -0.004 A 
ENDBRANCH  14  15
BRANCH  14  21
ATOM     21  C   UNL     1       3.432   5.425 -10.876  0.00  0.00    +0.198 C 
ATOM     22  O   UNL     1       2.715   6.117 -11.792  0.00  0.00    -0.219 OA
ENDBRANCH  14  21
ENDBRANCH  12  14
ENDBRANCH   1  12
TORSDOF 5
ENDMDL
MODEL 6
REMARK VINA RESULT:      -7.4      1.547      1.951
REMARK  Name = 
REMARK  5 active torsions:
REMARK  status: ('A' for Active; 'I' for Inactive)
REMARK    1  A    between atoms: C_5  and  O_6
REMARK    2  A    between atoms: O_6  and  C_7
REMARK    3  A    between atoms: C_7  and  C_9
REMARK    4  A    between atoms: C_9  and  C_10
REMARK    5  A    between atoms: C_9  and  C_12
REMARK                            x       y       z     vdW  Elec       q    Type
REMARK                         _______ _______ _______ _____ _____    ______ ____
ROOT
ATOM      1  O   UNL     1       4.267   6.230  -8.995  0.00  0.00    -0.452 OA
ENDROOT
BRANCH   1   9
ATOM      2  C   UNL     1       6.595   8.565 -11.493  0.00  0.00    +0.090 C 
ATOM      3  N   UNL     1       7.324   7.621 -10.791  0.00  0.00    -0.269 NA
ATOM      4  C   UNL     1       6.532   6.316 -11.149  0.00  0.00    +0.091 C 
ATOM      5  C   UNL     1       7.205   6.202 -12.730  0.00  0.00    +0.158 C 
ATOM      6  C   UNL     1       8.215   5.541 -11.522  0.00  0.00    +0.158 C 
ATOM      7  O   UNL     1       7.126   4.568 -12.347  0.00  0.00    -0.351 OA
ATOM      8  C   UNL     1       5.037   6.820 -11.232  0.00  0.00    +0.062 C 
ATOM      9  C   UNL     1       5.061   5.548 -10.104  0.00  0.00    +0.172 C 
ATOM     10  C   UNL     1       6.582   5.787  -9.386  0.00  0.00    +0.062 C 
ATOM     11  C   UNL     1       6.746   6.205 -10.904  0.00  0.00    +0.091 C 
ENDBRANCH   1   9
BRANCH   1  12
ATOM     12  C   UNL     1       3.262   5.504  -8.380  0.00  0.00    +0.323 C 
ATOM     13  O   UNL     1       3.764   4.337  -8.221  0.00  0.00    -0.250 OA
BRANCH  12  14
ATOM     14  C   UNL     1       2.755   5.871  -6.891  0.00  0.00    +0.154 C 
BRANCH  14  15
ATOM     15  C   UNL     1       1.182   5.743  -7.127  0.00  0.00    -0.009 A 
ATOM     16  C   UNL     1       0.539   6.285  -6.019  0.00  0.00    -0.004 A 
ATOM     17  C   UNL     1      -0.814   6.019  -5.861  0.00  0.00    -0.000 A 
ATOM     18  C   UNL     1      -1.405   5.249  -6.864  0.00  0.00    -0.000 A 
ATOM     19  C   UNL     1      -0.828   5.402  -8.124  0.00  0.00    -0.000 A 
ATOM     20  C   UNL     1       0.557   5.549  -8.254  0.00  0.00    -0.004 A 
ENDBRANCH  14  15
BRANCH  14  21
ATOM     21  C   UNL     1       2.920   4.340  -6.332  0.00  0.00    +0.198 C 
ATOM     22  O   UNL     1       3.312   4.382  -5.037  0.00  0.00    -0.219 OA
ENDBRANCH  14  21
ENDBRANCH  12  14
ENDBRANCH   1  12
TORSDOF 5
ENDMDL
MODEL 7
REMARK VINA RESULT:      -7.3      4.191      7.864
REMARK  Name = 
REMARK  5 active torsions:
REMARK  status: ('A' for Active; 'I' for Inactive)
REMARK    1  A    between atoms: C_5  and  O_6
REMARK    2  A    between atoms: O_6  and  C_7
REMARK    3  A    between atoms: C_7  and  C_9
REMARK    4  A    between atoms: C_9  and  C_10
REMARK    5  A    between atoms: C_9  and  C_12
REMARK                            x       y       z     vdW  Elec       q    Type
REMARK                         _______ _______ _______ _____ _____    ______ ____
ROOT
ATOM      1  O   UNL     1       0.162   6.015  -6.911  0.00  0.00    -0.452 OA
ENDROOT
BRANCH   1   9
ATOM      2  C   UNL     1      -2.005   8.599  -4.515  0.00  0.00    +0.090 C 
ATOM      3  N   UNL     1      -2.699   7.448  -4.845  0.00  0.00    -0.269 NA
ATOM      4  C   UNL     1      -1.671   6.350  -4.400  0.00  0.00    +0.091 C 
ATOM      5  C   UNL     1      -2.029   6.530  -2.725  0.00  0.00    +0.158 C 
ATOM      6  C   UNL     1      -3.127   5.507  -3.539  0.00  0.00    +0.158 C 
ATOM      7  O   UNL     1      -1.777   4.869  -2.776  0.00  0.00    -0.351 OA
ATOM      8  C   UNL     1      -0.277   7.015  -4.731  0.00  0.00    +0.062 C 
ATOM      9  C   UNL     1      -0.312   5.524  -5.547  0.00  0.00    +0.172 C 
ATOM     10  C   UNL     1      -1.955   5.431  -5.970  0.00  0.00    +0.062 C 
ATOM     11  C   UNL     1      -1.906   6.164  -4.568  0.00  0.00    +0.091 C 
ENDBRANCH   1   9
BRANCH   1  12
ATOM     12  C   UNL     1       1.455   5.704  -7.296  0.00  0.00    +0.323 C 
ATOM     13  O   UNL     1       1.980   5.179  -6.252  0.00  0.00    -0.250 OA
BRANCH  12  14
ATOM     14  C   UNL     1       1.746   4.591  -8.429  0.00  0.00    +0.154 C 
BRANCH  14  15
ATOM     15  C   UNL     1       1.133   5.355  -9.689  0.00  0.00    -0.009 A 
ATOM     16  C   UNL     1       0.358   4.447 -10.402  0.00  0.00    -0.004 A 
ATOM     17  C   UNL     1      -0.031   4.797 -11.688  0.00  0.00    -0.000 A 
ATOM     18  C   UNL     1       0.377   6.058 -12.126  0.00  0.00    -0.000 A 
ATOM     19  C   UNL     1       0.506   7.007 -11.113  0.00  0.00    -0.000 A 
ATOM     20  C   UNL     1       1.015   6.641  -9.862  0.00  0.00    -0.004 A 
ENDBRANCH  14  15
BRANCH  14  21
ATOM     21  C   UNL     1       3.277   5.106  -8.706  0.00  0.00    +0.198 C 
ATOM     22  O   UNL     1       4.031   4.054  -9.104  0.00  0.00    -0.219 OA
ENDBRANCH  14  21
ENDBRANCH  12  14
ENDBRANCH   1  12
TORSDOF 5
ENDMDL
MODEL 8
REMARK VINA RESULT:      -7.2      4.805      8.577
REMARK  Name = 
REMARK  5 active torsions:
REMARK  status: ('A' for Active; 'I' for Inactive)
REMARK    1  A    between atoms: C_5  and  O_6
REMARK    2  A    between atoms: O_6  and  C_7
REMARK    3  A    between atoms: C_7  and  C_9
REMARK    4  A    between atoms: C_9  and  C_10
REMARK    5  A    between atoms: C_9  and  C_12
REMARK                            x       y       z     vdW  Elec       q    Type
REMARK                         _______ _______ _______ _____ _____    ______ ____
ROOT
ATOM      1  O   UNL     1       1.193   7.001  -5.779  0.00  0.00    -0.452 OA
ENDROOT
BRANCH   1   9
ATOM      2  C   UNL     1       0.019   6.076  -1.922  0.00  0.00    +0.090 C 
ATOM      3  N   UNL     1      -0.834   6.963  -2.555  0.00  0.00    -0.269 NA
ATOM      4  C   UNL     1      -1.146   6.176  -3.875  0.00  0.00    +0.091 C 
ATOM      5  C   UNL     1      -2.243   5.093  -3.107  0.00  0.00    +0.158 C 
ATOM      6  C   UNL     1      -2.962   6.579  -3.544  0.00  0.00    +0.158 C 
ATOM      7  O   UNL     1      -3.019   5.266  -4.587  0.00  0.00    -0.351 OA
ATOM      8  C   UNL     1       0.218   5.440  -4.180  0.00  0.00    +0.062 C 
ATOM      9  C   UNL     1      -0.167   6.346  -5.566  0.00  0.00    +0.172 C 
ATOM     10  C   UNL     1      -0.896   7.709  -4.863  0.00  0.00    +0.062 C 
ATOM     11  C   UNL     1      -1.285   6.483  -3.941  0.00  0.00    +0.091 C 
ENDBRANCH   1   9
BRANCH   1  12
ATOM     12  C   UNL     1       1.793   6.856  -7.018  0.00  0.00    +0.323 C 
ATOM     13  O   UNL     1       1.914   8.054  -7.454  0.00  0.00    -0.250 OA
BRANCH  12  14
ATOM     14  C   UNL     1       3.296   6.281  -7.160  0.00  0.00    +0.154 C 
BRANCH  14  15
ATOM     15  C   UNL     1       3.733   6.354  -5.627  0.00  0.00    -0.009 A 
ATOM     16  C   UNL     1       3.860   5.051  -5.157  0.00  0.00    -0.004 A 
ATOM     17  C   UNL     1       3.939   4.862  -3.785  0.00  0.00    -0.000 A 
ATOM     18  C   UNL     1       3.916   6.022  -3.008  0.00  0.00    -0.000 A 
ATOM     19  C   UNL     1       4.464   7.144  -3.629  0.00  0.00    -0.000 A 
ATOM     20  C   UNL     1       4.262   7.364  -4.995  0.00  0.00    -0.004 A 
ENDBRANCH  14  15
BRANCH  14  21
ATOM     21  C   UNL     1       2.826   4.713  -7.077  0.00  0.00    +0.198 C 
ATOM     22  O   UNL     1       2.614   4.249  -8.331  0.00  0.00    -0.219 OA
ENDBRANCH  14  21
ENDBRANCH  12  14
ENDBRANCH   1  12
TORSDOF 5
ENDMDL
MODEL 9
REMARK VINA RESULT:      -7.1      1.951      3.519
REMARK  Name = 
REMARK  5 active torsions:
REMARK  status: ('A' for Active; 'I' for Inactive)
REMARK    1  A    between atoms: C_5  and  O_6
REMARK    2  A    between atoms: O_6  and  C_7
REMARK    3  A    between atoms: C_7  and  C_9
REMARK    4  A    between atoms: C_9  and  C_10
REMARK    5  A    between atoms: C_9  and  C_12
REMARK                            x       y       z     vdW  Elec       q    Type
REMARK                         _______ _______ _______ _____ _____    ______ ____
ROOT
ATOM      1  O   UNL     1       4.601   5.955  -8.918  0.00  0.00    -0.452 OA
ENDROOT
BRANCH   1   9
ATOM      2  C   UNL     1       6.574   8.554 -11.460  0.00  0.00    +0.090 C 
ATOM      3  N   UNL     1       7.423   7.672 -10.814  0.00  0.00    -0.269 NA
ATOM      4  C   UNL     1       6.744   6.304 -11.168  0.00  0.00    +0.091 C 
ATOM      5  C   UNL     1       7.351   6.287 -12.780  0.00  0.00    +0.158 C 
ATOM      6  C   UNL     1       8.475   5.704 -11.634  0.00  0.00    +0.158 C 
ATOM      7  O   UNL     1       7.447   4.645 -12.433  0.00  0.00    -0.351 OA
ATOM      8  C   UNL     1       5.205   6.661 -11.172  0.00  0.00    +0.062 C 
ATOM      9  C   UNL     1       5.405   5.375 -10.077  0.00  0.00    +0.172 C 
ATOM     10  C   UNL     1       6.927   5.747  -9.423  0.00  0.00    +0.062 C 
ATOM     11  C   UNL     1       6.979   6.209 -10.936  0.00  0.00    +0.091 C 
ENDBRANCH   1   9
BRANCH   1  12
ATOM     12  C   UNL     1       3.783   5.096  -8.206  0.00  0.00    +0.323 C 
ATOM     13  O   UNL     1       4.554   4.581  -7.323  0.00  0.00    -0.250 OA
BRANCH  12  14
ATOM     14  C   UNL     1       2.556   5.654  -7.314  0.00  0.00    +0.154 C 
BRANCH  14  15
ATOM     15  C   UNL     1       3.294   5.732  -5.901  0.00  0.00    -0.009 A 
ATOM     16  C   UNL     1       3.654   7.057  -5.682  0.00  0.00    -0.004 A 
ATOM     17  C   UNL     1       4.563   7.322  -4.668  0.00  0.00    -0.000 A 
ATOM     18  C   UNL     1       5.004   6.215  -3.941  0.00  0.00    -0.000 A 
ATOM     19  C   UNL     1       4.075   5.181  -3.843  0.00  0.00    -0.000 A 
ATOM     20  C   UNL     1       3.254   4.863  -4.930  0.00  0.00    -0.004 A 
ENDBRANCH  14  15
BRANCH  14  21
ATOM     21  C   UNL     1       2.845   7.222  -7.690  0.00  0.00    +0.198 C 
ATOM     22  O   UNL     1       1.826   7.689  -8.449  0.00  0.00    -0.219 OA
ENDBRANCH  14  21
ENDBRANCH  12  14
ENDBRANCH   1  12
TORSDOF 5
ENDMDL
