MODEL 1
REMARK VINA RESULT:      -8.8      0.000      0.000
REMARK  Name = 
REMARK  5 active torsions:
REMARK  status: ('A' for Active; 'I' for Inactive)
REMARK    1  A    between atoms: C_2  and  C_3
REMARK    2  A    between atoms: C_10  and  C_11
REMARK    3  A    between atoms: C_11  and  C_13
REMARK    4  A    between atoms: C_13  and  C_14
REMARK    5  A    between atoms: C_14  and  C_15
REMARK                            x       y       z     vdW  Elec       q    Type
REMARK                         _______ _______ _______ _____ _____    ______ ____
ROOT
ATOM      1  C   UNL     1       3.926   6.296  -4.292  0.00  0.00    +0.031 C 
ATOM      2  C   UNL     1       2.483   6.875  -3.614  0.00  0.00    +0.005 C 
ATOM      3  C   UNL     1       1.336   6.062  -4.357  0.00  0.00    +0.000 C 
ATOM      4  C   UNL     1       0.588   5.166  -3.551  0.00  0.00    +0.003 C 
ATOM      5  C   UNL     1       0.258   5.368  -2.170  0.00  0.00    +0.033 C 
ATOM      6  C   UNL     1       1.406   6.303  -1.435  0.00  0.00    +0.152 C 
ATOM      7  O   UNL     1       1.683   5.220  -0.396  0.00  0.00    -0.223 OA
ATOM      8  C   UNL     1       0.454   7.201  -4.856  0.00  0.00    +0.000 C 
ATOM      9  C   UNL     1       1.915   5.296  -5.635  0.00  0.00    +0.002 C 
ATOM     10  C   UNL     1       2.308   6.709  -6.409  0.00  0.00    +0.030 C 
ATOM     11  C   UNL     1       2.847   5.784  -7.723  0.00  0.00    +0.002 C 
ATOM     12  C   UNL     1       1.404   5.749  -8.449  0.00  0.00    +0.000 C 
ATOM     13  C   UNL     1       0.665   4.720  -7.751  0.00  0.00    +0.000 C 
ATOM     14  C   UNL     1       0.902   7.079  -8.663  0.00  0.00    +0.000 C 
ATOM     15  C   UNL     1       2.143   5.171  -9.765  0.00  0.00    +0.000 C 
ATOM     16  C   UNL     1       2.943   6.560 -10.013  0.00  0.00    +0.000 C 
ATOM     17  C   UNL     1       3.265   7.053  -8.641  0.00  0.00    +0.000 C 
ATOM     18  C   UNL     1       0.448   5.217  -6.348  0.00  0.00    +0.000 C 
ATOM     19  C   UNL     1       2.627   5.757  -2.411  0.00  0.00    +0.033 C 
ATOM     20  C   UNL     1       3.828   7.078  -5.802  0.00  0.00    +0.152 C 
ATOM     21  O   UNL     1       4.614   5.944  -6.448  0.00  0.00    -0.223 OA
ENDROOT
BRANCH   1  23
ATOM     22  C   UNL     1       4.362   4.250  -4.302  0.00  0.00    +0.000 C 
ATOM     23  C   UNL     1       3.567   4.778  -4.645  0.00  0.00    +0.003 C 
ENDBRANCH   1  23
BRANCH  15  24
ATOM     24  C   UNL     1       0.878   5.666 -10.787  0.00  0.00    +0.001 C 
ATOM     25  C   UNL     1       0.262   4.169 -10.898  0.00  0.00    +0.000 C 
BRANCH  24  26
ATOM     26  C   UNL     1       1.794   5.480 -12.114  0.00  0.00    +0.012 C 
BRANCH  26  27
ATOM     27  C   UNL     1       0.980   6.256 -13.146  0.00  0.00    +0.114 C 
BRANCH  27  28
ATOM     28  C   UNL     1       0.832   5.472 -14.394  0.00  0.00    +0.365 C 
ATOM     29  O   UNL     1       0.654   6.189 -15.575  0.00  0.00    -0.246 OA
ATOM     30  O   UNL     1       0.670   4.226 -14.365  0.00  0.00    -0.246 OA
ENDBRANCH  27  28
ENDBRANCH  26  27
ENDBRANCH  24  26
ENDBRANCH  15  24
TORSDOF 5
ENDMDL
MODEL 2
REMARK VINA RESULT:      -8.8      1.660      7.989
REMARK  Name = 
REMARK  5 active torsions:
REMARK  status: ('A' for Active; 'I' for Inactive)
REMARK    1  A    between atoms: C_2  and  C_3
REMARK    2  A    between atoms: C_10  and  C_11
REMARK    3  A    between atoms: C_11  and  C_13
REMARK    4  A    between atoms: C_13  and  C_14
REMARK    5  A    between atoms: C_14  and  C_15
REMARK                            x       y       z     vdW  Elec       q    Type
REMARK                         _______ _______ _______ _____ _____    ______ ____
ROOT
ATOM      1  C   UNL     1       3.980   5.261 -10.367  0.00  0.00    +0.031 C 
ATOM      2  C   UNL     1       2.314   4.995 -10.545  0.00  0.00    +0.005 C 
ATOM      3  C   UNL     1       1.635   6.012  -9.526  0.00  0.00    +0.000 C 
ATOM      4  C   UNL     1       0.867   7.053 -10.107  0.00  0.00    +0.003 C 
ATOM      5  C   UNL     1       0.094   6.943 -11.310  0.00  0.00    +0.033 C 
ATOM      6  C   UNL     1       0.752   5.808 -12.315  0.00  0.00    +0.152 C 
ATOM      7  O   UNL     1       0.903   6.830 -13.439  0.00  0.00    -0.223 OA
ATOM      8  C   UNL     1       0.744   5.065  -8.729  0.00  0.00    +0.000 C 
ATOM      9  C   UNL     1       2.719   6.624  -8.524  0.00  0.00    +0.002 C 
ATOM     10  C   UNL     1       3.045   5.148  -7.840  0.00  0.00    +0.030 C 
ATOM     11  C   UNL     1       4.134   5.924  -6.798  0.00  0.00    +0.002 C 
ATOM     12  C   UNL     1       3.021   6.238  -5.669  0.00  0.00    +0.000 C 
ATOM     13  C   UNL     1       2.321   7.406  -6.156  0.00  0.00    +0.000 C 
ATOM     14  C   UNL     1       2.359   5.033  -5.250  0.00  0.00    +0.000 C 
ATOM     15  C   UNL     1       4.228   6.633  -4.670  0.00  0.00    +0.000 C 
ATOM     16  C   UNL     1       4.776   5.108  -4.613  0.00  0.00    +0.000 C 
ATOM     17  C   UNL     1       4.556   4.582  -5.993  0.00  0.00    +0.000 C 
ATOM     18  C   UNL     1       1.588   6.985  -7.401  0.00  0.00    +0.000 C 
ATOM     19  C   UNL     1       2.297   6.081 -11.785  0.00  0.00    +0.033 C 
ATOM     20  C   UNL     1       4.200   4.490  -8.863  0.00  0.00    +0.152 C 
ATOM     21  O   UNL     1       5.354   5.432  -8.543  0.00  0.00    -0.223 OA
ENDROOT
BRANCH   1  23
ATOM     22  C   UNL     1       4.797   7.174 -10.581  0.00  0.00    +0.000 C 
ATOM     23  C   UNL     1       4.053   6.814  -9.993  0.00  0.00    +0.003 C 
ENDBRANCH   1  23
BRANCH  15  24
ATOM     24  C   UNL     1       3.268   6.387  -3.289  0.00  0.00    +0.001 C 
ATOM     25  C   UNL     1       3.345   7.947  -2.849  0.00  0.00    +0.000 C 
BRANCH  24  26
ATOM     26  C   UNL     1       4.558   5.982  -2.389  0.00  0.00    +0.012 C 
BRANCH  26  27
ATOM     27  C   UNL     1       3.921   5.842  -1.009  0.00  0.00    +0.114 C 
BRANCH  27  28
ATOM     28  C   UNL     1       3.166   4.572  -0.907  0.00  0.00    +0.365 C 
ATOM     29  O   UNL     1       1.789   4.667  -0.716  0.00  0.00    -0.246 OA
ATOM     30  O   UNL     1       3.758   3.468  -0.792  0.00  0.00    -0.246 OA
ENDBRANCH  27  28
ENDBRANCH  26  27
ENDBRANCH  24  26
ENDBRANCH  15  24
TORSDOF 5
ENDMDL
MODEL 3
REMARK VINA RESULT:      -8.6      1.712      8.436
REMARK  Name = 
REMARK  5 active torsions:
REMARK  status: ('A' for Active; 'I' for Inactive)
REMARK    1  A    between atoms: C_2  and  C_3
REMARK    2  A    between atoms: C_10  and  C_11
REMARK    3  A    between atoms: C_11  and  C_13
REMARK    4  A    between atoms: C_13  and  C_14
REMARK    5  A    between atoms: C_14  and  C_15
REMARK                            x       y       z     vdW  Elec       q    Type
REMARK                         _______ _______ _______ _____ _____    ______ ____
ROOT
ATOM      1  C   UNL     1       0.600   5.992 -10.736  0.00  0.00    +0.031 C 
ATOM      2  C   UNL     1       1.982   6.668 -11.450  0.00  0.00    +0.005 C 
ATOM      3  C   UNL     1       3.202   5.992 -10.684  0.00  0.00    +0.000 C 
ATOM      4  C   UNL     1       4.022   5.133 -11.460  0.00  0.00    +0.003 C 
ATOM      5  C   UNL     1       4.325   5.306 -12.851  0.00  0.00    +0.033 C 
ATOM      6  C   UNL     1       3.094   6.104 -13.613  0.00  0.00    +0.152 C 
ATOM      7  O   UNL     1       2.909   4.957 -14.604  0.00  0.00    -0.223 OA
ATOM      8  C   UNL     1       3.981   7.225 -10.241  0.00  0.00    +0.000 C 
ATOM      9  C   UNL     1       2.700   5.232  -9.371  0.00  0.00    +0.002 C 
ATOM     10  C   UNL     1       2.186   6.636  -8.652  0.00  0.00    +0.030 C 
ATOM     11  C   UNL     1       1.739   5.722  -7.296  0.00  0.00    +0.002 C 
ATOM     12  C   UNL     1       3.184   5.846  -6.582  0.00  0.00    +0.000 C 
ATOM     13  C   UNL     1       4.007   4.858  -7.244  0.00  0.00    +0.000 C 
ATOM     14  C   UNL     1       3.566   7.223  -6.428  0.00  0.00    +0.000 C 
ATOM     15  C   UNL     1       2.506   5.260  -5.238  0.00  0.00    +0.000 C 
ATOM     16  C   UNL     1       1.586   6.581  -5.040  0.00  0.00    +0.000 C 
ATOM     17  C   UNL     1       1.214   6.986  -6.427  0.00  0.00    +0.000 C 
ATOM     18  C   UNL     1       4.172   5.314  -8.669  0.00  0.00    +0.000 C 
ATOM     19  C   UNL     1       1.932   5.492 -12.604  0.00  0.00    +0.033 C 
ATOM     20  C   UNL     1       0.636   6.842  -9.260  0.00  0.00    +0.152 C 
ATOM     21  O   UNL     1      -0.042   5.670  -8.561  0.00  0.00    -0.223 OA
ENDROOT
BRANCH   1  23
ATOM     22  C   UNL     1       0.338   3.920 -10.617  0.00  0.00    +0.000 C 
ATOM     23  C   UNL     1       1.095   4.528 -10.323  0.00  0.00    +0.003 C 
ENDBRANCH   1  23
BRANCH  15  24
ATOM     24  C   UNL     1       3.728   5.908  -4.249  0.00  0.00    +0.001 C 
ATOM     25  C   UNL     1       4.497   4.485  -4.114  0.00  0.00    +0.000 C 
BRANCH  24  26
ATOM     26  C   UNL     1       2.855   5.660  -2.902  0.00  0.00    +0.012 C 
BRANCH  26  27
ATOM     27  C   UNL     1       3.623   6.508  -1.892  0.00  0.00    +0.114 C 
BRANCH  27  28
ATOM     28  C   UNL     1       3.917   5.727  -0.669  0.00  0.00    +0.365 C 
ATOM     29  O   UNL     1       3.560   4.379  -0.675  0.00  0.00    -0.246 OA
ATOM     30  O   UNL     1       4.280   6.292   0.394  0.00  0.00    -0.246 OA
ENDBRANCH  27  28
ENDBRANCH  26  27
ENDBRANCH  24  26
ENDBRANCH  15  24
TORSDOF 5
ENDMDL
MODEL 4
REMARK VINA RESULT:      -8.5      1.693      3.182
REMARK  Name = 
REMARK  5 active torsions:
REMARK  status: ('A' for Active; 'I' for Inactive)
REMARK    1  A    between atoms: C_2  and  C_3
REMARK    2  A    between atoms: C_10  and  C_11
REMARK    3  A    between atoms: C_11  and  C_13
REMARK    4  A    between atoms: C_13  and  C_14
REMARK    5  A    between atoms: C_14  and  C_15
REMARK                            x       y       z     vdW  Elec       q    Type
REMARK                         _______ _______ _______ _____ _____    ______ ____
ROOT
ATOM      1  C   UNL     1       1.169   5.138  -4.686  0.00  0.00    +0.031 C 
ATOM      2  C   UNL     1       2.861   5.165  -4.575  0.00  0.00    +0.005 C 
ATOM      3  C   UNL     1       3.316   6.247  -5.649  0.00  0.00    +0.000 C 
ATOM      4  C   UNL     1       3.918   7.422  -5.129  0.00  0.00    +0.003 C 
ATOM      5  C   UNL     1       4.744   7.484  -3.958  0.00  0.00    +0.033 C 
ATOM      6  C   UNL     1       4.329   6.288  -2.896  0.00  0.00    +0.152 C 
ATOM      7  O   UNL     1       4.050   7.306  -1.794  0.00  0.00    -0.223 OA
ATOM      8  C   UNL     1       4.325   5.440  -6.459  0.00  0.00    +0.000 C 
ATOM      9  C   UNL     1       2.106   6.634  -6.618  0.00  0.00    +0.002 C 
ATOM     10  C   UNL     1       2.010   5.102  -7.248  0.00  0.00    +0.030 C 
ATOM     11  C   UNL     1       0.764   5.648  -8.261  0.00  0.00    +0.002 C 
ATOM     12  C   UNL     1       1.763   6.109  -9.446  0.00  0.00    +0.000 C 
ATOM     13  C   UNL     1       2.272   7.394  -9.020  0.00  0.00    +0.000 C 
ATOM     14  C   UNL     1       2.604   5.020  -9.862  0.00  0.00    +0.000 C 
ATOM     15  C   UNL     1       0.468   6.261 -10.400  0.00  0.00    +0.000 C 
ATOM     16  C   UNL     1       0.186   4.663 -10.394  0.00  0.00    +0.000 C 
ATOM     17  C   UNL     1       0.547   4.228  -9.012  0.00  0.00    +0.000 C 
ATOM     18  C   UNL     1       3.113   7.145  -7.798  0.00  0.00    +0.000 C 
ATOM     19  C   UNL     1       2.741   6.277  -3.365  0.00  0.00    +0.033 C 
ATOM     20  C   UNL     1       1.025   4.292  -6.158  0.00  0.00    +0.152 C 
ATOM     21  O   UNL     1      -0.284   5.013  -6.452  0.00  0.00    -0.223 OA
ENDROOT
BRANCH   1  23
ATOM     22  C   UNL     1       0.028   6.881  -4.506  0.00  0.00    +0.000 C 
ATOM     23  C   UNL     1       0.817   6.643  -5.097  0.00  0.00    +0.003 C 
ENDBRANCH   1  23
BRANCH  15  24
ATOM     24  C   UNL     1       1.401   6.136 -11.815  0.00  0.00    +0.001 C 
ATOM     25  C   UNL     1       0.831   7.529 -12.421  0.00  0.00    +0.000 C 
BRANCH  24  26
ATOM     26  C   UNL     1       0.264   5.248 -12.561  0.00  0.00    +0.012 C 
BRANCH  26  27
ATOM     27  C   UNL     1       0.919   5.011 -13.919  0.00  0.00    +0.114 C 
BRANCH  27  28
ATOM     28  C   UNL     1       0.588   3.661 -14.430  0.00  0.00    +0.365 C 
ATOM     29  O   UNL     1       1.602   2.705 -14.400  0.00  0.00    -0.246 OA
ATOM     30  O   UNL     1      -0.485   3.443 -15.049  0.00  0.00    -0.246 OA
ENDBRANCH  27  28
ENDBRANCH  26  27
ENDBRANCH  24  26
ENDBRANCH  15  24
TORSDOF 5
ENDMDL
MODEL 5
REMARK VINA RESULT:      -8.5      2.660      4.547
REMARK  Name = 
REMARK  5 active torsions:
REMARK  status: ('A' for Active; 'I' for Inactive)
REMARK    1  A    between atoms: C_2  and  C_3
REMARK    2  A    between atoms: C_10  and  C_11
REMARK    3  A    between atoms: C_11  and  C_13
REMARK    4  A    between atoms: C_13  and  C_14
REMARK    5  A    between atoms: C_14  and  C_15
REMARK                            x       y       z     vdW  Elec       q    Type
REMARK                         _______ _______ _______ _____ _____    ______ ____
ROOT
ATOM      1  C   UNL     1      -2.701   6.752  -3.659  0.00  0.00    +0.031 C 
ATOM      2  C   UNL     1      -2.020   5.887  -2.368  0.00  0.00    +0.005 C 
ATOM      3  C   UNL     1      -0.454   6.143  -2.496  0.00  0.00    +0.000 C 
ATOM      4  C   UNL     1       0.139   6.893  -1.449  0.00  0.00    +0.003 C 
ATOM      5  C   UNL     1      -0.263   6.861  -0.073  0.00  0.00    +0.033 C 
ATOM      6  C   UNL     1      -1.869   6.490   0.050  0.00  0.00    +0.152 C 
ATOM      7  O   UNL     1      -2.151   7.781   0.814  0.00  0.00    -0.223 OA
ATOM      8  C   UNL     1       0.071   4.711  -2.498  0.00  0.00    +0.000 C 
ATOM      9  C   UNL     1      -0.097   6.797  -3.910  0.00  0.00    +0.002 C 
ATOM     10  C   UNL     1      -0.601   5.460  -4.752  0.00  0.00    +0.030 C 
ATOM     11  C   UNL     1      -0.137   6.243  -6.182  0.00  0.00    +0.002 C 
ATOM     12  C   UNL     1       1.380   5.685  -6.140  0.00  0.00    +0.000 C 
ATOM     13  C   UNL     1       2.061   6.542  -5.194  0.00  0.00    +0.000 C 
ATOM     14  C   UNL     1       1.398   4.250  -6.066  0.00  0.00    +0.000 C 
ATOM     15  C   UNL     1       1.554   6.207  -7.659  0.00  0.00    +0.000 C 
ATOM     16  C   UNL     1       0.494   5.120  -8.230  0.00  0.00    +0.000 C 
ATOM     17  C   UNL     1      -0.547   5.020  -7.164  0.00  0.00    +0.000 C 
ATOM     18  C   UNL     1       1.449   6.275  -3.846  0.00  0.00    +0.000 C 
ATOM     19  C   UNL     1      -2.250   7.199  -1.398  0.00  0.00    +0.033 C 
ATOM     20  C   UNL     1      -2.251   5.708  -4.929  0.00  0.00    +0.152 C 
ATOM     21  O   UNL     1      -2.203   6.890  -5.890  0.00  0.00    -0.223 OA
ENDROOT
BRANCH   1  23
ATOM     22  C   UNL     1      -2.295   8.753  -4.110  0.00  0.00    +0.000 C 
ATOM     23  C   UNL     1      -1.696   7.985  -3.829  0.00  0.00    +0.003 C 
ENDBRANCH   1  23
BRANCH  15  24
ATOM     24  C   UNL     1       2.857   5.157  -7.952  0.00  0.00    +0.001 C 
ATOM     25  C   UNL     1       3.965   6.312  -7.683  0.00  0.00    +0.000 C 
BRANCH  24  26
ATOM     26  C   UNL     1       2.815   5.450  -9.548  0.00  0.00    +0.012 C 
BRANCH  26  27
ATOM     27  C   UNL     1       4.204   4.980  -9.971  0.00  0.00    +0.114 C 
BRANCH  27  28
ATOM     28  C   UNL     1       4.651   5.696 -11.188  0.00  0.00    +0.365 C 
ATOM     29  O   UNL     1       4.768   7.082 -11.101  0.00  0.00    -0.246 OA
ATOM     30  O   UNL     1       4.722   5.112 -12.300  0.00  0.00    -0.246 OA
ENDBRANCH  27  28
ENDBRANCH  26  27
ENDBRANCH  24  26
ENDBRANCH  15  24
TORSDOF 5
ENDMDL
MODEL 6
REMARK VINA RESULT:      -8.5      1.755      3.287
REMARK  Name = 
REMARK  5 active torsions:
REMARK  status: ('A' for Active; 'I' for Inactive)
REMARK    1  A    between atoms: C_2  and  C_3
REMARK    2  A    between atoms: C_10  and  C_11
REMARK    3  A    between atoms: C_11  and  C_13
REMARK    4  A    between atoms: C_13  and  C_14
REMARK    5  A    between atoms: C_14  and  C_15
REMARK                            x       y       z     vdW  Elec       q    Type
REMARK                         _______ _______ _______ _____ _____    ______ ____
ROOT
ATOM      1  C   UNL     1      -1.040   5.797  -4.718  0.00  0.00    +0.031 C 
ATOM      2  C   UNL     1       0.172   5.122  -3.742  0.00  0.00    +0.005 C 
ATOM      3  C   UNL     1       1.516   5.812  -4.238  0.00  0.00    +0.000 C 
ATOM      4  C   UNL     1       2.155   6.669  -3.305  0.00  0.00    +0.003 C 
ATOM      5  C   UNL     1       2.170   6.485  -1.883  0.00  0.00    +0.033 C 
ATOM      6  C   UNL     1       0.816   5.673  -1.393  0.00  0.00    +0.152 C 
ATOM      7  O   UNL     1       0.424   6.809  -0.452  0.00  0.00    -0.223 OA
ATOM      8  C   UNL     1       2.379   4.587  -4.522  0.00  0.00    +0.000 C 
ATOM      9  C   UNL     1       1.287   6.581  -5.620  0.00  0.00    +0.002 C 
ATOM     10  C   UNL     1       0.941   5.181  -6.439  0.00  0.00    +0.030 C 
ATOM     11  C   UNL     1       0.772   6.105  -7.851  0.00  0.00    +0.002 C 
ATOM     12  C   UNL     1       2.333   5.996  -8.256  0.00  0.00    +0.000 C 
ATOM     13  C   UNL     1       2.997   6.982  -7.433  0.00  0.00    +0.000 C 
ATOM     14  C   UNL     1       2.749   4.622  -8.340  0.00  0.00    +0.000 C 
ATOM     15  C   UNL     1       1.939   6.590  -9.706  0.00  0.00    +0.000 C 
ATOM     16  C   UNL     1       1.089   5.265 -10.098  0.00  0.00    +0.000 C 
ATOM     17  C   UNL     1       0.445   4.845  -8.818  0.00  0.00    +0.000 C 
ATOM     18  C   UNL     1       2.872   6.514  -6.009  0.00  0.00    +0.000 C 
ATOM     19  C   UNL     1      -0.121   6.287  -2.613  0.00  0.00    +0.033 C 
ATOM     20  C   UNL     1      -0.699   4.960  -6.162  0.00  0.00    +0.152 C 
ATOM     21  O   UNL     1      -1.229   6.134  -6.975  0.00  0.00    -0.223 OA
ENDROOT
BRANCH   1  23
ATOM     22  C   UNL     1      -1.270   7.874  -4.805  0.00  0.00    +0.000 C 
ATOM     23  C   UNL     1      -0.483   7.267  -5.009  0.00  0.00    +0.003 C 
ENDBRANCH   1  23
BRANCH  15  24
ATOM     24  C   UNL     1       3.341   5.958 -10.431  0.00  0.00    +0.001 C 
ATOM     25  C   UNL     1       4.118   7.382 -10.377  0.00  0.00    +0.000 C 
BRANCH  24  26
ATOM     26  C   UNL     1       2.767   6.231 -11.925  0.00  0.00    +0.012 C 
BRANCH  26  27
ATOM     27  C   UNL     1       3.781   5.470 -12.774  0.00  0.00    +0.114 C 
BRANCH  27  28
ATOM     28  C   UNL     1       3.290   5.315 -14.163  0.00  0.00    +0.365 C 
ATOM     29  O   UNL     1       2.685   4.102 -14.490  0.00  0.00    -0.246 OA
ATOM     30  O   UNL     1       3.586   6.149 -15.056  0.00  0.00    -0.246 OA
ENDBRANCH  27  28
ENDBRANCH  26  27
ENDBRANCH  24  26
ENDBRANCH  15  24
TORSDOF 5
ENDMDL
MODEL 7
REMARK VINA RESULT:      -8.5      2.177      3.544
REMARK  Name = 
REMARK  5 active torsions:
REMARK  status: ('A' for Active; 'I' for Inactive)
REMARK    1  A    between atoms: C_2  and  C_3
REMARK    2  A    between atoms: C_10  and  C_11
REMARK    3  A    between atoms: C_11  and  C_13
REMARK    4  A    between atoms: C_13  and  C_14
REMARK    5  A    between atoms: C_14  and  C_15
REMARK                            x       y       z     vdW  Elec       q    Type
REMARK                         _______ _______ _______ _____ _____    ______ ____
ROOT
ATOM      1  C   UNL     1      -0.300   5.530  -4.971  0.00  0.00    +0.031 C 
ATOM      2  C   UNL     1       0.969   4.992  -3.982  0.00  0.00    +0.005 C 
ATOM      3  C   UNL     1       2.252   5.763  -4.522  0.00  0.00    +0.000 C 
ATOM      4  C   UNL     1       2.831   6.704  -3.632  0.00  0.00    +0.003 C 
ATOM      5  C   UNL     1       2.871   6.581  -2.204  0.00  0.00    +0.033 C 
ATOM      6  C   UNL     1       1.589   5.689  -1.666  0.00  0.00    +0.152 C 
ATOM      7  O   UNL     1       1.119   6.830  -0.768  0.00  0.00    -0.223 OA
ATOM      8  C   UNL     1       3.205   4.597  -4.766  0.00  0.00    +0.000 C 
ATOM      9  C   UNL     1       1.952   6.454  -5.931  0.00  0.00    +0.002 C 
ATOM     10  C   UNL     1       1.709   4.998  -6.689  0.00  0.00    +0.030 C 
ATOM     11  C   UNL     1       1.457   5.846  -8.135  0.00  0.00    +0.002 C 
ATOM     12  C   UNL     1       3.018   5.841  -8.554  0.00  0.00    +0.000 C 
ATOM     13  C   UNL     1       3.611   6.909  -7.779  0.00  0.00    +0.000 C 
ATOM     14  C   UNL     1       3.538   4.501  -8.586  0.00  0.00    +0.000 C 
ATOM     15  C   UNL     1       2.567   6.342 -10.022  0.00  0.00    +0.000 C 
ATOM     16  C   UNL     1       1.819   4.940 -10.349  0.00  0.00    +0.000 C 
ATOM     17  C   UNL     1       1.220   4.526  -9.046  0.00  0.00    +0.000 C 
ATOM     18  C   UNL     1       3.534   6.493  -6.336  0.00  0.00    +0.000 C 
ATOM     19  C   UNL     1       0.597   6.177  -2.899  0.00  0.00    +0.033 C 
ATOM     20  C   UNL     1       0.094   4.663  -6.384  0.00  0.00    +0.152 C 
ATOM     21  O   UNL     1      -0.533   5.758  -7.238  0.00  0.00    -0.223 OA
ENDROOT
BRANCH   1  23
ATOM     22  C   UNL     1      -0.684   7.581  -5.122  0.00  0.00    +0.000 C 
ATOM     23  C   UNL     1       0.140   7.026  -5.329  0.00  0.00    +0.003 C 
ENDBRANCH   1  23
BRANCH  15  24
ATOM     24  C   UNL     1       4.008   5.790 -10.737  0.00  0.00    +0.001 C 
ATOM     25  C   UNL     1       4.718   7.246 -10.639  0.00  0.00    +0.000 C 
BRANCH  24  26
ATOM     26  C   UNL     1       3.446   6.071 -12.234  0.00  0.00    +0.012 C 
BRANCH  26  27
ATOM     27  C   UNL     1       4.159   4.979 -13.026  0.00  0.00    +0.114 C 
BRANCH  27  28
ATOM     28  C   UNL     1       5.429   5.488 -13.593  0.00  0.00    +0.365 C 
ATOM     29  O   UNL     1       6.611   4.956 -13.078  0.00  0.00    -0.246 OA
ATOM     30  O   UNL     1       5.450   6.492 -14.349  0.00  0.00    -0.246 OA
ENDBRANCH  27  28
ENDBRANCH  26  27
ENDBRANCH  24  26
ENDBRANCH  15  24
TORSDOF 5
ENDMDL
MODEL 8
REMARK VINA RESULT:      -8.0      1.620      7.949
REMARK  Name = 
REMARK  5 active torsions:
REMARK  status: ('A' for Active; 'I' for Inactive)
REMARK    1  A    between atoms: C_2  and  C_3
REMARK    2  A    between atoms: C_10  and  C_11
REMARK    3  A    between atoms: C_11  and  C_13
REMARK    4  A    between atoms: C_13  and  C_14
REMARK    5  A    between atoms: C_14  and  C_15
REMARK                            x       y       z     vdW  Elec       q    Type
REMARK                         _______ _______ _______ _____ _____    ______ ____
ROOT
ATOM      1  C   UNL     1       4.333   5.275 -10.511  0.00  0.00    +0.031 C 
ATOM      2  C   UNL     1       3.024   4.738 -11.447  0.00  0.00    +0.005 C 
ATOM      3  C   UNL     1       1.778   5.566 -10.906  0.00  0.00    +0.000 C 
ATOM      4  C   UNL     1       1.204   6.490 -11.817  0.00  0.00    +0.003 C 
ATOM      5  C   UNL     1       1.124   6.314 -13.238  0.00  0.00    +0.033 C 
ATOM      6  C   UNL     1       2.366   5.365 -13.772  0.00  0.00    +0.152 C 
ATOM      7  O   UNL     1       2.845   6.456 -14.725  0.00  0.00    -0.223 OA
ATOM      8  C   UNL     1       0.799   4.439 -10.593  0.00  0.00    +0.000 C 
ATOM      9  C   UNL     1       2.134   6.300  -9.532  0.00  0.00    +0.002 C 
ATOM     10  C   UNL     1       2.354   4.868  -8.725  0.00  0.00    +0.030 C 
ATOM     11  C   UNL     1       2.668   5.763  -7.319  0.00  0.00    +0.002 C 
ATOM     12  C   UNL     1       1.118   5.819  -6.862  0.00  0.00    +0.000 C 
ATOM     13  C   UNL     1       0.537   6.874  -7.663  0.00  0.00    +0.000 C 
ATOM     14  C   UNL     1       0.561   4.498  -6.766  0.00  0.00    +0.000 C 
ATOM     15  C   UNL     1       1.621   6.362  -5.426  0.00  0.00    +0.000 C 
ATOM     16  C   UNL     1       2.337   4.952  -5.064  0.00  0.00    +0.000 C 
ATOM     17  C   UNL     1       2.890   4.471  -6.364  0.00  0.00    +0.000 C 
ATOM     18  C   UNL     1       0.565   6.402  -9.091  0.00  0.00    +0.000 C 
ATOM     19  C   UNL     1       3.402   5.869 -12.584  0.00  0.00    +0.033 C 
ATOM     20  C   UNL     1       3.951   4.474  -9.057  0.00  0.00    +0.152 C 
ATOM     21  O   UNL     1       4.631   5.581  -8.261  0.00  0.00    -0.223 OA
ENDROOT
BRANCH   1  23
ATOM     22  C   UNL     1       4.768   7.321 -10.478  0.00  0.00    +0.000 C 
ATOM     23  C   UNL     1       3.946   6.796 -10.200  0.00  0.00    +0.003 C 
ENDBRANCH   1  23
BRANCH  15  24
ATOM     24  C   UNL     1       0.184   5.881  -4.656  0.00  0.00    +0.001 C 
ATOM     25  C   UNL     1      -0.492   7.349  -4.804  0.00  0.00    +0.000 C 
BRANCH  24  26
ATOM     26  C   UNL     1       0.787   6.214  -3.186  0.00  0.00    +0.012 C 
BRANCH  26  27
ATOM     27  C   UNL     1       0.132   5.122  -2.344  0.00  0.00    +0.114 C 
BRANCH  27  28
ATOM     28  C   UNL     1      -1.117   5.619  -1.722  0.00  0.00    +0.365 C 
ATOM     29  O   UNL     1      -2.289   4.923  -2.011  0.00  0.00    -0.246 OA
ATOM     30  O   UNL     1      -1.155   6.729  -1.133  0.00  0.00    -0.246 OA
ENDBRANCH  27  28
ENDBRANCH  26  27
ENDBRANCH  24  26
ENDBRANCH  15  24
TORSDOF 5
ENDMDL
MODEL 9
REMARK VINA RESULT:      -7.8      2.828      3.752
REMARK  Name = 
REMARK  5 active torsions:
REMARK  status: ('A' for Active; 'I' for Inactive)
REMARK    1  A    between atoms: C_2  and  C_3
REMARK    2  A    between atoms: C_10  and  C_11
REMARK    3  A    between atoms: C_11  and  C_13
REMARK    4  A    between atoms: C_13  and  C_14
REMARK    5  A    between atoms: C_14  and  C_15
REMARK                            x       y       z     vdW  Elec       q    Type
REMARK                         _______ _______ _______ _____ _____    ______ ____
ROOT
ATOM      1  C   UNL     1       1.841   6.534  -1.435  0.00  0.00    +0.031 C 
ATOM      2  C   UNL     1       0.304   7.164  -1.780  0.00  0.00    +0.005 C 
ATOM      3  C   UNL     1      -0.240   6.259  -2.971  0.00  0.00    +0.000 C 
ATOM      4  C   UNL     1      -1.362   5.445  -2.669  0.00  0.00    +0.003 C 
ATOM      5  C   UNL     1      -2.419   5.790  -1.764  0.00  0.00    +0.033 C 
ATOM      6  C   UNL     1      -1.863   6.814  -0.592  0.00  0.00    +0.152 C 
ATOM      7  O   UNL     1      -2.295   5.852   0.512  0.00  0.00    -0.223 OA
ATOM      8  C   UNL     1      -0.611   7.327  -3.995  0.00  0.00    +0.000 C 
ATOM      9  C   UNL     1       0.932   5.369  -3.594  0.00  0.00    +0.002 C 
ATOM     10  C   UNL     1       1.772   6.696  -4.126  0.00  0.00    +0.030 C 
ATOM     11  C   UNL     1       2.925   5.643  -4.786  0.00  0.00    +0.002 C 
ATOM     12  C   UNL     1       2.169   5.511  -6.209  0.00  0.00    +0.000 C 
ATOM     13  C   UNL     1       1.111   4.553  -5.976  0.00  0.00    +0.000 C 
ATOM     14  C   UNL     1       1.953   6.803  -6.799  0.00  0.00    +0.000 C 
ATOM     15  C   UNL     1       3.502   4.805  -6.787  0.00  0.00    +0.000 C 
ATOM     16  C   UNL     1       4.369   6.170  -6.655  0.00  0.00    +0.000 C 
ATOM     17  C   UNL     1       3.862   6.812  -5.406  0.00  0.00    +0.000 C 
ATOM     18  C   UNL     1       0.147   5.194  -5.016  0.00  0.00    +0.000 C 
ATOM     19  C   UNL     1      -0.333   6.183  -0.619  0.00  0.00    +0.033 C 
ATOM     20  C   UNL     1       2.677   7.149  -2.787  0.00  0.00    +0.152 C 
ATOM     21  O   UNL     1       3.632   5.963  -2.744  0.00  0.00    -0.223 OA
ENDROOT
BRANCH   1  23
ATOM     22  C   UNL     1       2.054   4.506  -0.974  0.00  0.00    +0.000 C 
ATOM     23  C   UNL     1       1.676   4.983  -1.785  0.00  0.00    +0.003 C 
ENDBRANCH   1  23
BRANCH  15  24
ATOM     24  C   UNL     1       3.090   5.171  -8.395  0.00  0.00    +0.001 C 
ATOM     25  C   UNL     1       2.555   3.668  -8.694  0.00  0.00    +0.000 C 
BRANCH  24  26
ATOM     26  C   UNL     1       4.589   4.832  -8.922  0.00  0.00    +0.012 C 
BRANCH  26  27
ATOM     27  C   UNL     1       4.566   5.473 -10.307  0.00  0.00    +0.114 C 
BRANCH  27  28
ATOM     28  C   UNL     1       5.639   6.486 -10.433  0.00  0.00    +0.365 C 
ATOM     29  O   UNL     1       6.852   6.206  -9.806  0.00  0.00    -0.246 OA
ATOM     30  O   UNL     1       5.405   7.628 -10.903  0.00  0.00    -0.246 OA
ENDBRANCH  27  28
ENDBRANCH  26  27
ENDBRANCH  24  26
ENDBRANCH  15  24
TORSDOF 5
ENDMDL
