MODEL 1
REMARK VINA RESULT:      -5.8      0.000      0.000
REMARK  Name = 
REMARK  9 active torsions:
REMARK  status: ('A' for Active; 'I' for Inactive)
REMARK    1  A    between atoms: C_2  and  C_3
REMARK    2  A    between atoms: C_3  and  C_4
REMARK    3  A    between atoms: C_4  and  C_5
REMARK    4  A    between atoms: C_5  and  N_6
REMARK    5  A    between atoms: N_6  and  C_8
REMARK    6  A    between atoms: C_8  and  C_9
REMARK    7  A    between atoms: C_9  and  C_10
REMARK    8  A    between atoms: C_10  and  P_12
REMARK    9  A    between atoms: C_10  and  P_16
REMARK                            x       y       z     vdW  Elec       q    Type
REMARK                         _______ _______ _______ _____ _____    ______ ____
ROOT
ATOM      1  C   UNL     1       2.423   5.106  -8.389  0.00  0.00    +0.217 C 
ATOM      2  O   UNL     1       2.546   3.735  -8.664  0.00  0.00    -0.211 OA
ENDROOT
BRANCH   1   3
ATOM      3  P   UNL     1       0.876   5.643  -9.189  0.00  0.00    +0.151 P 
ATOM      4  O   UNL     1       0.642   4.637 -10.536  0.00  0.00    -0.355 OA
ATOM      5  O   UNL     1      -0.420   5.477  -8.135  0.00  0.00    -0.355 OA
ATOM      6  O   UNL     1       1.050   7.048  -9.694  0.00  0.00    -0.457 OA
ENDBRANCH   1   3
BRANCH   1   7
ATOM      7  P   UNL     1       2.342   5.270  -6.601  0.00  0.00    +0.151 P 
ATOM      8  O   UNL     1       1.799   6.815  -6.232  0.00  0.00    -0.355 OA
ATOM      9  O   UNL     1       1.394   4.094  -5.870  0.00  0.00    -0.355 OA
ATOM     10  O   UNL     1       3.758   5.123  -6.072  0.00  0.00    -0.457 OA
ENDBRANCH   1   7
BRANCH   1  11
ATOM     11  C   UNL     1       3.601   5.800  -9.002  0.00  0.00    +0.062 C 
BRANCH  11  12
ATOM     12  C   UNL     1       4.312   4.998 -10.051  0.00  0.00    +0.076 C 
BRANCH  12  13
ATOM     13  N   UNL     1       4.608   5.864 -11.165  0.00  0.00    -0.271 NA
ATOM     14  C   UNL     1       3.514   6.011 -12.089  0.00  0.00    +0.090 C 
BRANCH  13  15
ATOM     15  C   UNL     1       5.049   7.177 -10.774  0.00  0.00    +0.072 C 
BRANCH  15  16
ATOM     16  C   UNL     1       6.391   7.557 -11.325  0.00  0.00    +0.017 C 
BRANCH  16  17
ATOM     17  C   UNL     1       7.548   7.033 -10.523  0.00  0.00    +0.001 C 
BRANCH  17  19
ATOM     18  C   UNL     1       8.620   5.945 -12.454  0.00  0.00    +0.000 C 
ATOM     19  C   UNL     1       8.085   5.723 -11.047  0.00  0.00    +0.000 C 
ENDBRANCH  17  19
ENDBRANCH  16  17
ENDBRANCH  15  16
ENDBRANCH  13  15
ENDBRANCH  12  13
ENDBRANCH  11  12
ENDBRANCH   1  11
TORSDOF 9
ENDMDL
MODEL 2
REMARK VINA RESULT:      -5.7      1.559      2.078
REMARK  Name = 
REMARK  9 active torsions:
REMARK  status: ('A' for Active; 'I' for Inactive)
REMARK    1  A    between atoms: C_2  and  C_3
REMARK    2  A    between atoms: C_3  and  C_4
REMARK    3  A    between atoms: C_4  and  C_5
REMARK    4  A    between atoms: C_5  and  N_6
REMARK    5  A    between atoms: N_6  and  C_8
REMARK    6  A    between atoms: C_8  and  C_9
REMARK    7  A    between atoms: C_9  and  C_10
REMARK    8  A    between atoms: C_10  and  P_12
REMARK    9  A    between atoms: C_10  and  P_16
REMARK                            x       y       z     vdW  Elec       q    Type
REMARK                         _______ _______ _______ _____ _____    ______ ____
ROOT
ATOM      1  C   UNL     1       2.958   5.606  -6.844  0.00  0.00    +0.217 C 
ATOM      2  O   UNL     1       2.420   4.310  -6.832  0.00  0.00    -0.211 OA
ENDROOT
BRANCH   1   3
ATOM      3  P   UNL     1       1.594   6.712  -7.329  0.00  0.00    +0.151 P 
ATOM      4  O   UNL     1       2.300   8.147  -7.898  0.00  0.00    -0.355 OA
ATOM      5  O   UNL     1       0.677   6.016  -8.550  0.00  0.00    -0.355 OA
ATOM      6  O   UNL     1       0.787   7.055  -6.108  0.00  0.00    -0.457 OA
ENDBRANCH   1   3
BRANCH   1   7
ATOM      7  P   UNL     1       3.533   5.944  -5.176  0.00  0.00    +0.151 P 
ATOM      8  O   UNL     1       3.950   7.568  -5.076  0.00  0.00    -0.355 OA
ATOM      9  O   UNL     1       2.420   5.522  -3.993  0.00  0.00    -0.355 OA
ATOM     10  O   UNL     1       4.786   5.116  -4.955  0.00  0.00    -0.457 OA
ENDBRANCH   1   7
BRANCH   1  11
ATOM     11  C   UNL     1       4.049   5.633  -7.871  0.00  0.00    +0.062 C 
BRANCH  11  12
ATOM     12  C   UNL     1       3.938   4.567  -8.919  0.00  0.00    +0.076 C 
BRANCH  12  13
ATOM     13  N   UNL     1       4.362   5.120 -10.181  0.00  0.00    -0.271 NA
ATOM     14  C   UNL     1       3.428   6.060 -10.742  0.00  0.00    +0.090 C 
BRANCH  13  15
ATOM     15  C   UNL     1       5.658   5.744 -10.132  0.00  0.00    +0.072 C 
BRANCH  15  16
ATOM     16  C   UNL     1       5.726   7.061 -10.846  0.00  0.00    +0.017 C 
BRANCH  16  17
ATOM     17  C   UNL     1       7.058   7.338 -11.482  0.00  0.00    +0.001 C 
BRANCH  17  19
ATOM     18  C   UNL     1       8.913   5.840 -12.101  0.00  0.00    +0.000 C 
ATOM     19  C   UNL     1       7.489   6.258 -12.444  0.00  0.00    +0.000 C 
ENDBRANCH  17  19
ENDBRANCH  16  17
ENDBRANCH  15  16
ENDBRANCH  13  15
ENDBRANCH  12  13
ENDBRANCH  11  12
ENDBRANCH   1  11
TORSDOF 9
ENDMDL
MODEL 3
REMARK VINA RESULT:      -5.5      0.928      2.909
REMARK  Name = 
REMARK  9 active torsions:
REMARK  status: ('A' for Active; 'I' for Inactive)
REMARK    1  A    between atoms: C_2  and  C_3
REMARK    2  A    between atoms: C_3  and  C_4
REMARK    3  A    between atoms: C_4  and  C_5
REMARK    4  A    between atoms: C_5  and  N_6
REMARK    5  A    between atoms: N_6  and  C_8
REMARK    6  A    between atoms: C_8  and  C_9
REMARK    7  A    between atoms: C_9  and  C_10
REMARK    8  A    between atoms: C_10  and  P_12
REMARK    9  A    between atoms: C_10  and  P_16
REMARK                            x       y       z     vdW  Elec       q    Type
REMARK                         _______ _______ _______ _____ _____    ______ ____
ROOT
ATOM      1  C   UNL     1       2.437   6.737  -8.264  0.00  0.00    +0.217 C 
ATOM      2  O   UNL     1       2.037   8.009  -7.828  0.00  0.00    -0.211 OA
ENDROOT
BRANCH   1   3
ATOM      3  P   UNL     1       2.806   5.782  -6.757  0.00  0.00    +0.151 P 
ATOM      4  O   UNL     1       1.804   6.390  -5.529  0.00  0.00    -0.355 OA
ATOM      5  O   UNL     1       2.474   4.154  -6.995  0.00  0.00    -0.355 OA
ATOM      6  O   UNL     1       4.230   6.040  -6.352  0.00  0.00    -0.457 OA
ENDBRANCH   1   3
BRANCH   1   7
ATOM      7  P   UNL     1       1.051   6.042  -9.173  0.00  0.00    +0.151 P 
ATOM      8  O   UNL     1       0.541   7.168 -10.309  0.00  0.00    -0.355 OA
ATOM      9  O   UNL     1       1.400   4.564  -9.886  0.00  0.00    -0.355 OA
ATOM     10  O   UNL     1      -0.075   5.825  -8.178  0.00  0.00    -0.457 OA
ENDBRANCH   1   7
BRANCH   1  11
ATOM     11  C   UNL     1       3.672   6.909  -9.094  0.00  0.00    +0.062 C 
BRANCH  11  12
ATOM     12  C   UNL     1       4.140   5.657  -9.772  0.00  0.00    +0.076 C 
BRANCH  12  13
ATOM     13  N   UNL     1       4.859   6.025 -10.966  0.00  0.00    -0.271 NA
ATOM     14  C   UNL     1       4.139   5.751 -12.182  0.00  0.00    +0.090 C 
BRANCH  13  15
ATOM     15  C   UNL     1       5.276   7.403 -10.988  0.00  0.00    +0.072 C 
BRANCH  15  16
ATOM     16  C   UNL     1       6.732   7.593 -11.290  0.00  0.00    +0.017 C 
BRANCH  16  17
ATOM     17  C   UNL     1       7.645   6.782 -10.414  0.00  0.00    +0.001 C 
BRANCH  17  19
ATOM     18  C   UNL     1       8.834   5.903 -12.384  0.00  0.00    +0.000 C 
ATOM     19  C   UNL     1       8.140   5.523 -11.083  0.00  0.00    +0.000 C 
ENDBRANCH  17  19
ENDBRANCH  16  17
ENDBRANCH  15  16
ENDBRANCH  13  15
ENDBRANCH  12  13
ENDBRANCH  11  12
ENDBRANCH   1  11
TORSDOF 9
ENDMDL
MODEL 4
REMARK VINA RESULT:      -5.5      4.743      7.968
REMARK  Name = 
REMARK  9 active torsions:
REMARK  status: ('A' for Active; 'I' for Inactive)
REMARK    1  A    between atoms: C_2  and  C_3
REMARK    2  A    between atoms: C_3  and  C_4
REMARK    3  A    between atoms: C_4  and  C_5
REMARK    4  A    between atoms: C_5  and  N_6
REMARK    5  A    between atoms: N_6  and  C_8
REMARK    6  A    between atoms: C_8  and  C_9
REMARK    7  A    between atoms: C_9  and  C_10
REMARK    8  A    between atoms: C_10  and  P_12
REMARK    9  A    between atoms: C_10  and  P_16
REMARK                            x       y       z     vdW  Elec       q    Type
REMARK                         _______ _______ _______ _____ _____    ______ ____
ROOT
ATOM      1  C   UNL     1       1.921   5.210  -7.060  0.00  0.00    +0.217 C 
ATOM      2  O   UNL     1       1.790   3.913  -6.539  0.00  0.00    -0.211 OA
ENDROOT
BRANCH   1   3
ATOM      3  P   UNL     1       3.185   6.036  -6.040  0.00  0.00    +0.151 P 
ATOM      4  O   UNL     1       2.802   5.710  -4.419  0.00  0.00    -0.355 OA
ATOM      5  O   UNL     1       4.711   5.429  -6.388  0.00  0.00    -0.355 OA
ATOM      6  O   UNL     1       3.081   7.522  -6.243  0.00  0.00    -0.457 OA
ENDBRANCH   1   3
BRANCH   1   7
ATOM      7  P   UNL     1       2.453   5.030  -8.767  0.00  0.00    +0.151 P 
ATOM      8  O   UNL     1       2.985   6.524  -9.319  0.00  0.00    -0.355 OA
ATOM      9  O   UNL     1       3.623   3.846  -8.977  0.00  0.00    -0.355 OA
ATOM     10  O   UNL     1       1.233   4.629  -9.578  0.00  0.00    -0.457 OA
ENDBRANCH   1   7
BRANCH   1  11
ATOM     11  C   UNL     1       0.596   5.894  -6.913  0.00  0.00    +0.062 C 
BRANCH  11  12
ATOM     12  C   UNL     1      -0.455   5.064  -6.239  0.00  0.00    +0.076 C 
BRANCH  12  13
ATOM     13  N   UNL     1      -0.945   5.791  -5.094  0.00  0.00    -0.271 NA
ATOM     14  C   UNL     1      -0.460   7.144  -5.018  0.00  0.00    +0.090 C 
BRANCH  13  15
ATOM     15  C   UNL     1      -2.381   5.818  -4.998  0.00  0.00    +0.072 C 
BRANCH  15  16
ATOM     16  C   UNL     1      -2.916   5.249  -3.718  0.00  0.00    +0.017 C 
BRANCH  16  17
ATOM     17  C   UNL     1      -3.559   6.270  -2.822  0.00  0.00    +0.001 C 
BRANCH  17  19
ATOM     18  C   UNL     1      -1.827   5.863  -1.120  0.00  0.00    +0.000 C 
ATOM     19  C   UNL     1      -2.579   6.939  -1.890  0.00  0.00    +0.000 C 
ENDBRANCH  17  19
ENDBRANCH  16  17
ENDBRANCH  15  16
ENDBRANCH  13  15
ENDBRANCH  12  13
ENDBRANCH  11  12
ENDBRANCH   1  11
TORSDOF 9
ENDMDL
MODEL 5
REMARK VINA RESULT:      -5.4      1.823      3.506
REMARK  Name = 
REMARK  9 active torsions:
REMARK  status: ('A' for Active; 'I' for Inactive)
REMARK    1  A    between atoms: C_2  and  C_3
REMARK    2  A    between atoms: C_3  and  C_4
REMARK    3  A    between atoms: C_4  and  C_5
REMARK    4  A    between atoms: C_5  and  N_6
REMARK    5  A    between atoms: N_6  and  C_8
REMARK    6  A    between atoms: C_8  and  C_9
REMARK    7  A    between atoms: C_9  and  C_10
REMARK    8  A    between atoms: C_10  and  P_12
REMARK    9  A    between atoms: C_10  and  P_16
REMARK                            x       y       z     vdW  Elec       q    Type
REMARK                         _______ _______ _______ _____ _____    ______ ____
ROOT
ATOM      1  C   UNL     1       2.792   6.064  -6.369  0.00  0.00    +0.217 C 
ATOM      2  O   UNL     1       2.188   7.314  -6.573  0.00  0.00    -0.211 OA
ENDROOT
BRANCH   1   3
ATOM      3  P   UNL     1       3.722   6.204  -4.808  0.00  0.00    +0.151 P 
ATOM      4  O   UNL     1       2.808   7.194  -3.776  0.00  0.00    -0.355 OA
ATOM      5  O   UNL     1       3.921   4.693  -4.103  0.00  0.00    -0.355 OA
ATOM      6  O   UNL     1       5.024   6.905  -5.077  0.00  0.00    -0.457 OA
ENDBRANCH   1   3
BRANCH   1   7
ATOM      7  P   UNL     1       1.463   4.860  -6.249  0.00  0.00    +0.151 P 
ATOM      8  O   UNL     1       0.898   4.846  -4.667  0.00  0.00    -0.355 OA
ATOM      9  O   UNL     1       0.220   5.134  -7.342  0.00  0.00    -0.355 OA
ATOM     10  O   UNL     1       2.060   3.499  -6.554  0.00  0.00    -0.457 OA
ENDBRANCH   1   7
BRANCH   1  11
ATOM     11  C   UNL     1       3.723   5.817  -7.516  0.00  0.00    +0.062 C 
BRANCH  11  12
ATOM     12  C   UNL     1       3.437   6.645  -8.733  0.00  0.00    +0.076 C 
BRANCH  12  13
ATOM     13  N   UNL     1       3.438   5.779  -9.885  0.00  0.00    -0.271 NA
ATOM     14  C   UNL     1       2.137   5.265 -10.223  0.00  0.00    +0.090 C 
BRANCH  13  15
ATOM     15  C   UNL     1       4.004   6.385 -11.062  0.00  0.00    +0.072 C 
BRANCH  15  16
ATOM     16  C   UNL     1       5.121   7.345 -10.775  0.00  0.00    +0.017 C 
BRANCH  16  17
ATOM     17  C   UNL     1       6.435   6.947 -11.385  0.00  0.00    +0.001 C 
BRANCH  17  19
ATOM     18  C   UNL     1       7.333   5.750  -9.428  0.00  0.00    +0.000 C 
ATOM     19  C   UNL     1       7.564   6.913 -10.384  0.00  0.00    +0.000 C 
ENDBRANCH  17  19
ENDBRANCH  16  17
ENDBRANCH  15  16
ENDBRANCH  13  15
ENDBRANCH  12  13
ENDBRANCH  11  12
ENDBRANCH   1  11
TORSDOF 9
ENDMDL
MODEL 6
REMARK VINA RESULT:      -5.4      4.126      7.333
REMARK  Name = 
REMARK  9 active torsions:
REMARK  status: ('A' for Active; 'I' for Inactive)
REMARK    1  A    between atoms: C_2  and  C_3
REMARK    2  A    between atoms: C_3  and  C_4
REMARK    3  A    between atoms: C_4  and  C_5
REMARK    4  A    between atoms: C_5  and  N_6
REMARK    5  A    between atoms: N_6  and  C_8
REMARK    6  A    between atoms: C_8  and  C_9
REMARK    7  A    between atoms: C_9  and  C_10
REMARK    8  A    between atoms: C_10  and  P_12
REMARK    9  A    between atoms: C_10  and  P_16
REMARK                            x       y       z     vdW  Elec       q    Type
REMARK                         _______ _______ _______ _____ _____    ______ ____
ROOT
ATOM      1  C   UNL     1       1.612   5.515  -8.529  0.00  0.00    +0.217 C 
ATOM      2  O   UNL     1       2.320   4.305  -8.478  0.00  0.00    -0.211 OA
ENDROOT
BRANCH   1   3
ATOM      3  P   UNL     1       2.813   6.819  -8.107  0.00  0.00    +0.151 P 
ATOM      4  O   UNL     1       3.820   7.019  -9.459  0.00  0.00    -0.355 OA
ATOM      5  O   UNL     1       2.024   8.263  -7.778  0.00  0.00    -0.355 OA
ATOM      6  O   UNL     1       3.670   6.342  -6.968  0.00  0.00    -0.457 OA
ENDBRANCH   1   3
BRANCH   1   7
ATOM      7  P   UNL     1       1.001   5.688 -10.210  0.00  0.00    +0.151 P 
ATOM      8  O   UNL     1      -0.210   4.551 -10.456  0.00  0.00    -0.355 OA
ATOM      9  O   UNL     1       0.469   7.239 -10.566  0.00  0.00    -0.355 OA
ATOM     10  O   UNL     1       2.154   5.365 -11.143  0.00  0.00    -0.457 OA
ENDBRANCH   1   7
BRANCH   1  11
ATOM     11  C   UNL     1       0.525   5.448  -7.500  0.00  0.00    +0.062 C 
BRANCH  11  12
ATOM     12  C   UNL     1       0.843   4.575  -6.323  0.00  0.00    +0.076 C 
BRANCH  12  13
ATOM     13  N   UNL     1       0.441   5.265  -5.122  0.00  0.00    -0.271 NA
ATOM     14  C   UNL     1       1.519   5.477  -4.191  0.00  0.00    +0.090 C 
BRANCH  13  15
ATOM     15  C   UNL     1      -0.200   6.530  -5.369  0.00  0.00    +0.072 C 
BRANCH  15  16
ATOM     16  C   UNL     1      -1.442   6.750  -4.557  0.00  0.00    +0.017 C 
BRANCH  16  17
ATOM     17  C   UNL     1      -2.491   5.693  -4.753  0.00  0.00    +0.001 C 
BRANCH  17  19
ATOM     18  C   UNL     1      -2.245   5.577  -2.305  0.00  0.00    +0.000 C 
ATOM     19  C   UNL     1      -3.187   5.308  -3.471  0.00  0.00    +0.000 C 
ENDBRANCH  17  19
ENDBRANCH  16  17
ENDBRANCH  15  16
ENDBRANCH  13  15
ENDBRANCH  12  13
ENDBRANCH  11  12
ENDBRANCH   1  11
TORSDOF 9
ENDMDL
MODEL 7
REMARK VINA RESULT:      -5.4      1.885      2.546
REMARK  Name = 
REMARK  9 active torsions:
REMARK  status: ('A' for Active; 'I' for Inactive)
REMARK    1  A    between atoms: C_2  and  C_3
REMARK    2  A    between atoms: C_3  and  C_4
REMARK    3  A    between atoms: C_4  and  C_5
REMARK    4  A    between atoms: C_5  and  N_6
REMARK    5  A    between atoms: N_6  and  C_8
REMARK    6  A    between atoms: C_8  and  C_9
REMARK    7  A    between atoms: C_9  and  C_10
REMARK    8  A    between atoms: C_10  and  P_12
REMARK    9  A    between atoms: C_10  and  P_16
REMARK                            x       y       z     vdW  Elec       q    Type
REMARK                         _______ _______ _______ _____ _____    ______ ____
ROOT
ATOM      1  C   UNL     1       2.601   5.270  -6.109  0.00  0.00    +0.217 C 
ATOM      2  O   UNL     1       1.999   4.017  -5.915  0.00  0.00    -0.211 OA
ENDROOT
BRANCH   1   3
ATOM      3  P   UNL     1       1.239   6.440  -6.415  0.00  0.00    +0.151 P 
ATOM      4  O   UNL     1       0.035   5.588  -7.255  0.00  0.00    -0.355 OA
ATOM      5  O   UNL     1       0.614   7.009  -4.965  0.00  0.00    -0.355 OA
ATOM      6  O   UNL     1       1.732   7.538  -7.316  0.00  0.00    -0.457 OA
ENDBRANCH   1   3
BRANCH   1   7
ATOM      7  P   UNL     1       3.488   5.658  -4.595  0.00  0.00    +0.151 P 
ATOM      8  O   UNL     1       3.900   7.285  -4.621  0.00  0.00    -0.355 OA
ATOM      9  O   UNL     1       2.633   5.263  -3.206  0.00  0.00    -0.355 OA
ATOM     10  O   UNL     1       4.768   4.841  -4.602  0.00  0.00    -0.457 OA
ENDBRANCH   1   7
BRANCH   1  11
ATOM     11  C   UNL     1       3.488   5.166  -7.313  0.00  0.00    +0.062 C 
BRANCH  11  12
ATOM     12  C   UNL     1       2.993   4.217  -8.363  0.00  0.00    +0.076 C 
BRANCH  12  13
ATOM     13  N   UNL     1       3.121   4.854  -9.650  0.00  0.00    -0.271 NA
ATOM     14  C   UNL     1       1.865   5.276 -10.212  0.00  0.00    +0.090 C 
BRANCH  13  15
ATOM     15  C   UNL     1       4.019   5.979  -9.652  0.00  0.00    +0.072 C 
BRANCH  15  16
ATOM     16  C   UNL     1       5.217   5.798 -10.535  0.00  0.00    +0.017 C 
BRANCH  16  17
ATOM     17  C   UNL     1       6.527   6.024  -9.834  0.00  0.00    +0.001 C 
BRANCH  17  19
ATOM     18  C   UNL     1       6.672   8.029 -11.257  0.00  0.00    +0.000 C 
ATOM     19  C   UNL     1       7.472   6.903 -10.618  0.00  0.00    +0.000 C 
ENDBRANCH  17  19
ENDBRANCH  16  17
ENDBRANCH  15  16
ENDBRANCH  13  15
ENDBRANCH  12  13
ENDBRANCH  11  12
ENDBRANCH   1  11
TORSDOF 9
ENDMDL
MODEL 8
REMARK VINA RESULT:      -5.3      1.548      3.349
REMARK  Name = 
REMARK  9 active torsions:
REMARK  status: ('A' for Active; 'I' for Inactive)
REMARK    1  A    between atoms: C_2  and  C_3
REMARK    2  A    between atoms: C_3  and  C_4
REMARK    3  A    between atoms: C_4  and  C_5
REMARK    4  A    between atoms: C_5  and  N_6
REMARK    5  A    between atoms: N_6  and  C_8
REMARK    6  A    between atoms: C_8  and  C_9
REMARK    7  A    between atoms: C_9  and  C_10
REMARK    8  A    between atoms: C_10  and  P_12
REMARK    9  A    between atoms: C_10  and  P_16
REMARK                            x       y       z     vdW  Elec       q    Type
REMARK                         _______ _______ _______ _____ _____    ______ ____
ROOT
ATOM      1  C   UNL     1       2.503   6.360  -6.674  0.00  0.00    +0.217 C 
ATOM      2  O   UNL     1       2.280   7.681  -7.092  0.00  0.00    -0.211 OA
ENDROOT
BRANCH   1   3
ATOM      3  P   UNL     1       3.262   6.478  -5.021  0.00  0.00    +0.151 P 
ATOM      4  O   UNL     1       4.068   5.010  -4.742  0.00  0.00    -0.355 OA
ATOM      5  O   UNL     1       4.365   7.742  -4.968  0.00  0.00    -0.355 OA
ATOM      6  O   UNL     1       2.173   6.602  -3.992  0.00  0.00    -0.457 OA
ENDBRANCH   1   3
BRANCH   1   7
ATOM      7  P   UNL     1       0.897   5.557  -6.616  0.00  0.00    +0.151 P 
ATOM      8  O   UNL     1       1.073   4.069  -5.859  0.00  0.00    -0.355 OA
ATOM      9  O   UNL     1      -0.284   6.489  -5.872  0.00  0.00    -0.355 OA
ATOM     10  O   UNL     1       0.464   5.314  -8.051  0.00  0.00    -0.457 OA
ENDBRANCH   1   7
BRANCH   1  11
ATOM     11  C   UNL     1       3.454   5.731  -7.646  0.00  0.00    +0.062 C 
BRANCH  11  12
ATOM     12  C   UNL     1       3.621   6.492  -8.927  0.00  0.00    +0.076 C 
BRANCH  12  13
ATOM     13  N   UNL     1       4.283   5.639  -9.882  0.00  0.00    -0.271 NA
ATOM     14  C   UNL     1       3.882   5.877 -11.244  0.00  0.00    +0.090 C 
BRANCH  13  15
ATOM     15  C   UNL     1       5.719   5.703  -9.815  0.00  0.00    +0.072 C 
BRANCH  15  16
ATOM     16  C   UNL     1       6.339   6.572 -10.869  0.00  0.00    +0.017 C 
BRANCH  16  17
ATOM     17  C   UNL     1       7.836   6.667 -10.775  0.00  0.00    +0.001 C 
BRANCH  17  19
ATOM     18  C   UNL     1       7.685   5.611 -12.995  0.00  0.00    +0.000 C 
ATOM     19  C   UNL     1       8.547   5.760 -11.749  0.00  0.00    +0.000 C 
ENDBRANCH  17  19
ENDBRANCH  16  17
ENDBRANCH  15  16
ENDBRANCH  13  15
ENDBRANCH  12  13
ENDBRANCH  11  12
ENDBRANCH   1  11
TORSDOF 9
ENDMDL
MODEL 9
REMARK VINA RESULT:      -5.3      5.172      8.219
REMARK  Name = 
REMARK  9 active torsions:
REMARK  status: ('A' for Active; 'I' for Inactive)
REMARK    1  A    between atoms: C_2  and  C_3
REMARK    2  A    between atoms: C_3  and  C_4
REMARK    3  A    between atoms: C_4  and  C_5
REMARK    4  A    between atoms: C_5  and  N_6
REMARK    5  A    between atoms: N_6  and  C_8
REMARK    6  A    between atoms: C_8  and  C_9
REMARK    7  A    between atoms: C_9  and  C_10
REMARK    8  A    between atoms: C_10  and  P_12
REMARK    9  A    between atoms: C_10  and  P_16
REMARK                            x       y       z     vdW  Elec       q    Type
REMARK                         _______ _______ _______ _____ _____    ______ ____
ROOT
ATOM      1  C   UNL     1       1.692   5.991  -5.918  0.00  0.00    +0.217 C 
ATOM      2  O   UNL     1       1.490   4.607  -6.032  0.00  0.00    -0.211 OA
ENDROOT
BRANCH   1   3
ATOM      3  P   UNL     1       3.171   6.200  -4.875  0.00  0.00    +0.151 P 
ATOM      4  O   UNL     1       3.943   7.621  -5.392  0.00  0.00    -0.355 OA
ATOM      5  O   UNL     1       2.736   6.354  -3.261  0.00  0.00    -0.355 OA
ATOM      6  O   UNL     1       4.110   5.054  -5.127  0.00  0.00    -0.457 OA
ENDBRANCH   1   3
BRANCH   1   7
ATOM      7  P   UNL     1       1.954   6.615  -7.583  0.00  0.00    +0.151 P 
ATOM      8  O   UNL     1       0.748   6.003  -8.578  0.00  0.00    -0.355 OA
ATOM      9  O   UNL     1       2.024   8.290  -7.660  0.00  0.00    -0.355 OA
ATOM     10  O   UNL     1       3.288   6.071  -8.062  0.00  0.00    -0.457 OA
ENDBRANCH   1   7
BRANCH   1  11
ATOM     11  C   UNL     1       0.485   6.571  -5.244  0.00  0.00    +0.062 C 
BRANCH  11  12
ATOM     12  C   UNL     1      -0.463   5.550  -4.692  0.00  0.00    +0.076 C 
BRANCH  12  13
ATOM     13  N   UNL     1      -1.807   6.054  -4.830  0.00  0.00    -0.271 NA
ATOM     14  C   UNL     1      -2.340   5.922  -6.160  0.00  0.00    +0.090 C 
BRANCH  13  15
ATOM     15  C   UNL     1      -2.742   5.465  -3.907  0.00  0.00    +0.072 C 
BRANCH  15  16
ATOM     16  C   UNL     1      -3.391   6.453  -2.984  0.00  0.00    +0.017 C 
BRANCH  16  17
ATOM     17  C   UNL     1      -2.508   6.896  -1.852  0.00  0.00    +0.001 C 
BRANCH  17  19
ATOM     18  C   UNL     1      -0.395   5.953  -1.008  0.00  0.00    +0.000 C 
ATOM     19  C   UNL     1      -1.901   5.743  -1.091  0.00  0.00    +0.000 C 
ENDBRANCH  17  19
ENDBRANCH  16  17
ENDBRANCH  15  16
ENDBRANCH  13  15
ENDBRANCH  12  13
ENDBRANCH  11  12
ENDBRANCH   1  11
TORSDOF 9
ENDMDL
