MODEL 1
REMARK VINA RESULT:      -6.5      0.000      0.000
REMARK  Name = 
REMARK  11 active torsions:
REMARK  status: ('A' for Active; 'I' for Inactive)
REMARK    1  A    between atoms: C_2  and  N_4
REMARK    2  A    between atoms: N_4  and  C_5
REMARK    3  A    between atoms: C_5  and  C_6
REMARK    4  A    between atoms: C_6  and  C_8
REMARK    5  A    between atoms: C_8  and  O_9
REMARK    6  A    between atoms: O_9  and  C_10
REMARK    7  A    between atoms: C_13  and  C_14
REMARK    8  A    between atoms: C_14  and  C_15
REMARK    9  A    between atoms: C_15  and  O_16
REMARK   10  A    between atoms: O_16  and  C_17
REMARK   11  A    between atoms: C_17  and  C_18
REMARK                            x       y       z     vdW  Elec       q    Type
REMARK                         _______ _______ _______ _____ _____    ______ ____
ROOT
ATOM      1  C   UNL     1       0.050   5.677  -6.422  0.00  0.00    +0.139 A 
ATOM      2  C   UNL     1      -0.054   6.668  -5.450  0.00  0.00    +0.037 A 
ATOM      3  C   UNL     1      -1.232   6.856  -4.735  0.00  0.00    -0.001 A 
ATOM      4  C   UNL     1      -2.351   6.068  -4.989  0.00  0.00    -0.019 A 
ATOM      5  C   UNL     1      -2.354   5.495  -6.257  0.00  0.00    -0.001 A 
ATOM      6  C   UNL     1      -1.174   5.308  -6.971  0.00  0.00    +0.037 A 
ENDROOT
BRANCH   1   7
ATOM      7  O   UNL     1       1.172   4.875  -6.459  0.00  0.00    -0.473 OA
BRANCH   7   8
ATOM      8  C   UNL     1       2.100   4.788  -7.486  0.00  0.00    +0.240 C 
BRANCH   8   9
ATOM      9  C   UNL     1       2.619   6.316  -7.810  0.00  0.00    +0.213 C 
ATOM     10  O   UNL     1       3.577   5.816  -8.876  0.00  0.00    -0.218 OA
BRANCH   9  11
ATOM     11  C   UNL     1       3.794   6.247  -6.657  0.00  0.00    +0.125 C 
BRANCH  11  12
ATOM     12  N   UNL     1       3.442   7.343  -5.795  0.00  0.00    -0.217 NA
BRANCH  12  14
ATOM     13  C   UNL     1       4.948   7.656  -4.344  0.00  0.00    +0.019 C 
ATOM     14  C   UNL     1       4.054   7.046  -4.500  0.00  0.00    +0.073 C 
ATOM     15  C   UNL     1       4.198   5.534  -4.372  0.00  0.00    +0.019 C 
ENDBRANCH  12  14
ENDBRANCH  11  12
ENDBRANCH   9  11
ENDBRANCH   8   9
ENDBRANCH   7   8
ENDBRANCH   1   7
BRANCH   4  16
ATOM     16  C   UNL     1      -3.137   5.443  -3.876  0.00  0.00    +0.058 C 
BRANCH  16  17
ATOM     17  C   UNL     1      -2.821   6.052  -2.542  0.00  0.00    +0.147 C 
BRANCH  17  18
ATOM     18  O   UNL     1      -2.195   5.059  -1.786  0.00  0.00    -0.353 OA
BRANCH  18  19
ATOM     19  C   UNL     1      -1.044   5.584  -1.226  0.00  0.00    +0.142 C 
BRANCH  19  20
ATOM     20  C   UNL     1       0.196   5.084  -1.920  0.00  0.00    +0.030 C 
ATOM     21  C   UNL     1       1.403   4.916  -1.065  0.00  0.00    +0.003 C 
ATOM     22  C   UNL     1       1.280   6.117  -2.043  0.00  0.00    +0.003 C 
ENDBRANCH  19  20
ENDBRANCH  18  19
ENDBRANCH  17  18
ENDBRANCH  16  17
ENDBRANCH   4  16
TORSDOF 11
ENDMDL
MODEL 2
REMARK VINA RESULT:      -6.4      5.406     10.319
REMARK  Name = 
REMARK  11 active torsions:
REMARK  status: ('A' for Active; 'I' for Inactive)
REMARK    1  A    between atoms: C_2  and  N_4
REMARK    2  A    between atoms: N_4  and  C_5
REMARK    3  A    between atoms: C_5  and  C_6
REMARK    4  A    between atoms: C_6  and  C_8
REMARK    5  A    between atoms: C_8  and  O_9
REMARK    6  A    between atoms: O_9  and  C_10
REMARK    7  A    between atoms: C_13  and  C_14
REMARK    8  A    between atoms: C_14  and  C_15
REMARK    9  A    between atoms: C_15  and  O_16
REMARK   10  A    between atoms: O_16  and  C_17
REMARK   11  A    between atoms: C_17  and  C_18
REMARK                            x       y       z     vdW  Elec       q    Type
REMARK                         _______ _______ _______ _____ _____    ______ ____
ROOT
ATOM      1  C   UNL     1       5.016   5.844  -9.753  0.00  0.00    +0.139 A 
ATOM      2  C   UNL     1       5.345   6.919 -10.573  0.00  0.00    +0.037 A 
ATOM      3  C   UNL     1       6.662   7.154 -10.960  0.00  0.00    -0.001 A 
ATOM      4  C   UNL     1       7.690   6.328 -10.516  0.00  0.00    -0.019 A 
ATOM      5  C   UNL     1       7.388   5.641  -9.345  0.00  0.00    -0.001 A 
ATOM      6  C   UNL     1       6.072   5.406  -8.960  0.00  0.00    +0.037 A 
ENDROOT
BRANCH   1   7
ATOM      7  O   UNL     1       3.924   5.060 -10.065  0.00  0.00    -0.473 OA
BRANCH   7   8
ATOM      8  C   UNL     1       2.904   4.672  -9.209  0.00  0.00    +0.240 C 
BRANCH   8   9
ATOM      9  C   UNL     1       2.410   6.015  -8.395  0.00  0.00    +0.213 C 
ATOM     10  O   UNL     1       1.278   5.253  -7.729  0.00  0.00    -0.218 OA
BRANCH   9  11
ATOM     11  C   UNL     1       1.424   6.495  -9.625  0.00  0.00    +0.125 C 
BRANCH  11  12
ATOM     12  N   UNL     1       0.522   5.381  -9.747  0.00  0.00    -0.217 NA
BRANCH  12  14
ATOM     13  C   UNL     1       0.236   4.902 -11.787  0.00  0.00    +0.019 C 
ATOM     14  C   UNL     1      -0.173   5.566 -11.021  0.00  0.00    +0.073 C 
ATOM     15  C   UNL     1      -0.219   7.057 -11.330  0.00  0.00    +0.019 C 
ENDBRANCH  12  14
ENDBRANCH  11  12
ENDBRANCH   9  11
ENDBRANCH   8   9
ENDBRANCH   7   8
ENDBRANCH   1   7
BRANCH   4  16
ATOM     16  C   UNL     1       8.728   5.796 -11.457  0.00  0.00    +0.058 C 
BRANCH  16  17
ATOM     17  C   UNL     1       8.369   6.033 -12.895  0.00  0.00    +0.147 C 
BRANCH  17  18
ATOM     18  O   UNL     1       7.579   4.953 -13.294  0.00  0.00    -0.353 OA
BRANCH  18  19
ATOM     19  C   UNL     1       6.584   5.415 -14.136  0.00  0.00    +0.142 C 
BRANCH  19  20
ATOM     20  C   UNL     1       6.934   6.749 -14.740  0.00  0.00    +0.030 C 
ATOM     21  C   UNL     1       5.851   7.429 -15.503  0.00  0.00    +0.003 C 
ATOM     22  C   UNL     1       7.028   6.731 -16.239  0.00  0.00    +0.003 C 
ENDBRANCH  19  20
ENDBRANCH  18  19
ENDBRANCH  17  18
ENDBRANCH  16  17
ENDBRANCH   4  16
TORSDOF 11
ENDMDL
MODEL 3
REMARK VINA RESULT:      -6.3      5.186      9.884
REMARK  Name = 
REMARK  11 active torsions:
REMARK  status: ('A' for Active; 'I' for Inactive)
REMARK    1  A    between atoms: C_2  and  N_4
REMARK    2  A    between atoms: N_4  and  C_5
REMARK    3  A    between atoms: C_5  and  C_6
REMARK    4  A    between atoms: C_6  and  C_8
REMARK    5  A    between atoms: C_8  and  O_9
REMARK    6  A    between atoms: O_9  and  C_10
REMARK    7  A    between atoms: C_13  and  C_14
REMARK    8  A    between atoms: C_14  and  C_15
REMARK    9  A    between atoms: C_15  and  O_16
REMARK   10  A    between atoms: O_16  and  C_17
REMARK   11  A    between atoms: C_17  and  C_18
REMARK                            x       y       z     vdW  Elec       q    Type
REMARK                         _______ _______ _______ _____ _____    ______ ____
ROOT
ATOM      1  C   UNL     1       4.757   6.512 -10.198  0.00  0.00    +0.139 A 
ATOM      2  C   UNL     1       5.447   7.513 -10.876  0.00  0.00    +0.037 A 
ATOM      3  C   UNL     1       6.825   7.442 -11.058  0.00  0.00    -0.001 A 
ATOM      4  C   UNL     1       7.555   6.374 -10.545  0.00  0.00    -0.019 A 
ATOM      5  C   UNL     1       6.927   5.726  -9.486  0.00  0.00    -0.001 A 
ATOM      6  C   UNL     1       5.549   5.797  -9.306  0.00  0.00    +0.037 A 
ENDROOT
BRANCH   1   7
ATOM      7  O   UNL     1       3.574   6.029 -10.720  0.00  0.00    -0.473 OA
BRANCH   7   8
ATOM      8  C   UNL     1       2.307   6.160 -10.173  0.00  0.00    +0.240 C 
BRANCH   8   9
ATOM      9  C   UNL     1       1.841   4.669  -9.651  0.00  0.00    +0.213 C 
ATOM     10  O   UNL     1       0.391   4.945 -10.006  0.00  0.00    -0.218 OA
BRANCH   9  11
ATOM     11  C   UNL     1       1.611   5.195  -8.106  0.00  0.00    +0.125 C 
BRANCH  11  12
ATOM     12  N   UNL     1       2.360   4.235  -7.341  0.00  0.00    -0.217 NA
BRANCH  12  14
ATOM     13  C   UNL     1       2.146   4.830  -5.323  0.00  0.00    +0.019 C 
ATOM     14  C   UNL     1       2.841   4.951  -6.160  0.00  0.00    +0.073 C 
ATOM     15  C   UNL     1       3.207   6.371  -6.574  0.00  0.00    +0.019 C 
ENDBRANCH  12  14
ENDBRANCH  11  12
ENDBRANCH   9  11
ENDBRANCH   8   9
ENDBRANCH   7   8
ENDBRANCH   1   7
BRANCH   4  16
ATOM     16  C   UNL     1       8.573   5.652 -11.376  0.00  0.00    +0.058 C 
BRANCH  16  17
ATOM     17  C   UNL     1       8.383   5.890 -12.845  0.00  0.00    +0.147 C 
BRANCH  17  18
ATOM     18  O   UNL     1       7.523   4.891 -13.305  0.00  0.00    -0.353 OA
BRANCH  18  19
ATOM     19  C   UNL     1       6.556   5.469 -14.106  0.00  0.00    +0.142 C 
BRANCH  19  20
ATOM     20  C   UNL     1       7.063   6.709 -14.794  0.00  0.00    +0.030 C 
ATOM     21  C   UNL     1       6.039   7.549 -15.473  0.00  0.00    +0.003 C 
ATOM     22  C   UNL     1       6.997   6.641 -16.294  0.00  0.00    +0.003 C 
ENDBRANCH  19  20
ENDBRANCH  18  19
ENDBRANCH  17  18
ENDBRANCH  16  17
ENDBRANCH   4  16
TORSDOF 11
ENDMDL
MODEL 4
REMARK VINA RESULT:      -6.2      2.298      3.724
REMARK  Name = 
REMARK  11 active torsions:
REMARK  status: ('A' for Active; 'I' for Inactive)
REMARK    1  A    between atoms: C_2  and  N_4
REMARK    2  A    between atoms: N_4  and  C_5
REMARK    3  A    between atoms: C_5  and  C_6
REMARK    4  A    between atoms: C_6  and  C_8
REMARK    5  A    between atoms: C_8  and  O_9
REMARK    6  A    between atoms: O_9  and  C_10
REMARK    7  A    between atoms: C_13  and  C_14
REMARK    8  A    between atoms: C_14  and  C_15
REMARK    9  A    between atoms: C_15  and  O_16
REMARK   10  A    between atoms: O_16  and  C_17
REMARK   11  A    between atoms: C_17  and  C_18
REMARK                            x       y       z     vdW  Elec       q    Type
REMARK                         _______ _______ _______ _____ _____    ______ ____
ROOT
ATOM      1  C   UNL     1       0.093   5.533  -6.456  0.00  0.00    +0.139 A 
ATOM      2  C   UNL     1       0.043   6.433  -5.395  0.00  0.00    +0.037 A 
ATOM      3  C   UNL     1      -1.131   6.634  -4.674  0.00  0.00    -0.001 A 
ATOM      4  C   UNL     1      -2.296   5.951  -5.010  0.00  0.00    -0.019 A 
ATOM      5  C   UNL     1      -2.319   5.501  -6.327  0.00  0.00    -0.001 A 
ATOM      6  C   UNL     1      -1.145   5.301  -7.046  0.00  0.00    +0.037 A 
ENDROOT
BRANCH   1   7
ATOM      7  O   UNL     1       1.160   4.664  -6.559  0.00  0.00    -0.473 OA
BRANCH   7   8
ATOM      8  C   UNL     1       2.357   4.890  -7.221  0.00  0.00    +0.240 C 
BRANCH   8   9
ATOM      9  C   UNL     1       2.241   4.177  -8.701  0.00  0.00    +0.213 C 
ATOM     10  O   UNL     1       3.749   4.027  -8.799  0.00  0.00    -0.218 OA
BRANCH   9  11
ATOM     11  C   UNL     1       2.288   5.623  -9.490  0.00  0.00    +0.125 C 
BRANCH  11  12
ATOM     12  N   UNL     1       1.759   5.283 -10.783  0.00  0.00    -0.217 NA
BRANCH  12  14
ATOM     13  C   UNL     1      -0.213   4.681 -11.253  0.00  0.00    +0.019 C 
ATOM     14  C   UNL     1       0.310   5.451 -10.679  0.00  0.00    +0.073 C 
ATOM     15  C   UNL     1      -0.028   6.907 -10.979  0.00  0.00    +0.019 C 
ENDBRANCH  12  14
ENDBRANCH  11  12
ENDBRANCH   9  11
ENDBRANCH   8   9
ENDBRANCH   7   8
ENDBRANCH   1   7
BRANCH   4  16
ATOM     16  C   UNL     1      -3.137   5.279  -3.968  0.00  0.00    +0.058 C 
BRANCH  16  17
ATOM     17  C   UNL     1      -3.039   5.956  -2.632  0.00  0.00    +0.147 C 
BRANCH  17  18
ATOM     18  O   UNL     1      -2.425   5.048  -1.767  0.00  0.00    -0.353 OA
BRANCH  18  19
ATOM     19  C   UNL     1      -1.585   5.741  -0.914  0.00  0.00    +0.142 C 
BRANCH  19  20
ATOM     20  C   UNL     1      -2.070   7.145  -0.667  0.00  0.00    +0.030 C 
ATOM     21  C   UNL     1      -1.125   8.051   0.041  0.00  0.00    +0.003 C 
ATOM     22  C   UNL     1      -2.351   7.445   0.778  0.00  0.00    +0.003 C 
ENDBRANCH  19  20
ENDBRANCH  18  19
ENDBRANCH  17  18
ENDBRANCH  16  17
ENDBRANCH   4  16
TORSDOF 11
ENDMDL
MODEL 5
REMARK VINA RESULT:      -6.2      3.348      4.597
REMARK  Name = 
REMARK  11 active torsions:
REMARK  status: ('A' for Active; 'I' for Inactive)
REMARK    1  A    between atoms: C_2  and  N_4
REMARK    2  A    between atoms: N_4  and  C_5
REMARK    3  A    between atoms: C_5  and  C_6
REMARK    4  A    between atoms: C_6  and  C_8
REMARK    5  A    between atoms: C_8  and  O_9
REMARK    6  A    between atoms: O_9  and  C_10
REMARK    7  A    between atoms: C_13  and  C_14
REMARK    8  A    between atoms: C_14  and  C_15
REMARK    9  A    between atoms: C_15  and  O_16
REMARK   10  A    between atoms: O_16  and  C_17
REMARK   11  A    between atoms: C_17  and  C_18
REMARK                            x       y       z     vdW  Elec       q    Type
REMARK                         _______ _______ _______ _____ _____    ______ ____
ROOT
ATOM      1  C   UNL     1       1.352   6.548  -9.049  0.00  0.00    +0.139 A 
ATOM      2  C   UNL     1       1.798   7.292  -7.961  0.00  0.00    +0.037 A 
ATOM      3  C   UNL     1       1.450   6.944  -6.658  0.00  0.00    -0.001 A 
ATOM      4  C   UNL     1       0.623   5.852  -6.412  0.00  0.00    -0.019 A 
ATOM      5  C   UNL     1      -0.172   5.498  -7.497  0.00  0.00    -0.001 A 
ATOM      6  C   UNL     1       0.179   5.845  -8.798  0.00  0.00    +0.037 A 
ENDROOT
BRANCH   1   7
ATOM      7  O   UNL     1       2.238   6.215 -10.054  0.00  0.00    -0.473 OA
BRANCH   7   8
ATOM      8  C   UNL     1       3.600   6.473 -10.083  0.00  0.00    +0.240 C 
BRANCH   8   9
ATOM      9  C   UNL     1       4.357   5.067 -10.482  0.00  0.00    +0.213 C 
ATOM     10  O   UNL     1       4.368   4.606  -9.035  0.00  0.00    -0.218 OA
BRANCH   9  11
ATOM     11  C   UNL     1       5.855   5.737 -10.326  0.00  0.00    +0.125 C 
BRANCH  11  12
ATOM     12  N   UNL     1       6.439   5.483 -11.616  0.00  0.00    -0.217 NA
BRANCH  12  14
ATOM     13  C   UNL     1       8.459   5.852 -12.122  0.00  0.00    +0.019 C 
ATOM     14  C   UNL     1       7.591   6.379 -11.717  0.00  0.00    +0.073 C 
ATOM     15  C   UNL     1       7.759   7.098 -10.384  0.00  0.00    +0.019 C 
ENDBRANCH  12  14
ENDBRANCH  11  12
ENDBRANCH   9  11
ENDBRANCH   8   9
ENDBRANCH   7   8
ENDBRANCH   1   7
BRANCH   4  16
ATOM     16  C   UNL     1       0.959   4.839  -5.359  0.00  0.00    +0.058 C 
BRANCH  16  17
ATOM     17  C   UNL     1       0.607   5.312  -3.979  0.00  0.00    +0.147 C 
BRANCH  17  18
ATOM     18  O   UNL     1      -0.785   5.394  -3.927  0.00  0.00    -0.353 OA
BRANCH  18  19
ATOM     19  C   UNL     1      -1.141   6.384  -3.029  0.00  0.00    +0.142 C 
BRANCH  19  20
ATOM     20  C   UNL     1      -2.199   7.298  -3.590  0.00  0.00    +0.030 C 
ATOM     21  C   UNL     1      -2.565   7.081  -5.016  0.00  0.00    +0.003 C 
ATOM     22  C   UNL     1      -1.678   8.285  -4.596  0.00  0.00    +0.003 C 
ENDBRANCH  19  20
ENDBRANCH  18  19
ENDBRANCH  17  18
ENDBRANCH  16  17
ENDBRANCH   4  16
TORSDOF 11
ENDMDL
MODEL 6
REMARK VINA RESULT:      -6.1      1.478      1.946
REMARK  Name = 
REMARK  11 active torsions:
REMARK  status: ('A' for Active; 'I' for Inactive)
REMARK    1  A    between atoms: C_2  and  N_4
REMARK    2  A    between atoms: N_4  and  C_5
REMARK    3  A    between atoms: C_5  and  C_6
REMARK    4  A    between atoms: C_6  and  C_8
REMARK    5  A    between atoms: C_8  and  O_9
REMARK    6  A    between atoms: O_9  and  C_10
REMARK    7  A    between atoms: C_13  and  C_14
REMARK    8  A    between atoms: C_14  and  C_15
REMARK    9  A    between atoms: C_15  and  O_16
REMARK   10  A    between atoms: O_16  and  C_17
REMARK   11  A    between atoms: C_17  and  C_18
REMARK                            x       y       z     vdW  Elec       q    Type
REMARK                         _______ _______ _______ _____ _____    ______ ____
ROOT
ATOM      1  C   UNL     1       0.185   6.440  -6.022  0.00  0.00    +0.139 A 
ATOM      2  C   UNL     1      -0.437   7.364  -5.187  0.00  0.00    +0.037 A 
ATOM      3  C   UNL     1      -1.731   7.156  -4.718  0.00  0.00    -0.001 A 
ATOM      4  C   UNL     1      -2.448   6.023  -5.092  0.00  0.00    -0.019 A 
ATOM      5  C   UNL     1      -2.001   5.446  -6.277  0.00  0.00    -0.001 A 
ATOM      6  C   UNL     1      -0.707   5.655  -6.743  0.00  0.00    +0.037 A 
ENDROOT
BRANCH   1   7
ATOM      7  O   UNL     1       1.493   6.074  -5.776  0.00  0.00    -0.473 OA
BRANCH   7   8
ATOM      8  C   UNL     1       2.636   6.730  -6.205  0.00  0.00    +0.240 C 
BRANCH   8   9
ATOM      9  C   UNL     1       3.930   5.887  -5.635  0.00  0.00    +0.213 C 
ATOM     10  O   UNL     1       3.034   4.790  -5.087  0.00  0.00    -0.218 OA
BRANCH   9  11
ATOM     11  C   UNL     1       3.913   6.683  -4.192  0.00  0.00    +0.125 C 
BRANCH  11  12
ATOM     12  N   UNL     1       4.586   5.756  -3.323  0.00  0.00    -0.217 NA
BRANCH  12  14
ATOM     13  C   UNL     1       4.447   6.919  -1.562  0.00  0.00    +0.019 C 
ATOM     14  C   UNL     1       4.043   5.995  -1.985  0.00  0.00    +0.073 C 
ATOM     15  C   UNL     1       4.197   4.717  -1.169  0.00  0.00    +0.019 C 
ENDBRANCH  12  14
ENDBRANCH  11  12
ENDBRANCH   9  11
ENDBRANCH   8   9
ENDBRANCH   7   8
ENDBRANCH   1   7
BRANCH   4  16
ATOM     16  C   UNL     1      -3.190   5.199  -4.084  0.00  0.00    +0.058 C 
BRANCH  16  17
ATOM     17  C   UNL     1      -3.238   5.855  -2.735  0.00  0.00    +0.147 C 
BRANCH  17  18
ATOM     18  O   UNL     1      -2.531   5.026  -1.862  0.00  0.00    -0.353 OA
BRANCH  18  19
ATOM     19  C   UNL     1      -1.821   5.813  -0.974  0.00  0.00    +0.142 C 
BRANCH  19  20
ATOM     20  C   UNL     1      -0.484   6.223  -1.533  0.00  0.00    +0.030 C 
ATOM     21  C   UNL     1       0.299   5.155  -2.212  0.00  0.00    +0.003 C 
ATOM     22  C   UNL     1       0.687   5.645  -0.789  0.00  0.00    +0.003 C 
ENDBRANCH  19  20
ENDBRANCH  18  19
ENDBRANCH  17  18
ENDBRANCH  16  17
ENDBRANCH   4  16
TORSDOF 11
ENDMDL
MODEL 7
REMARK VINA RESULT:      -6.1      2.377      2.940
REMARK  Name = 
REMARK  11 active torsions:
REMARK  status: ('A' for Active; 'I' for Inactive)
REMARK    1  A    between atoms: C_2  and  N_4
REMARK    2  A    between atoms: N_4  and  C_5
REMARK    3  A    between atoms: C_5  and  C_6
REMARK    4  A    between atoms: C_6  and  C_8
REMARK    5  A    between atoms: C_8  and  O_9
REMARK    6  A    between atoms: O_9  and  C_10
REMARK    7  A    between atoms: C_13  and  C_14
REMARK    8  A    between atoms: C_14  and  C_15
REMARK    9  A    between atoms: C_15  and  O_16
REMARK   10  A    between atoms: O_16  and  C_17
REMARK   11  A    between atoms: C_17  and  C_18
REMARK                            x       y       z     vdW  Elec       q    Type
REMARK                         _______ _______ _______ _____ _____    ______ ____
ROOT
ATOM      1  C   UNL     1       0.115   5.974  -6.294  0.00  0.00    +0.139 A 
ATOM      2  C   UNL     1      -0.158   6.902  -5.294  0.00  0.00    +0.037 A 
ATOM      3  C   UNL     1      -1.392   6.925  -4.649  0.00  0.00    -0.001 A 
ATOM      4  C   UNL     1      -2.396   6.029  -5.004  0.00  0.00    -0.019 A 
ATOM      5  C   UNL     1      -2.257   5.518  -6.291  0.00  0.00    -0.001 A 
ATOM      6  C   UNL     1      -1.024   5.495  -6.934  0.00  0.00    +0.037 A 
ENDROOT
BRANCH   1   7
ATOM      7  O   UNL     1       1.322   5.305  -6.290  0.00  0.00    -0.473 OA
BRANCH   7   8
ATOM      8  C   UNL     1       1.804   4.450  -7.268  0.00  0.00    +0.240 C 
BRANCH   8   9
ATOM      9  C   UNL     1       2.301   5.381  -8.532  0.00  0.00    +0.213 C 
ATOM     10  O   UNL     1       1.567   4.503  -9.530  0.00  0.00    -0.218 OA
BRANCH   9  11
ATOM     11  C   UNL     1       3.691   4.518  -8.725  0.00  0.00    +0.125 C 
BRANCH  11  12
ATOM     12  N   UNL     1       4.154   4.967 -10.011  0.00  0.00    -0.217 NA
BRANCH  12  14
ATOM     13  C   UNL     1       4.974   6.830 -10.587  0.00  0.00    +0.019 C 
ATOM     14  C   UNL     1       5.003   6.128  -9.748  0.00  0.00    +0.073 C 
ATOM     15  C   UNL     1       6.369   5.631  -9.290  0.00  0.00    +0.019 C 
ENDBRANCH  12  14
ENDBRANCH  11  12
ENDBRANCH   9  11
ENDBRANCH   8   9
ENDBRANCH   7   8
ENDBRANCH   1   7
BRANCH   4  16
ATOM     16  C   UNL     1      -3.170   5.271  -3.969  0.00  0.00    +0.058 C 
BRANCH  16  17
ATOM     17  C   UNL     1      -3.077   5.902  -2.611  0.00  0.00    +0.147 C 
BRANCH  17  18
ATOM     18  O   UNL     1      -2.350   5.020  -1.808  0.00  0.00    -0.353 OA
BRANCH  18  19
ATOM     19  C   UNL     1      -1.570   5.753  -0.934  0.00  0.00    +0.142 C 
BRANCH  19  20
ATOM     20  C   UNL     1      -2.176   7.098  -0.631  0.00  0.00    +0.030 C 
ATOM     21  C   UNL     1      -1.247   8.133  -0.101  0.00  0.00    +0.003 C 
ATOM     22  C   UNL     1      -2.255   7.412   0.836  0.00  0.00    +0.003 C 
ENDBRANCH  19  20
ENDBRANCH  18  19
ENDBRANCH  17  18
ENDBRANCH  16  17
ENDBRANCH   4  16
TORSDOF 11
ENDMDL
MODEL 8
REMARK VINA RESULT:      -6.1      3.705      5.765
REMARK  Name = 
REMARK  11 active torsions:
REMARK  status: ('A' for Active; 'I' for Inactive)
REMARK    1  A    between atoms: C_2  and  N_4
REMARK    2  A    between atoms: N_4  and  C_5
REMARK    3  A    between atoms: C_5  and  C_6
REMARK    4  A    between atoms: C_6  and  C_8
REMARK    5  A    between atoms: C_8  and  O_9
REMARK    6  A    between atoms: O_9  and  C_10
REMARK    7  A    between atoms: C_13  and  C_14
REMARK    8  A    between atoms: C_14  and  C_15
REMARK    9  A    between atoms: C_15  and  O_16
REMARK   10  A    between atoms: O_16  and  C_17
REMARK   11  A    between atoms: C_17  and  C_18
REMARK                            x       y       z     vdW  Elec       q    Type
REMARK                         _______ _______ _______ _____ _____    ______ ____
ROOT
ATOM      1  C   UNL     1       3.823   6.385  -9.240  0.00  0.00    +0.139 A 
ATOM      2  C   UNL     1       4.821   5.762  -8.495  0.00  0.00    +0.037 A 
ATOM      3  C   UNL     1       4.674   5.550  -7.128  0.00  0.00    -0.001 A 
ATOM      4  C   UNL     1       3.529   5.977  -6.462  0.00  0.00    -0.019 A 
ATOM      5  C   UNL     1       2.853   7.002  -7.116  0.00  0.00    -0.001 A 
ATOM      6  C   UNL     1       3.000   7.212  -8.483  0.00  0.00    +0.037 A 
ENDROOT
BRANCH   1   7
ATOM      7  O   UNL     1       3.454   5.854 -10.459  0.00  0.00    -0.473 OA
BRANCH   7   8
ATOM      8  C   UNL     1       4.226   5.056 -11.288  0.00  0.00    +0.240 C 
BRANCH   8   9
ATOM      9  C   UNL     1       4.397   5.854 -12.718  0.00  0.00    +0.213 C 
ATOM     10  O   UNL     1       5.117   4.674 -13.346  0.00  0.00    -0.218 OA
BRANCH   9  11
ATOM     11  C   UNL     1       5.824   6.538 -12.257  0.00  0.00    +0.125 C 
BRANCH  11  12
ATOM     12  N   UNL     1       6.584   5.397 -11.823  0.00  0.00    -0.217 NA
BRANCH  12  14
ATOM     13  C   UNL     1       7.591   6.905 -10.734  0.00  0.00    +0.019 C 
ATOM     14  C   UNL     1       7.792   5.935 -11.199  0.00  0.00    +0.073 C 
ATOM     15  C   UNL     1       8.930   5.859 -12.210  0.00  0.00    +0.019 C 
ENDBRANCH  12  14
ENDBRANCH  11  12
ENDBRANCH   9  11
ENDBRANCH   8   9
ENDBRANCH   7   8
ENDBRANCH   1   7
BRANCH   4  16
ATOM     16  C   UNL     1       2.801   5.082  -5.505  0.00  0.00    +0.058 C 
BRANCH  16  17
ATOM     17  C   UNL     1       1.977   4.044  -6.209  0.00  0.00    +0.147 C 
BRANCH  17  18
ATOM     18  O   UNL     1       0.643   4.310  -5.894  0.00  0.00    -0.353 OA
BRANCH  18  19
ATOM     19  C   UNL     1       0.593   4.955  -4.672  0.00  0.00    +0.142 C 
BRANCH  19  20
ATOM     20  C   UNL     1      -0.638   5.813  -4.539  0.00  0.00    +0.030 C 
ATOM     21  C   UNL     1      -1.323   6.179  -5.808  0.00  0.00    +0.003 C 
ATOM     22  C   UNL     1      -0.457   7.217  -5.042  0.00  0.00    +0.003 C 
ENDBRANCH  19  20
ENDBRANCH  18  19
ENDBRANCH  17  18
ENDBRANCH  16  17
ENDBRANCH   4  16
TORSDOF 11
ENDMDL
MODEL 9
REMARK VINA RESULT:      -6.0      1.535      5.063
REMARK  Name = 
REMARK  11 active torsions:
REMARK  status: ('A' for Active; 'I' for Inactive)
REMARK    1  A    between atoms: C_2  and  N_4
REMARK    2  A    between atoms: N_4  and  C_5
REMARK    3  A    between atoms: C_5  and  C_6
REMARK    4  A    between atoms: C_6  and  C_8
REMARK    5  A    between atoms: C_8  and  O_9
REMARK    6  A    between atoms: O_9  and  C_10
REMARK    7  A    between atoms: C_13  and  C_14
REMARK    8  A    between atoms: C_14  and  C_15
REMARK    9  A    between atoms: C_15  and  O_16
REMARK   10  A    between atoms: O_16  and  C_17
REMARK   11  A    between atoms: C_17  and  C_18
REMARK                            x       y       z     vdW  Elec       q    Type
REMARK                         _______ _______ _______ _____ _____    ______ ____
ROOT
ATOM      1  C   UNL     1      -2.313   6.348  -2.185  0.00  0.00    +0.139 A 
ATOM      2  C   UNL     1      -2.935   5.375  -2.962  0.00  0.00    +0.037 A 
ATOM      3  C   UNL     1      -2.843   5.394  -4.351  0.00  0.00    -0.001 A 
ATOM      4  C   UNL     1      -2.141   6.403  -5.003  0.00  0.00    -0.019 A 
ATOM      5  C   UNL     1      -2.006   7.565  -4.249  0.00  0.00    -0.001 A 
ATOM      6  C   UNL     1      -2.097   7.544  -2.861  0.00  0.00    +0.037 A 
ENDROOT
BRANCH   1   7
ATOM      7  O   UNL     1      -1.604   5.970  -1.063  0.00  0.00    -0.473 OA
BRANCH   7   8
ATOM      8  C   UNL     1      -0.248   6.148  -0.835  0.00  0.00    +0.240 C 
BRANCH   8   9
ATOM      9  C   UNL     1       0.548   4.964  -1.656  0.00  0.00    +0.213 C 
ATOM     10  O   UNL     1       1.629   4.886  -0.593  0.00  0.00    -0.218 OA
BRANCH   9  11
ATOM     11  C   UNL     1       1.424   6.050  -2.533  0.00  0.00    +0.125 C 
BRANCH  11  12
ATOM     12  N   UNL     1       2.730   5.448  -2.549  0.00  0.00    -0.217 NA
BRANCH  12  14
ATOM     13  C   UNL     1       2.899   6.990  -3.987  0.00  0.00    +0.019 C 
ATOM     14  C   UNL     1       3.491   6.171  -3.568  0.00  0.00    +0.073 C 
ATOM     15  C   UNL     1       4.079   5.155  -4.540  0.00  0.00    +0.019 C 
ENDBRANCH  12  14
ENDBRANCH  11  12
ENDBRANCH   9  11
ENDBRANCH   8   9
ENDBRANCH   7   8
ENDBRANCH   1   7
BRANCH   4  16
ATOM     16  C   UNL     1      -1.165   6.096  -6.098  0.00  0.00    +0.058 C 
BRANCH  16  17
ATOM     17  C   UNL     1      -0.122   5.105  -5.671  0.00  0.00    +0.147 C 
BRANCH  17  18
ATOM     18  O   UNL     1       1.025   5.385  -6.416  0.00  0.00    -0.353 OA
BRANCH  18  19
ATOM     19  C   UNL     1       0.652   5.695  -7.711  0.00  0.00    +0.142 C 
BRANCH  19  20
ATOM     20  C   UNL     1       1.709   6.498  -8.424  0.00  0.00    +0.030 C 
ATOM     21  C   UNL     1       3.066   6.484  -7.814  0.00  0.00    +0.003 C 
ATOM     22  C   UNL     1       2.144   7.727  -7.677  0.00  0.00    +0.003 C 
ENDBRANCH  19  20
ENDBRANCH  18  19
ENDBRANCH  17  18
ENDBRANCH  16  17
ENDBRANCH   4  16
TORSDOF 11
ENDMDL
