MODEL 1
REMARK VINA RESULT:      -6.3      0.000      0.000
REMARK  Name = 
REMARK  5 active torsions:
REMARK  status: ('A' for Active; 'I' for Inactive)
REMARK    1  A    between atoms: C_2  and  C_3
REMARK    2  A    between atoms: C_2  and  O_14
REMARK    3  A    between atoms: C_3  and  N_4
REMARK    4  A    between atoms: O_14  and  C_15
REMARK    5  A    between atoms: C_15  and  P_16
REMARK                            x       y       z     vdW  Elec       q    Type
REMARK                         _______ _______ _______ _____ _____    ______ ____
ROOT
ATOM      1  N   UNL     1       1.286   6.077  -7.010  0.00  0.00    -0.292 N 
ATOM      2  C   UNL     1       2.338   5.654  -6.270  0.00  0.00    +0.167 A 
ATOM      3  N   UNL     1       2.598   4.533  -5.589  0.00  0.00    -0.205 NA
ATOM      4  C   UNL     1       3.770   4.429  -4.914  0.00  0.00    +0.202 A 
ATOM      5  N   UNL     1       4.251   5.567  -4.358  0.00  0.00    -0.204 NA
ATOM      6  C   UNL     1       4.040   6.754  -4.963  0.00  0.00    +0.192 A 
ATOM      7  N   UNL     1       4.420   7.999  -4.430  0.00  0.00    -0.105 NA
ATOM      8  C   UNL     1       3.168   6.740  -6.046  0.00  0.00    +0.152 A 
ATOM      9  N   UNL     1       2.901   7.590  -7.063  0.00  0.00    -0.219 NA
ATOM     10  C   UNL     1       1.742   7.180  -7.635  0.00  0.00    +0.180 A 
ENDROOT
BRANCH   1  11
ATOM     11  C   UNL     1      -0.083   5.578  -6.928  0.00  0.00    +0.138 C 
BRANCH  11  13
ATOM     12  C   UNL     1      -2.293   6.044  -6.109  0.00  0.00    +0.034 C 
ATOM     13  C   UNL     1      -0.730   6.467  -5.655  0.00  0.00    +0.138 C 
BRANCH  13  14
ATOM     14  O   UNL     1      -0.628   5.251  -4.704  0.00  0.00    -0.346 OA
BRANCH  14  15
ATOM     15  C   UNL     1      -0.355   5.880  -3.504  0.00  0.00    +0.200 C 
BRANCH  15  16
ATOM     16  P   UNL     1      -1.669   5.783  -2.294  0.00  0.00    +0.147 P 
ATOM     17  O   UNL     1      -2.886   4.689  -2.717  0.00  0.00    -0.355 OA
ATOM     18  O   UNL     1      -2.415   7.302  -2.210  0.00  0.00    -0.355 OA
ATOM     19  O   UNL     1      -1.189   5.401  -0.914  0.00  0.00    -0.458 OA
ENDBRANCH  15  16
ENDBRANCH  14  15
ENDBRANCH  13  14
ENDBRANCH  11  13
ENDBRANCH   1  11
TORSDOF 5
ENDMDL
MODEL 2
REMARK VINA RESULT:      -6.1      5.131      6.294
REMARK  Name = 
REMARK  5 active torsions:
REMARK  status: ('A' for Active; 'I' for Inactive)
REMARK    1  A    between atoms: C_2  and  C_3
REMARK    2  A    between atoms: C_2  and  O_14
REMARK    3  A    between atoms: C_3  and  N_4
REMARK    4  A    between atoms: O_14  and  C_15
REMARK    5  A    between atoms: C_15  and  P_16
REMARK                            x       y       z     vdW  Elec       q    Type
REMARK                         _______ _______ _______ _____ _____    ______ ____
ROOT
ATOM      1  N   UNL     1       4.742   5.133  -9.649  0.00  0.00    -0.292 N 
ATOM      2  C   UNL     1       4.860   5.374 -10.977  0.00  0.00    +0.167 A 
ATOM      3  N   UNL     1       4.009   5.312 -12.007  0.00  0.00    -0.205 NA
ATOM      4  C   UNL     1       4.461   5.601 -13.252  0.00  0.00    +0.202 A 
ATOM      5  N   UNL     1       5.736   5.237 -13.534  0.00  0.00    -0.204 NA
ATOM      6  C   UNL     1       6.673   5.258 -12.563  0.00  0.00    +0.192 A 
ATOM      7  N   UNL     1       7.999   4.820 -12.727  0.00  0.00    -0.105 NA
ATOM      8  C   UNL     1       6.209   5.487 -11.273  0.00  0.00    +0.152 A 
ATOM      9  N   UNL     1       6.785   5.852 -10.106  0.00  0.00    -0.219 NA
ATOM     10  C   UNL     1       5.882   5.619  -9.121  0.00  0.00    +0.180 A 
ENDROOT
BRANCH   1  11
ATOM     11  C   UNL     1       3.721   4.310  -9.009  0.00  0.00    +0.138 C 
BRANCH  11  13
ATOM     12  C   UNL     1       1.424   4.896  -9.398  0.00  0.00    +0.034 C 
ATOM     13  C   UNL     1       2.652   5.452  -8.392  0.00  0.00    +0.138 C 
BRANCH  13  14
ATOM     14  O   UNL     1       2.220   4.491  -7.259  0.00  0.00    -0.346 OA
BRANCH  14  15
ATOM     15  C   UNL     1       1.826   5.392  -6.288  0.00  0.00    +0.200 C 
BRANCH  15  16
ATOM     16  P   UNL     1       3.135   5.933  -5.195  0.00  0.00    +0.147 P 
ATOM     17  O   UNL     1       2.640   6.088  -3.587  0.00  0.00    -0.355 OA
ATOM     18  O   UNL     1       3.618   7.481  -5.686  0.00  0.00    -0.355 OA
ATOM     19  O   UNL     1       4.340   5.023  -5.204  0.00  0.00    -0.458 OA
ENDBRANCH  15  16
ENDBRANCH  14  15
ENDBRANCH  13  14
ENDBRANCH  11  13
ENDBRANCH   1  11
TORSDOF 5
ENDMDL
MODEL 3
REMARK VINA RESULT:      -6.0      4.646      6.506
REMARK  Name = 
REMARK  5 active torsions:
REMARK  status: ('A' for Active; 'I' for Inactive)
REMARK    1  A    between atoms: C_2  and  C_3
REMARK    2  A    between atoms: C_2  and  O_14
REMARK    3  A    between atoms: C_3  and  N_4
REMARK    4  A    between atoms: O_14  and  C_15
REMARK    5  A    between atoms: C_15  and  P_16
REMARK                            x       y       z     vdW  Elec       q    Type
REMARK                         _______ _______ _______ _____ _____    ______ ____
ROOT
ATOM      1  N   UNL     1       0.666   5.213  -5.355  0.00  0.00    -0.292 N 
ATOM      2  C   UNL     1       0.467   5.387  -4.027  0.00  0.00    +0.167 A 
ATOM      3  N   UNL     1       1.238   5.223  -2.947  0.00  0.00    -0.205 NA
ATOM      4  C   UNL     1       0.714   5.467  -1.721  0.00  0.00    +0.202 A 
ATOM      5  N   UNL     1      -0.594   5.157  -1.548  0.00  0.00    -0.204 NA
ATOM      6  C   UNL     1      -1.458   5.282  -2.577  0.00  0.00    +0.192 A 
ATOM      7  N   UNL     1      -2.812   4.907  -2.530  0.00  0.00    -0.105 NA
ATOM      8  C   UNL     1      -0.892   5.555  -3.817  0.00  0.00    +0.152 A 
ATOM      9  N   UNL     1      -1.366   6.015  -4.997  0.00  0.00    -0.219 NA
ATOM     10  C   UNL     1      -0.408   5.788  -5.930  0.00  0.00    +0.180 A 
ENDROOT
BRANCH   1  11
ATOM     11  C   UNL     1       1.687   4.372  -5.972  0.00  0.00    +0.138 C 
BRANCH  11  13
ATOM     12  C   UNL     1       3.710   5.669  -5.951  0.00  0.00    +0.034 C 
ATOM     13  C   UNL     1       2.449   5.428  -7.037  0.00  0.00    +0.138 C 
BRANCH  13  14
ATOM     14  O   UNL     1       3.199   4.260  -7.719  0.00  0.00    -0.346 OA
BRANCH  14  15
ATOM     15  C   UNL     1       3.021   4.577  -9.053  0.00  0.00    +0.200 C 
BRANCH  15  16
ATOM     16  P   UNL     1       4.375   5.484  -9.791  0.00  0.00    +0.147 P 
ATOM     17  O   UNL     1       5.829   5.315  -8.947  0.00  0.00    -0.355 OA
ATOM     18  O   UNL     1       3.991   7.133  -9.735  0.00  0.00    -0.355 OA
ATOM     19  O   UNL     1       4.647   5.097 -11.225  0.00  0.00    -0.458 OA
ENDBRANCH  15  16
ENDBRANCH  14  15
ENDBRANCH  13  14
ENDBRANCH  11  13
ENDBRANCH   1  11
TORSDOF 5
ENDMDL
MODEL 4
REMARK VINA RESULT:      -6.0      2.304      3.337
REMARK  Name = 
REMARK  5 active torsions:
REMARK  status: ('A' for Active; 'I' for Inactive)
REMARK    1  A    between atoms: C_2  and  C_3
REMARK    2  A    between atoms: C_2  and  O_14
REMARK    3  A    between atoms: C_3  and  N_4
REMARK    4  A    between atoms: O_14  and  C_15
REMARK    5  A    between atoms: C_15  and  P_16
REMARK                            x       y       z     vdW  Elec       q    Type
REMARK                         _______ _______ _______ _____ _____    ______ ____
ROOT
ATOM      1  N   UNL     1       3.666   6.267  -4.271  0.00  0.00    -0.292 N 
ATOM      2  C   UNL     1       3.956   5.871  -3.009  0.00  0.00    +0.167 A 
ATOM      3  N   UNL     1       3.749   4.742  -2.324  0.00  0.00    -0.205 NA
ATOM      4  C   UNL     1       4.152   4.673  -1.031  0.00  0.00    +0.202 A 
ATOM      5  N   UNL     1       4.056   5.813  -0.305  0.00  0.00    -0.204 NA
ATOM      6  C   UNL     1       4.242   7.009  -0.902  0.00  0.00    +0.192 A 
ATOM      7  N   UNL     1       4.080   8.252  -0.263  0.00  0.00    -0.105 NA
ATOM      8  C   UNL     1       4.342   6.989  -2.288  0.00  0.00    +0.152 A 
ATOM      9  N   UNL     1       4.789   7.860  -3.221  0.00  0.00    -0.219 NA
ATOM     10  C   UNL     1       4.357   7.413  -4.427  0.00  0.00    +0.180 A 
ENDROOT
BRANCH   1  11
ATOM     11  C   UNL     1       2.640   5.698  -5.140  0.00  0.00    +0.138 C 
BRANCH  11  13
ATOM     12  C   UNL     1       0.642   6.495  -6.209  0.00  0.00    +0.034 C 
ATOM     13  C   UNL     1       1.243   6.488  -4.638  0.00  0.00    +0.138 C 
BRANCH  13  14
ATOM     14  O   UNL     1       0.547   5.141  -4.329  0.00  0.00    -0.346 OA
BRANCH  14  15
ATOM     15  C   UNL     1      -0.049   5.427  -3.115  0.00  0.00    +0.200 C 
BRANCH  15  16
ATOM     16  P   UNL     1      -1.792   5.819  -3.212  0.00  0.00    +0.147 P 
ATOM     17  O   UNL     1      -2.134   7.432  -2.846  0.00  0.00    -0.355 OA
ATOM     18  O   UNL     1      -2.601   4.894  -2.046  0.00  0.00    -0.355 OA
ATOM     19  O   UNL     1      -2.398   5.533  -4.565  0.00  0.00    -0.458 OA
ENDBRANCH  15  16
ENDBRANCH  14  15
ENDBRANCH  13  14
ENDBRANCH  11  13
ENDBRANCH   1  11
TORSDOF 5
ENDMDL
MODEL 5
REMARK VINA RESULT:      -6.0      4.004      5.790
REMARK  Name = 
REMARK  5 active torsions:
REMARK  status: ('A' for Active; 'I' for Inactive)
REMARK    1  A    between atoms: C_2  and  C_3
REMARK    2  A    between atoms: C_2  and  O_14
REMARK    3  A    between atoms: C_3  and  N_4
REMARK    4  A    between atoms: O_14  and  C_15
REMARK    5  A    between atoms: C_15  and  P_16
REMARK                            x       y       z     vdW  Elec       q    Type
REMARK                         _______ _______ _______ _____ _____    ______ ____
ROOT
ATOM      1  N   UNL     1       0.910   6.188  -5.054  0.00  0.00    -0.292 N 
ATOM      2  C   UNL     1       0.635   5.950  -3.750  0.00  0.00    +0.167 A 
ATOM      3  N   UNL     1       1.363   5.516  -2.716  0.00  0.00    -0.205 NA
ATOM      4  C   UNL     1       0.765   5.357  -1.510  0.00  0.00    +0.202 A 
ATOM      5  N   UNL     1      -0.525   4.939  -1.524  0.00  0.00    -0.204 NA
ATOM      6  C   UNL     1      -1.345   5.316  -2.527  0.00  0.00    +0.192 A 
ATOM      7  N   UNL     1      -2.669   4.870  -2.683  0.00  0.00    -0.105 NA
ATOM      8  C   UNL     1      -0.741   5.974  -3.592  0.00  0.00    +0.152 A 
ATOM      9  N   UNL     1      -1.189   6.736  -4.615  0.00  0.00    -0.219 NA
ATOM     10  C   UNL     1      -0.174   6.848  -5.507  0.00  0.00    +0.180 A 
ENDROOT
BRANCH   1  11
ATOM     11  C   UNL     1       2.018   5.625  -5.820  0.00  0.00    +0.138 C 
BRANCH  11  13
ATOM     12  C   UNL     1       4.323   6.301  -5.768  0.00  0.00    +0.034 C 
ATOM     13  C   UNL     1       2.880   6.990  -6.291  0.00  0.00    +0.138 C 
BRANCH  13  14
ATOM     14  O   UNL     1       3.074   6.421  -7.717  0.00  0.00    -0.346 OA
BRANCH  14  15
ATOM     15  C   UNL     1       2.155   7.172  -8.426  0.00  0.00    +0.200 C 
BRANCH  15  16
ATOM     16  P   UNL     1       1.112   6.228  -9.530  0.00  0.00    +0.147 P 
ATOM     17  O   UNL     1       1.974   5.141 -10.495  0.00  0.00    -0.355 OA
ATOM     18  O   UNL     1       0.368   7.312 -10.599  0.00  0.00    -0.355 OA
ATOM     19  O   UNL     1       0.042   5.437  -8.818  0.00  0.00    -0.458 OA
ENDBRANCH  15  16
ENDBRANCH  14  15
ENDBRANCH  13  14
ENDBRANCH  11  13
ENDBRANCH   1  11
TORSDOF 5
ENDMDL
MODEL 6
REMARK VINA RESULT:      -6.0      4.378      6.142
REMARK  Name = 
REMARK  5 active torsions:
REMARK  status: ('A' for Active; 'I' for Inactive)
REMARK    1  A    between atoms: C_2  and  C_3
REMARK    2  A    between atoms: C_2  and  O_14
REMARK    3  A    between atoms: C_3  and  N_4
REMARK    4  A    between atoms: O_14  and  C_15
REMARK    5  A    between atoms: C_15  and  P_16
REMARK                            x       y       z     vdW  Elec       q    Type
REMARK                         _______ _______ _______ _____ _____    ______ ____
ROOT
ATOM      1  N   UNL     1       1.158   6.149  -4.958  0.00  0.00    -0.292 N 
ATOM      2  C   UNL     1       0.789   5.980  -3.666  0.00  0.00    +0.167 A 
ATOM      3  N   UNL     1       1.442   5.616  -2.557  0.00  0.00    -0.205 NA
ATOM      4  C   UNL     1       0.757   5.516  -1.392  0.00  0.00    +0.202 A 
ATOM      5  N   UNL     1      -0.523   5.078  -1.477  0.00  0.00    -0.204 NA
ATOM      6  C   UNL     1      -1.270   5.386  -2.558  0.00  0.00    +0.192 A 
ATOM      7  N   UNL     1      -2.574   4.913  -2.786  0.00  0.00    -0.105 NA
ATOM      8  C   UNL     1      -0.595   5.993  -3.612  0.00  0.00    +0.152 A 
ATOM      9  N   UNL     1      -0.974   6.689  -4.707  0.00  0.00    -0.219 NA
ATOM     10  C   UNL     1       0.104   6.766  -5.526  0.00  0.00    +0.180 A 
ENDROOT
BRANCH   1  11
ATOM     11  C   UNL     1       2.326   5.560  -5.605  0.00  0.00    +0.138 C 
BRANCH  11  13
ATOM     12  C   UNL     1       4.425   6.478  -4.881  0.00  0.00    +0.034 C 
ATOM     13  C   UNL     1       3.251   6.906  -6.007  0.00  0.00    +0.138 C 
BRANCH  13  14
ATOM     14  O   UNL     1       3.975   6.122  -7.127  0.00  0.00    -0.346 OA
BRANCH  14  15
ATOM     15  C   UNL     1       3.162   6.401  -8.209  0.00  0.00    +0.200 C 
BRANCH  15  16
ATOM     16  P   UNL     1       3.091   5.108  -9.443  0.00  0.00    +0.147 P 
ATOM     17  O   UNL     1       1.853   5.330 -10.571  0.00  0.00    -0.355 OA
ATOM     18  O   UNL     1       2.745   3.650  -8.652  0.00  0.00    -0.355 OA
ATOM     19  O   UNL     1       4.375   4.947 -10.220  0.00  0.00    -0.458 OA
ENDBRANCH  15  16
ENDBRANCH  14  15
ENDBRANCH  13  14
ENDBRANCH  11  13
ENDBRANCH   1  11
TORSDOF 5
ENDMDL
MODEL 7
REMARK VINA RESULT:      -5.9      5.842      7.117
REMARK  Name = 
REMARK  5 active torsions:
REMARK  status: ('A' for Active; 'I' for Inactive)
REMARK    1  A    between atoms: C_2  and  C_3
REMARK    2  A    between atoms: C_2  and  O_14
REMARK    3  A    between atoms: C_3  and  N_4
REMARK    4  A    between atoms: O_14  and  C_15
REMARK    5  A    between atoms: C_15  and  P_16
REMARK                            x       y       z     vdW  Elec       q    Type
REMARK                         _______ _______ _______ _____ _____    ______ ____
ROOT
ATOM      1  N   UNL     1       3.963   6.286 -11.789  0.00  0.00    -0.292 N 
ATOM      2  C   UNL     1       5.114   6.040 -12.458  0.00  0.00    +0.167 A 
ATOM      3  N   UNL     1       5.392   5.566 -13.677  0.00  0.00    -0.205 NA
ATOM      4  C   UNL     1       6.688   5.413 -14.045  0.00  0.00    +0.202 A 
ATOM      5  N   UNL     1       7.553   5.041 -13.070  0.00  0.00    -0.204 NA
ATOM      6  C   UNL     1       7.362   5.460 -11.802  0.00  0.00    +0.192 A 
ATOM      7  N   UNL     1       8.147   5.065 -10.705  0.00  0.00    -0.105 NA
ATOM      8  C   UNL     1       6.159   6.112 -11.551  0.00  0.00    +0.152 A 
ATOM      9  N   UNL     1       5.696   6.903 -10.558  0.00  0.00    -0.219 NA
ATOM     10  C   UNL     1       4.351   6.990 -10.708  0.00  0.00    +0.180 A 
ENDROOT
BRANCH   1  11
ATOM     11  C   UNL     1       2.659   5.694 -12.069  0.00  0.00    +0.138 C 
BRANCH  11  13
ATOM     12  C   UNL     1       0.355   6.348 -11.876  0.00  0.00    +0.034 C 
ATOM     13  C   UNL     1       1.689   6.333 -10.852  0.00  0.00    +0.138 C 
BRANCH  13  14
ATOM     14  O   UNL     1       1.335   4.917 -10.339  0.00  0.00    -0.346 OA
BRANCH  14  15
ATOM     15  C   UNL     1       1.237   5.147  -8.980  0.00  0.00    +0.200 C 
BRANCH  15  16
ATOM     16  P   UNL     1       2.690   4.694  -8.040  0.00  0.00    +0.147 P 
ATOM     17  O   UNL     1       3.885   3.951  -8.975  0.00  0.00    -0.355 OA
ATOM     18  O   UNL     1       2.226   3.549  -6.881  0.00  0.00    -0.355 OA
ATOM     19  O   UNL     1       3.340   5.861  -7.336  0.00  0.00    -0.458 OA
ENDBRANCH  15  16
ENDBRANCH  14  15
ENDBRANCH  13  14
ENDBRANCH  11  13
ENDBRANCH   1  11
TORSDOF 5
ENDMDL
MODEL 8
REMARK VINA RESULT:      -5.9      4.244      6.045
REMARK  Name = 
REMARK  5 active torsions:
REMARK  status: ('A' for Active; 'I' for Inactive)
REMARK    1  A    between atoms: C_2  and  C_3
REMARK    2  A    between atoms: C_2  and  O_14
REMARK    3  A    between atoms: C_3  and  N_4
REMARK    4  A    between atoms: O_14  and  C_15
REMARK    5  A    between atoms: C_15  and  P_16
REMARK                            x       y       z     vdW  Elec       q    Type
REMARK                         _______ _______ _______ _____ _____    ______ ____
ROOT
ATOM      1  N   UNL     1       0.705   6.356  -5.086  0.00  0.00    -0.292 N 
ATOM      2  C   UNL     1       0.563   6.015  -3.783  0.00  0.00    +0.167 A 
ATOM      3  N   UNL     1       1.378   5.463  -2.878  0.00  0.00    -0.205 NA
ATOM      4  C   UNL     1       0.909   5.223  -1.629  0.00  0.00    +0.202 A 
ATOM      5  N   UNL     1      -0.394   4.861  -1.531  0.00  0.00    -0.204 NA
ATOM      6  C   UNL     1      -1.299   5.358  -2.398  0.00  0.00    +0.192 A 
ATOM      7  N   UNL     1      -2.654   4.983  -2.439  0.00  0.00    -0.105 NA
ATOM      8  C   UNL     1      -0.784   6.083  -3.468  0.00  0.00    +0.152 A 
ATOM      9  N   UNL     1      -1.303   6.949  -4.366  0.00  0.00    -0.219 NA
ATOM     10  C   UNL     1      -0.388   7.097  -5.356  0.00  0.00    +0.180 A 
ENDROOT
BRANCH   1  11
ATOM     11  C   UNL     1       1.691   5.817  -6.017  0.00  0.00    +0.138 C 
BRANCH  11  13
ATOM     12  C   UNL     1       3.074   6.815  -7.709  0.00  0.00    +0.034 C 
ATOM     13  C   UNL     1       1.422   6.718  -7.411  0.00  0.00    +0.138 C 
BRANCH  13  14
ATOM     14  O   UNL     1       1.298   5.433  -8.264  0.00  0.00    -0.346 OA
BRANCH  14  15
ATOM     15  C   UNL     1       0.136   5.694  -8.964  0.00  0.00    +0.200 C 
BRANCH  15  16
ATOM     16  P   UNL     1       0.372   6.036 -10.703  0.00  0.00    +0.147 P 
ATOM     17  O   UNL     1      -0.559   7.331 -11.261  0.00  0.00    -0.355 OA
ATOM     18  O   UNL     1      -0.143   4.680 -11.578  0.00  0.00    -0.355 OA
ATOM     19  O   UNL     1       1.807   6.333 -11.068  0.00  0.00    -0.458 OA
ENDBRANCH  15  16
ENDBRANCH  14  15
ENDBRANCH  13  14
ENDBRANCH  11  13
ENDBRANCH   1  11
TORSDOF 5
ENDMDL
MODEL 9
REMARK VINA RESULT:      -5.9      5.977      7.808
REMARK  Name = 
REMARK  5 active torsions:
REMARK  status: ('A' for Active; 'I' for Inactive)
REMARK    1  A    between atoms: C_2  and  C_3
REMARK    2  A    between atoms: C_2  and  O_14
REMARK    3  A    between atoms: C_3  and  N_4
REMARK    4  A    between atoms: O_14  and  C_15
REMARK    5  A    between atoms: C_15  and  P_16
REMARK                            x       y       z     vdW  Elec       q    Type
REMARK                         _______ _______ _______ _____ _____    ______ ____
ROOT
ATOM      1  N   UNL     1       2.232   5.340  -8.127  0.00  0.00    -0.292 N 
ATOM      2  C   UNL     1       1.024   5.232  -7.525  0.00  0.00    +0.167 A 
ATOM      3  N   UNL     1      -0.213   5.612  -7.860  0.00  0.00    -0.205 NA
ATOM      4  C   UNL     1      -1.233   5.369  -6.999  0.00  0.00    +0.202 A 
ATOM      5  N   UNL     1      -0.942   5.450  -5.678  0.00  0.00    -0.204 NA
ATOM      6  C   UNL     1       0.281   5.095  -5.234  0.00  0.00    +0.192 A 
ATOM      7  N   UNL     1       0.713   5.222  -3.902  0.00  0.00    -0.105 NA
ATOM      8  C   UNL     1       1.234   4.837  -6.214  0.00  0.00    +0.152 A 
ATOM      9  N   UNL     1       2.433   4.213  -6.232  0.00  0.00    -0.219 NA
ATOM     10  C   UNL     1       3.037   4.540  -7.402  0.00  0.00    +0.180 A 
ENDROOT
BRANCH   1  11
ATOM     11  C   UNL     1       2.598   6.303  -9.161  0.00  0.00    +0.138 C 
BRANCH  11  13
ATOM     12  C   UNL     1       2.037   5.883 -11.458  0.00  0.00    +0.034 C 
ATOM     13  C   UNL     1       3.206   5.325 -10.386  0.00  0.00    +0.138 C 
BRANCH  13  14
ATOM     14  O   UNL     1       4.199   6.427 -10.826  0.00  0.00    -0.346 OA
BRANCH  14  15
ATOM     15  C   UNL     1       5.385   5.717 -10.847  0.00  0.00    +0.200 C 
BRANCH  15  16
ATOM     16  P   UNL     1       6.108   5.520 -12.471  0.00  0.00    +0.147 P 
ATOM     17  O   UNL     1       7.560   4.654 -12.454  0.00  0.00    -0.355 OA
ATOM     18  O   UNL     1       6.491   7.060 -13.063  0.00  0.00    -0.355 OA
ATOM     19  O   UNL     1       5.194   4.833 -13.457  0.00  0.00    -0.458 OA
ENDBRANCH  15  16
ENDBRANCH  14  15
ENDBRANCH  13  14
ENDBRANCH  11  13
ENDBRANCH   1  11
TORSDOF 5
ENDMDL
