MODEL 1
REMARK VINA RESULT:      -8.3      0.000      0.000
REMARK  Name = 
REMARK  10 active torsions:
REMARK  status: ('A' for Active; 'I' for Inactive)
REMARK    1  A    between atoms: C_2  and  O_3
REMARK    2  A    between atoms: O_3  and  C_4
REMARK    3  A    between atoms: C_4  and  C_6
REMARK    4  A    between atoms: C_6  and  C_7
REMARK    5  A    between atoms: C_6  and  N_15
REMARK    6  A    between atoms: C_7  and  C_8
REMARK    7  A    between atoms: C_8  and  C_9
REMARK    8  A    between atoms: N_15  and  CA_16
REMARK    9  A    between atoms: CA_16  and  C_18
REMARK   10  A    between atoms: CA_24  and  C_25
REMARK                            x       y       z     vdW  Elec       q    Type
REMARK                         _______ _______ _______ _____ _____    ______ ____
ROOT
ATOM      1  C   UNK A   0       3.077   5.251  -6.818  0.00  0.00    +0.172 C 
ENDROOT
BRANCH   1   2
ATOM      2  C   UNK A   0       4.218   5.695  -5.771  0.00  0.00    +0.333 C 
ATOM      3  O   UNK A   0       4.570   4.885  -4.916  0.00  0.00    -0.249 OA
BRANCH   2   4
ATOM      4  O   UNK A   0       4.106   7.053  -5.442  0.00  0.00    -0.448 OA
BRANCH   4   6
ATOM      5  C   UNK A   0       4.563   7.932  -3.367  0.00  0.00    +0.051 C 
ATOM      6  C   UNK A   0       5.020   7.493  -4.456  0.00  0.00    +0.209 C 
ENDBRANCH   4   6
ENDBRANCH   2   4
ENDBRANCH   1   2
BRANCH   1   7
ATOM      7  N   ALA A   1       2.144   6.422  -6.358  0.00  0.00    -0.201 NA
BRANCH   7   8
ATOM      8  CA  ALA A   1       0.710   5.784  -6.344  0.00  0.00    +0.149 C 
ATOM      9  CB  ALA A   1       1.085   4.418  -5.502  0.00  0.00    +0.029 C 
BRANCH   8  10
ATOM     10  C   ALA A   1       0.313   6.587  -5.002  0.00  0.00    +0.242 C 
ATOM     11  N   PRO A   2      -0.954   6.146  -4.577  0.00  0.00    -0.270 N 
ATOM     12  CA  PRO A   2      -1.385   6.584  -3.128  0.00  0.00    +0.179 C 
ATOM     13  CB  PRO A   2      -1.896   8.042  -3.693  0.00  0.00    +0.033 C 
ATOM     14  CG  PRO A   2      -2.633   7.656  -4.924  0.00  0.00    +0.024 C 
ATOM     15  CD  PRO A   2      -2.103   6.346  -5.409  0.00  0.00    +0.094 C 
ATOM     16  O   ALA A   1       1.199   7.104  -4.337  0.00  0.00    -0.273 OA
BRANCH  12  17
ATOM     17  C   PRO A   2      -2.840   5.896  -3.251  0.00  0.00    +0.382 C 
ATOM     18  OXT PRO A   2      -2.791   4.514  -3.360  0.00  0.00    -0.244 OA
ATOM     19  O   PRO A   2      -3.808   6.521  -2.828  0.00  0.00    -0.244 OA
ENDBRANCH  12  17
ENDBRANCH   8  10
ENDBRANCH   7   8
ENDBRANCH   1   7
BRANCH   1  20
ATOM     20  C   UNK A   0       3.704   6.144  -8.052  0.00  0.00    +0.033 C 
BRANCH  20  21
ATOM     21  C   UNK A   0       4.948   5.291  -8.268  0.00  0.00    +0.028 C 
BRANCH  21  22
ATOM     22  C   UNK A   0       5.647   5.648  -9.544  0.00  0.00    -0.022 A 
ATOM     23  C   UNK A   0       4.952   6.584 -10.303  0.00  0.00    -0.004 A 
ATOM     24  C   UNK A   0       5.577   7.532 -11.078  0.00  0.00    -0.000 A 
ATOM     25  C   UNK A   0       6.938   7.732 -10.937  0.00  0.00    -0.000 A 
ATOM     26  C   UNK A   0       7.673   6.745 -10.315  0.00  0.00    -0.000 A 
ATOM     27  C   UNK A   0       7.029   5.801  -9.554  0.00  0.00    -0.004 A 
ENDBRANCH  21  22
ENDBRANCH  20  21
ENDBRANCH   1  20
TORSDOF 10
ENDMDL
MODEL 2
REMARK VINA RESULT:      -8.1      2.990      4.201
REMARK  Name = 
REMARK  10 active torsions:
REMARK  status: ('A' for Active; 'I' for Inactive)
REMARK    1  A    between atoms: C_2  and  O_3
REMARK    2  A    between atoms: O_3  and  C_4
REMARK    3  A    between atoms: C_4  and  C_6
REMARK    4  A    between atoms: C_6  and  C_7
REMARK    5  A    between atoms: C_6  and  N_15
REMARK    6  A    between atoms: C_7  and  C_8
REMARK    7  A    between atoms: C_8  and  C_9
REMARK    8  A    between atoms: N_15  and  CA_16
REMARK    9  A    between atoms: CA_16  and  C_18
REMARK   10  A    between atoms: CA_24  and  C_25
REMARK                            x       y       z     vdW  Elec       q    Type
REMARK                         _______ _______ _______ _____ _____    ______ ____
ROOT
ATOM      1  C   UNK A   0       1.401   5.159  -8.144  0.00  0.00    +0.172 C 
ENDROOT
BRANCH   1   2
ATOM      2  C   UNK A   0       2.404   6.316  -8.643  0.00  0.00    +0.333 C 
ATOM      3  O   UNK A   0       1.944   7.440  -8.839  0.00  0.00    -0.249 OA
BRANCH   2   4
ATOM      4  O   UNK A   0       3.384   5.804  -9.503  0.00  0.00    -0.448 OA
BRANCH   4   6
ATOM      5  C   UNK A   0       4.150   5.921 -11.668  0.00  0.00    +0.051 C 
ATOM      6  C   UNK A   0       3.454   6.448 -10.760  0.00  0.00    +0.209 C 
ENDBRANCH   4   6
ENDBRANCH   2   4
ENDBRANCH   1   2
BRANCH   1   7
ATOM      7  N   ALA A   1       0.984   6.004  -6.894  0.00  0.00    -0.201 NA
BRANCH   7   8
ATOM      8  CA  ALA A   1       0.673   4.929  -5.793  0.00  0.00    +0.149 C 
ATOM      9  CB  ALA A   1       2.200   4.780  -5.193  0.00  0.00    +0.029 C 
BRANCH   8  10
ATOM     10  C   ALA A   1       0.287   6.070  -4.719  0.00  0.00    +0.242 C 
ATOM     11  N   PRO A   2      -0.998   5.791  -4.216  0.00  0.00    -0.270 N 
ATOM     12  CA  PRO A   2      -1.429   6.610  -2.942  0.00  0.00    +0.179 C 
ATOM     13  CB  PRO A   2      -1.890   7.879  -3.883  0.00  0.00    +0.033 C 
ATOM     14  CG  PRO A   2      -2.627   7.199  -4.980  0.00  0.00    +0.024 C 
ATOM     15  CD  PRO A   2      -2.131   5.794  -5.091  0.00  0.00    +0.094 C 
ATOM     16  O   ALA A   1       1.181   6.721  -4.200  0.00  0.00    -0.273 OA
BRANCH  12  17
ATOM     17  C   PRO A   2      -2.903   5.953  -2.904  0.00  0.00    +0.382 C 
ATOM     18  OXT PRO A   2      -2.889   4.569  -2.811  0.00  0.00    -0.244 OA
ATOM     19  O   PRO A   2      -3.838   6.659  -2.539  0.00  0.00    -0.244 OA
ENDBRANCH  12  17
ENDBRANCH   8  10
ENDBRANCH   7   8
ENDBRANCH   1   7
BRANCH   1  20
ATOM     20  C   UNK A   0       0.132   5.720  -9.033  0.00  0.00    +0.033 C 
BRANCH  20  21
ATOM     21  C   UNK A   0       0.225   4.681 -10.143  0.00  0.00    +0.028 C 
BRANCH  21  22
ATOM     22  C   UNK A   0      -0.078   5.276 -11.483  0.00  0.00    -0.022 A 
ATOM     23  C   UNK A   0      -0.281   6.652 -11.436  0.00  0.00    -0.004 A 
ATOM     24  C   UNK A   0       0.080   7.498 -12.457  0.00  0.00    -0.000 A 
ATOM     25  C   UNK A   0       0.880   7.022 -13.480  0.00  0.00    -0.000 A 
ATOM     26  C   UNK A   0       0.979   5.655 -13.638  0.00  0.00    -0.000 A 
ATOM     27  C   UNK A   0       0.604   4.827 -12.609  0.00  0.00    -0.004 A 
ENDBRANCH  21  22
ENDBRANCH  20  21
ENDBRANCH   1  20
TORSDOF 10
ENDMDL
MODEL 3
REMARK VINA RESULT:      -8.1      2.784      5.235
REMARK  Name = 
REMARK  10 active torsions:
REMARK  status: ('A' for Active; 'I' for Inactive)
REMARK    1  A    between atoms: C_2  and  O_3
REMARK    2  A    between atoms: O_3  and  C_4
REMARK    3  A    between atoms: C_4  and  C_6
REMARK    4  A    between atoms: C_6  and  C_7
REMARK    5  A    between atoms: C_6  and  N_15
REMARK    6  A    between atoms: C_7  and  C_8
REMARK    7  A    between atoms: C_8  and  C_9
REMARK    8  A    between atoms: N_15  and  CA_16
REMARK    9  A    between atoms: CA_16  and  C_18
REMARK   10  A    between atoms: CA_24  and  C_25
REMARK                            x       y       z     vdW  Elec       q    Type
REMARK                         _______ _______ _______ _____ _____    ______ ____
ROOT
ATOM      1  C   UNK A   0       1.883   6.396  -9.078  0.00  0.00    +0.172 C 
ENDROOT
BRANCH   1   2
ATOM      2  C   UNK A   0       0.873   6.325 -10.330  0.00  0.00    +0.333 C 
ATOM      3  O   UNK A   0       0.226   7.332 -10.614  0.00  0.00    -0.249 OA
BRANCH   2   4
ATOM      4  O   UNK A   0       0.277   5.061 -10.433  0.00  0.00    -0.448 OA
BRANCH   4   6
ATOM      5  C   UNK A   0       0.665   4.686 -12.668  0.00  0.00    +0.051 C 
ATOM      6  C   UNK A   0      -0.176   4.731 -11.732  0.00  0.00    +0.209 C 
ENDBRANCH   4   6
ENDBRANCH   2   4
ENDBRANCH   1   2
BRANCH   1   7
ATOM      7  N   ALA A   1       1.035   5.345  -8.285  0.00  0.00    -0.201 NA
BRANCH   7   8
ATOM      8  CA  ALA A   1       0.598   6.109  -6.985  0.00  0.00    +0.149 C 
ATOM      9  CB  ALA A   1      -0.744   5.216  -6.645  0.00  0.00    +0.029 C 
BRANCH   8  10
ATOM     10  C   ALA A   1       1.538   5.177  -6.063  0.00  0.00    +0.242 C 
ATOM     11  N   PRO A   2       2.338   6.009  -5.257  0.00  0.00    -0.270 N 
ATOM     12  CA  PRO A   2       3.101   5.297  -4.078  0.00  0.00    +0.179 C 
ATOM     13  CB  PRO A   2       4.308   4.843  -5.100  0.00  0.00    +0.033 C 
ATOM     14  CG  PRO A   2       4.533   6.085  -5.885  0.00  0.00    +0.024 C 
ATOM     15  CD  PRO A   2       3.283   6.902  -5.859  0.00  0.00    +0.094 C 
ATOM     16  O   ALA A   1       1.208   4.017  -5.863  0.00  0.00    -0.273 OA
BRANCH  12  17
ATOM     17  C   PRO A   2       3.845   6.654  -3.617  0.00  0.00    +0.382 C 
ATOM     18  OXT PRO A   2       2.970   7.670  -3.259  0.00  0.00    -0.244 OA
ATOM     19  O   PRO A   2       5.002   6.567  -3.217  0.00  0.00    -0.244 OA
ENDBRANCH  12  17
ENDBRANCH   8  10
ENDBRANCH   7   8
ENDBRANCH   1   7
BRANCH   1  20
ATOM     20  C   UNK A   0       2.887   5.235  -9.678  0.00  0.00    +0.033 C 
BRANCH  20  21
ATOM     21  C   UNK A   0       3.567   6.116 -10.719  0.00  0.00    +0.028 C 
BRANCH  21  22
ATOM     22  C   UNK A   0       4.844   6.699 -10.198  0.00  0.00    -0.022 A 
ATOM     23  C   UNK A   0       5.611   5.783  -9.484  0.00  0.00    -0.004 A 
ATOM     24  C   UNK A   0       6.985   5.797  -9.484  0.00  0.00    -0.000 A 
ATOM     25  C   UNK A   0       7.654   6.593 -10.396  0.00  0.00    -0.000 A 
ATOM     26  C   UNK A   0       6.947   7.606 -11.008  0.00  0.00    -0.000 A 
ATOM     27  C   UNK A   0       5.575   7.579 -10.989  0.00  0.00    -0.004 A 
ENDBRANCH  21  22
ENDBRANCH  20  21
ENDBRANCH   1  20
TORSDOF 10
ENDMDL
MODEL 4
REMARK VINA RESULT:      -8.1      3.253      8.713
REMARK  Name = 
REMARK  10 active torsions:
REMARK  status: ('A' for Active; 'I' for Inactive)
REMARK    1  A    between atoms: C_2  and  O_3
REMARK    2  A    between atoms: O_3  and  C_4
REMARK    3  A    between atoms: C_4  and  C_6
REMARK    4  A    between atoms: C_6  and  C_7
REMARK    5  A    between atoms: C_6  and  N_15
REMARK    6  A    between atoms: C_7  and  C_8
REMARK    7  A    between atoms: C_8  and  C_9
REMARK    8  A    between atoms: N_15  and  CA_16
REMARK    9  A    between atoms: CA_16  and  C_18
REMARK   10  A    between atoms: CA_24  and  C_25
REMARK                            x       y       z     vdW  Elec       q    Type
REMARK                         _______ _______ _______ _____ _____    ______ ____
ROOT
ATOM      1  C   UNK A   0       2.053   6.388  -9.008  0.00  0.00    +0.172 C 
ENDROOT
BRANCH   1   2
ATOM      2  C   UNK A   0       2.323   7.315  -7.719  0.00  0.00    +0.333 C 
ATOM      3  O   UNK A   0       2.169   8.529  -7.833  0.00  0.00    -0.249 OA
BRANCH   2   4
ATOM      4  O   UNK A   0       3.379   6.815  -6.945  0.00  0.00    -0.448 OA
BRANCH   4   6
ATOM      5  C   UNK A   0       4.365   7.143  -4.894  0.00  0.00    +0.051 C 
ATOM      6  C   UNK A   0       3.303   7.142  -5.571  0.00  0.00    +0.209 C 
ENDBRANCH   4   6
ENDBRANCH   2   4
ENDBRANCH   1   2
BRANCH   1   7
ATOM      7  N   ALA A   1       3.531   5.871  -8.994  0.00  0.00    -0.201 NA
BRANCH   7   8
ATOM      8  CA  ALA A   1       3.780   5.388 -10.467  0.00  0.00    +0.149 C 
ATOM      9  CB  ALA A   1       2.596   6.276 -11.192  0.00  0.00    +0.029 C 
BRANCH   8  10
ATOM     10  C   ALA A   1       4.887   6.538 -10.708  0.00  0.00    +0.242 C 
ATOM     11  N   PRO A   2       6.043   5.937 -11.241  0.00  0.00    -0.270 N 
ATOM     12  CA  PRO A   2       7.122   6.923 -11.825  0.00  0.00    +0.179 C 
ATOM     13  CB  PRO A   2       7.742   7.176 -10.322  0.00  0.00    +0.033 C 
ATOM     14  CG  PRO A   2       7.785   5.797  -9.769  0.00  0.00    +0.024 C 
ATOM     15  CD  PRO A   2       6.767   4.965 -10.478  0.00  0.00    +0.094 C 
ATOM     16  O   ALA A   1       4.523   7.700 -10.803  0.00  0.00    -0.273 OA
BRANCH  12  17
ATOM     17  C   PRO A   2       8.154   5.733 -12.177  0.00  0.00    +0.382 C 
ATOM     18  OXT PRO A   2       7.607   4.748 -12.987  0.00  0.00    -0.244 OA
ATOM     19  O   PRO A   2       9.355   5.972 -12.098  0.00  0.00    -0.244 OA
ENDBRANCH  12  17
ENDBRANCH   8  10
ENDBRANCH   7   8
ENDBRANCH   1   7
BRANCH   1  20
ATOM     20  C   UNK A   0       1.523   5.108  -8.116  0.00  0.00    +0.033 C 
BRANCH  20  21
ATOM     21  C   UNK A   0       0.042   5.461  -8.168  0.00  0.00    +0.028 C 
BRANCH  21  22
ATOM     22  C   UNK A   0      -0.653   5.112  -6.889  0.00  0.00    -0.022 A 
ATOM     23  C   UNK A   0       0.199   5.106  -5.788  0.00  0.00    -0.004 A 
ATOM     24  C   UNK A   0      -0.204   5.478  -4.528  0.00  0.00    -0.000 A 
ATOM     25  C   UNK A   0      -1.428   6.100  -4.364  0.00  0.00    -0.000 A 
ATOM     26  C   UNK A   0      -2.347   5.994  -5.387  0.00  0.00    -0.000 A 
ATOM     27  C   UNK A   0      -1.926   5.612  -6.636  0.00  0.00    -0.004 A 
ENDBRANCH  21  22
ENDBRANCH  20  21
ENDBRANCH   1  20
TORSDOF 10
ENDMDL
MODEL 5
REMARK VINA RESULT:      -7.8      3.542      7.076
REMARK  Name = 
REMARK  10 active torsions:
REMARK  status: ('A' for Active; 'I' for Inactive)
REMARK    1  A    between atoms: C_2  and  O_3
REMARK    2  A    between atoms: O_3  and  C_4
REMARK    3  A    between atoms: C_4  and  C_6
REMARK    4  A    between atoms: C_6  and  C_7
REMARK    5  A    between atoms: C_6  and  N_15
REMARK    6  A    between atoms: C_7  and  C_8
REMARK    7  A    between atoms: C_8  and  C_9
REMARK    8  A    between atoms: N_15  and  CA_16
REMARK    9  A    between atoms: CA_16  and  C_18
REMARK   10  A    between atoms: CA_24  and  C_25
REMARK                            x       y       z     vdW  Elec       q    Type
REMARK                         _______ _______ _______ _____ _____    ______ ____
ROOT
ATOM      1  C   UNK A   0       0.451   5.041  -6.135  0.00  0.00    +0.172 C 
ENDROOT
BRANCH   1   2
ATOM      2  C   UNK A   0       1.285   4.652  -7.456  0.00  0.00    +0.333 C 
ATOM      3  O   UNK A   0       2.421   4.201  -7.316  0.00  0.00    -0.249 OA
BRANCH   2   4
ATOM      4  O   UNK A   0       1.010   5.532  -8.510  0.00  0.00    -0.448 OA
BRANCH   4   6
ATOM      5  C   UNK A   0       0.419   4.643 -10.546  0.00  0.00    +0.051 C 
ATOM      6  C   UNK A   0       1.347   5.036  -9.791  0.00  0.00    +0.209 C 
ENDBRANCH   4   6
ENDBRANCH   2   4
ENDBRANCH   1   2
BRANCH   1   7
ATOM      7  N   ALA A   1       1.347   6.303  -5.894  0.00  0.00    -0.201 NA
BRANCH   7   8
ATOM      8  CA  ALA A   1       1.138   6.635  -4.374  0.00  0.00    +0.149 C 
ATOM      9  CB  ALA A   1       0.904   5.093  -3.843  0.00  0.00    +0.029 C 
BRANCH   8  10
ATOM     10  C   ALA A   1       2.725   6.567  -4.091  0.00  0.00    +0.242 C 
ATOM     11  N   PRO A   2       2.922   6.190  -2.749  0.00  0.00    -0.270 N 
ATOM     12  CA  PRO A   2       4.390   5.775  -2.360  0.00  0.00    +0.179 C 
ATOM     13  CB  PRO A   2       4.809   7.353  -2.155  0.00  0.00    +0.033 C 
ATOM     14  CG  PRO A   2       3.645   7.887  -1.401  0.00  0.00    +0.024 C 
ATOM     15  CD  PRO A   2       2.454   7.032  -1.689  0.00  0.00    +0.094 C 
ATOM     16  O   ALA A   1       3.490   6.438  -5.036  0.00  0.00    -0.273 OA
BRANCH  12  17
ATOM     17  C   PRO A   2       4.014   5.552  -0.806  0.00  0.00    +0.382 C 
ATOM     18  OXT PRO A   2       3.096   4.534  -0.600  0.00  0.00    -0.244 OA
ATOM     19  O   PRO A   2       4.814   5.942   0.039  0.00  0.00    -0.244 OA
ENDBRANCH  12  17
ENDBRANCH   8  10
ENDBRANCH   7   8
ENDBRANCH   1   7
BRANCH   1  20
ATOM     20  C   UNK A   0      -0.674   5.913  -6.966  0.00  0.00    +0.033 C 
BRANCH  20  21
ATOM     21  C   UNK A   0      -1.898   5.243  -6.356  0.00  0.00    +0.028 C 
BRANCH  21  22
ATOM     22  C   UNK A   0      -2.561   6.125  -5.343  0.00  0.00    -0.022 A 
ATOM     23  C   UNK A   0      -2.770   5.492  -4.121  0.00  0.00    -0.004 A 
ATOM     24  C   UNK A   0      -2.713   6.151  -2.917  0.00  0.00    -0.000 A 
ATOM     25  C   UNK A   0      -2.207   7.438  -2.873  0.00  0.00    -0.000 A 
ATOM     26  C   UNK A   0      -2.128   8.140  -4.058  0.00  0.00    -0.000 A 
ATOM     27  C   UNK A   0      -2.198   7.464  -5.250  0.00  0.00    -0.004 A 
ENDBRANCH  21  22
ENDBRANCH  20  21
ENDBRANCH   1  20
TORSDOF 10
ENDMDL
MODEL 6
REMARK VINA RESULT:      -7.7      3.228      5.363
REMARK  Name = 
REMARK  10 active torsions:
REMARK  status: ('A' for Active; 'I' for Inactive)
REMARK    1  A    between atoms: C_2  and  O_3
REMARK    2  A    between atoms: O_3  and  C_4
REMARK    3  A    between atoms: C_4  and  C_6
REMARK    4  A    between atoms: C_6  and  C_7
REMARK    5  A    between atoms: C_6  and  N_15
REMARK    6  A    between atoms: C_7  and  C_8
REMARK    7  A    between atoms: C_8  and  C_9
REMARK    8  A    between atoms: N_15  and  CA_16
REMARK    9  A    between atoms: CA_16  and  C_18
REMARK   10  A    between atoms: CA_24  and  C_25
REMARK                            x       y       z     vdW  Elec       q    Type
REMARK                         _______ _______ _______ _____ _____    ______ ____
ROOT
ATOM      1  C   UNK A   0       2.828   6.569 -10.907  0.00  0.00    +0.172 C 
ENDROOT
BRANCH   1   2
ATOM      2  C   UNK A   0       2.232   5.773 -12.173  0.00  0.00    +0.333 C 
ATOM      3  O   UNK A   0       2.864   5.800 -13.228  0.00  0.00    -0.249 OA
BRANCH   2   4
ATOM      4  O   UNK A   0       0.832   5.829 -12.198  0.00  0.00    -0.448 OA
BRANCH   4   6
ATOM      5  C   UNK A   0      -0.614   7.512 -11.592  0.00  0.00    +0.051 C 
ATOM      6  C   UNK A   0       0.302   7.130 -12.368  0.00  0.00    +0.209 C 
ENDBRANCH   4   6
ENDBRANCH   2   4
ENDBRANCH   1   2
BRANCH   1   7
ATOM      7  N   ALA A   1       2.312   5.467  -9.921  0.00  0.00    -0.201 NA
BRANCH   7   8
ATOM      8  CA  ALA A   1       1.774   6.278  -8.690  0.00  0.00    +0.149 C 
ATOM      9  CB  ALA A   1       0.321   5.514  -8.542  0.00  0.00    +0.029 C 
BRANCH   8  10
ATOM     10  C   ALA A   1       2.488   5.271  -7.652  0.00  0.00    +0.242 C 
ATOM     11  N   PRO A   2       2.332   5.786  -6.352  0.00  0.00    -0.270 N 
ATOM     12  CA  PRO A   2       2.693   4.804  -5.175  0.00  0.00    +0.179 C 
ATOM     13  CB  PRO A   2       4.288   5.182  -5.315  0.00  0.00    +0.033 C 
ATOM     14  CG  PRO A   2       4.245   6.660  -5.458  0.00  0.00    +0.024 C 
ATOM     15  CD  PRO A   2       2.910   7.050  -6.004  0.00  0.00    +0.094 C 
ATOM     16  O   ALA A   1       2.685   4.113  -7.991  0.00  0.00    -0.273 OA
BRANCH  12  17
ATOM     17  C   PRO A   2       2.410   5.915  -4.038  0.00  0.00    +0.382 C 
ATOM     18  OXT PRO A   2       1.126   6.437  -4.082  0.00  0.00    -0.244 OA
ATOM     19  O   PRO A   2       3.115   5.900  -3.033  0.00  0.00    -0.244 OA
ENDBRANCH  12  17
ENDBRANCH   8  10
ENDBRANCH   7   8
ENDBRANCH   1   7
BRANCH   1  20
ATOM     20  C   UNK A   0       4.314   5.868 -11.024  0.00  0.00    +0.033 C 
BRANCH  20  21
ATOM     21  C   UNK A   0       5.120   7.111 -10.666  0.00  0.00    +0.028 C 
BRANCH  21  22
ATOM     22  C   UNK A   0       6.378   7.204 -11.474  0.00  0.00    -0.022 A 
ATOM     23  C   UNK A   0       7.492   6.699 -10.811  0.00  0.00    -0.004 A 
ATOM     24  C   UNK A   0       8.525   6.065 -11.459  0.00  0.00    -0.000 A 
ATOM     25  C   UNK A   0       8.371   5.700 -12.784  0.00  0.00    -0.000 A 
ATOM     26  C   UNK A   0       7.360   6.301 -13.505  0.00  0.00    -0.000 A 
ATOM     27  C   UNK A   0       6.342   6.937 -12.839  0.00  0.00    -0.004 A 
ENDBRANCH  21  22
ENDBRANCH  20  21
ENDBRANCH   1  20
TORSDOF 10
ENDMDL
MODEL 7
REMARK VINA RESULT:      -7.6      2.625      4.476
REMARK  Name = 
REMARK  10 active torsions:
REMARK  status: ('A' for Active; 'I' for Inactive)
REMARK    1  A    between atoms: C_2  and  O_3
REMARK    2  A    between atoms: O_3  and  C_4
REMARK    3  A    between atoms: C_4  and  C_6
REMARK    4  A    between atoms: C_6  and  C_7
REMARK    5  A    between atoms: C_6  and  N_15
REMARK    6  A    between atoms: C_7  and  C_8
REMARK    7  A    between atoms: C_8  and  C_9
REMARK    8  A    between atoms: N_15  and  CA_16
REMARK    9  A    between atoms: CA_16  and  C_18
REMARK   10  A    between atoms: CA_24  and  C_25
REMARK                            x       y       z     vdW  Elec       q    Type
REMARK                         _______ _______ _______ _____ _____    ______ ____
ROOT
ATOM      1  C   UNK A   0       3.321   6.212  -7.398  0.00  0.00    +0.172 C 
ENDROOT
BRANCH   1   2
ATOM      2  C   UNK A   0       1.881   6.264  -8.117  0.00  0.00    +0.333 C 
ATOM      3  O   UNK A   0       1.440   7.361  -8.458  0.00  0.00    -0.249 OA
BRANCH   2   4
ATOM      4  O   UNK A   0       1.014   5.297  -7.591  0.00  0.00    -0.448 OA
BRANCH   4   6
ATOM      5  C   UNK A   0      -1.194   5.270  -6.950  0.00  0.00    +0.051 C 
ATOM      6  C   UNK A   0      -0.356   5.536  -7.852  0.00  0.00    +0.209 C 
ENDBRANCH   4   6
ENDBRANCH   2   4
ENDBRANCH   1   2
BRANCH   1   7
ATOM      7  N   ALA A   1       2.771   5.263  -6.280  0.00  0.00    -0.201 NA
BRANCH   7   8
ATOM      8  CA  ALA A   1       3.808   5.411  -5.110  0.00  0.00    +0.149 C 
ATOM      9  CB  ALA A   1       3.983   7.049  -5.177  0.00  0.00    +0.029 C 
BRANCH   8  10
ATOM     10  C   ALA A   1       2.630   5.512  -4.013  0.00  0.00    +0.242 C 
ATOM     11  N   PRO A   2       3.170   6.044  -2.827  0.00  0.00    -0.270 N 
ATOM     12  CA  PRO A   2       2.126   6.502  -1.742  0.00  0.00    +0.179 C 
ATOM     13  CB  PRO A   2       1.990   4.959  -1.186  0.00  0.00    +0.033 C 
ATOM     14  CG  PRO A   2       3.409   4.519  -1.143  0.00  0.00    +0.024 C 
ATOM     15  CD  PRO A   2       4.193   5.335  -2.119  0.00  0.00    +0.094 C 
ATOM     16  O   ALA A   1       1.468   5.526  -4.392  0.00  0.00    -0.273 OA
BRANCH  12  17
ATOM     17  C   PRO A   2       3.270   6.907  -0.678  0.00  0.00    +0.382 C 
ATOM     18  OXT PRO A   2       4.167   7.848  -1.162  0.00  0.00    -0.244 OA
ATOM     19  O   PRO A   2       3.037   6.726   0.514  0.00  0.00    -0.244 OA
ENDBRANCH  12  17
ENDBRANCH   8  10
ENDBRANCH   7   8
ENDBRANCH   1   7
BRANCH   1  20
ATOM     20  C   UNK A   0       3.853   4.945  -8.308  0.00  0.00    +0.033 C 
BRANCH  20  21
ATOM     21  C   UNK A   0       5.336   5.284  -8.225  0.00  0.00    +0.028 C 
BRANCH  21  22
ATOM     22  C   UNK A   0       5.889   5.669  -9.562  0.00  0.00    -0.022 A 
ATOM     23  C   UNK A   0       5.055   6.527 -10.272  0.00  0.00    -0.004 A 
ATOM     24  C   UNK A   0       5.529   7.506 -11.113  0.00  0.00    -0.000 A 
ATOM     25  C   UNK A   0       6.876   7.819 -11.096  0.00  0.00    -0.000 A 
ATOM     26  C   UNK A   0       7.742   6.909 -10.527  0.00  0.00    -0.000 A 
ATOM     27  C   UNK A   0       7.248   5.933  -9.698  0.00  0.00    -0.004 A 
ENDBRANCH  21  22
ENDBRANCH  20  21
ENDBRANCH   1  20
TORSDOF 10
ENDMDL
MODEL 8
REMARK VINA RESULT:      -7.6      2.511      3.350
REMARK  Name = 
REMARK  10 active torsions:
REMARK  status: ('A' for Active; 'I' for Inactive)
REMARK    1  A    between atoms: C_2  and  O_3
REMARK    2  A    between atoms: O_3  and  C_4
REMARK    3  A    between atoms: C_4  and  C_6
REMARK    4  A    between atoms: C_6  and  C_7
REMARK    5  A    between atoms: C_6  and  N_15
REMARK    6  A    between atoms: C_7  and  C_8
REMARK    7  A    between atoms: C_8  and  C_9
REMARK    8  A    between atoms: N_15  and  CA_16
REMARK    9  A    between atoms: CA_16  and  C_18
REMARK   10  A    between atoms: CA_24  and  C_25
REMARK                            x       y       z     vdW  Elec       q    Type
REMARK                         _______ _______ _______ _____ _____    ______ ____
ROOT
ATOM      1  C   UNK A   0       2.476   5.268  -7.245  0.00  0.00    +0.172 C 
ENDROOT
BRANCH   1   2
ATOM      2  C   UNK A   0       2.884   6.773  -7.647  0.00  0.00    +0.333 C 
ATOM      3  O   UNK A   0       3.502   6.948  -8.695  0.00  0.00    -0.249 OA
BRANCH   2   4
ATOM      4  O   UNK A   0       3.204   7.533  -6.514  0.00  0.00    -0.448 OA
BRANCH   4   6
ATOM      5  C   UNK A   0       4.473   7.483  -4.597  0.00  0.00    +0.051 C 
ATOM      6  C   UNK A   0       4.286   7.027  -5.756  0.00  0.00    +0.209 C 
ENDBRANCH   4   6
ENDBRANCH   2   4
ENDBRANCH   1   2
BRANCH   1   7
ATOM      7  N   ALA A   1       1.023   5.719  -6.874  0.00  0.00    -0.201 NA
BRANCH   7   8
ATOM      8  CA  ALA A   1       0.598   4.732  -5.729  0.00  0.00    +0.149 C 
ATOM      9  CB  ALA A   1       2.085   4.535  -5.046  0.00  0.00    +0.029 C 
BRANCH   8  10
ATOM     10  C   ALA A   1       0.231   5.957  -4.744  0.00  0.00    +0.242 C 
ATOM     11  N   PRO A   2      -1.055   5.733  -4.217  0.00  0.00    -0.270 N 
ATOM     12  CA  PRO A   2      -1.471   6.652  -3.008  0.00  0.00    +0.179 C 
ATOM     13  CB  PRO A   2      -1.920   7.851  -4.042  0.00  0.00    +0.033 C 
ATOM     14  CG  PRO A   2      -2.669   7.099  -5.082  0.00  0.00    +0.024 C 
ATOM     15  CD  PRO A   2      -2.192   5.683  -5.086  0.00  0.00    +0.094 C 
ATOM     16  O   ALA A   1       1.135   6.634  -4.278  0.00  0.00    -0.273 OA
BRANCH  12  17
ATOM     17  C   PRO A   2      -2.953   6.019  -2.916  0.00  0.00    +0.382 C 
ATOM     18  OXT PRO A   2      -2.957   4.637  -2.789  0.00  0.00    -0.244 OA
ATOM     19  O   PRO A   2      -3.867   6.748  -2.545  0.00  0.00    -0.244 OA
ENDBRANCH  12  17
ENDBRANCH   8  10
ENDBRANCH   7   8
ENDBRANCH   1   7
BRANCH   1  20
ATOM     20  C   UNK A   0       2.032   4.860  -8.779  0.00  0.00    +0.033 C 
BRANCH  20  21
ATOM     21  C   UNK A   0       0.690   5.581  -8.768  0.00  0.00    +0.028 C 
BRANCH  21  22
ATOM     22  C   UNK A   0       0.087   5.645 -10.137  0.00  0.00    -0.022 A 
ATOM     23  C   UNK A   0       0.192   6.903 -10.722  0.00  0.00    -0.004 A 
ATOM     24  C   UNK A   0       0.358   7.089 -12.074  0.00  0.00    -0.000 A 
ATOM     25  C   UNK A   0       0.663   6.003 -12.874  0.00  0.00    -0.000 A 
ATOM     26  C   UNK A   0       0.427   4.742 -12.367  0.00  0.00    -0.000 A 
ATOM     27  C   UNK A   0       0.254   4.579 -11.015  0.00  0.00    -0.004 A 
ENDBRANCH  21  22
ENDBRANCH  20  21
ENDBRANCH   1  20
TORSDOF 10
ENDMDL
MODEL 9
REMARK VINA RESULT:      -7.6      3.004      6.668
REMARK  Name = 
REMARK  10 active torsions:
REMARK  status: ('A' for Active; 'I' for Inactive)
REMARK    1  A    between atoms: C_2  and  O_3
REMARK    2  A    between atoms: O_3  and  C_4
REMARK    3  A    between atoms: C_4  and  C_6
REMARK    4  A    between atoms: C_6  and  C_7
REMARK    5  A    between atoms: C_6  and  N_15
REMARK    6  A    between atoms: C_7  and  C_8
REMARK    7  A    between atoms: C_8  and  C_9
REMARK    8  A    between atoms: N_15  and  CA_16
REMARK    9  A    between atoms: CA_16  and  C_18
REMARK   10  A    between atoms: CA_24  and  C_25
REMARK                            x       y       z     vdW  Elec       q    Type
REMARK                         _______ _______ _______ _____ _____    ______ ____
ROOT
ATOM      1  C   UNK A   0       3.261   6.350  -5.477  0.00  0.00    +0.172 C 
ENDROOT
BRANCH   1   2
ATOM      2  C   UNK A   0       4.361   5.831  -4.422  0.00  0.00    +0.333 C 
ATOM      3  O   UNK A   0       4.101   4.833  -3.753  0.00  0.00    -0.249 OA
BRANCH   2   4
ATOM      4  O   UNK A   0       5.050   6.902  -3.837  0.00  0.00    -0.448 OA
BRANCH   4   6
ATOM      5  C   UNK A   0       3.930   8.211  -2.314  0.00  0.00    +0.051 C 
ATOM      6  C   UNK A   0       4.654   7.199  -2.512  0.00  0.00    +0.209 C 
ENDBRANCH   4   6
ENDBRANCH   2   4
ENDBRANCH   1   2
BRANCH   1   7
ATOM      7  N   ALA A   1       3.631   5.210  -6.484  0.00  0.00    -0.201 NA
BRANCH   7   8
ATOM      8  CA  ALA A   1       3.817   5.955  -7.853  0.00  0.00    +0.149 C 
ATOM      9  CB  ALA A   1       5.096   5.077  -8.409  0.00  0.00    +0.029 C 
BRANCH   8  10
ATOM     10  C   ALA A   1       2.748   4.989  -8.579  0.00  0.00    +0.242 C 
ATOM     11  N   PRO A   2       2.367   5.583  -9.797  0.00  0.00    -0.270 N 
ATOM     12  CA  PRO A   2       1.566   4.660 -10.790  0.00  0.00    +0.179 C 
ATOM     13  CB  PRO A   2       0.161   4.985  -9.999  0.00  0.00    +0.033 C 
ATOM     14  CG  PRO A   2       0.255   6.454  -9.792  0.00  0.00    +0.024 C 
ATOM     15  CD  PRO A   2       1.696   6.848  -9.803  0.00  0.00    +0.094 C 
ATOM     16  O   ALA A   1       2.706   3.809  -8.264  0.00  0.00    -0.273 OA
BRANCH  12  17
ATOM     17  C   PRO A   2       1.365   5.841 -11.872  0.00  0.00    +0.382 C 
ATOM     18  OXT PRO A   2       2.556   6.424 -12.283  0.00  0.00    -0.244 OA
ATOM     19  O   PRO A   2       0.332   5.845 -12.534  0.00  0.00    -0.244 OA
ENDBRANCH  12  17
ENDBRANCH   8  10
ENDBRANCH   7   8
ENDBRANCH   1   7
BRANCH   1  20
ATOM     20  C   UNK A   0       2.042   5.463  -4.812  0.00  0.00    +0.033 C 
BRANCH  20  21
ATOM     21  C   UNK A   0       1.173   6.644  -4.398  0.00  0.00    +0.028 C 
BRANCH  21  22
ATOM     22  C   UNK A   0       0.021   6.836  -5.335  0.00  0.00    -0.022 A 
ATOM     23  C   UNK A   0      -0.171   5.757  -6.193  0.00  0.00    -0.004 A 
ATOM     24  C   UNK A   0      -1.411   5.360  -6.631  0.00  0.00    -0.000 A 
ATOM     25  C   UNK A   0      -2.541   5.889  -6.033  0.00  0.00    -0.000 A 
ATOM     26  C   UNK A   0      -2.399   7.046  -5.296  0.00  0.00    -0.000 A 
ATOM     27  C   UNK A   0      -1.149   7.431  -4.877  0.00  0.00    -0.004 A 
ENDBRANCH  21  22
ENDBRANCH  20  21
ENDBRANCH   1  20
TORSDOF 10
ENDMDL
