MODEL 1
REMARK VINA RESULT:     -10.6      0.000      0.000
REMARK  Name = 
REMARK  5 active torsions:
REMARK  status: ('A' for Active; 'I' for Inactive)
REMARK    1  A    between atoms: C_2  and  C_3
REMARK    2  A    between atoms: C_2  and  C_11
REMARK    3  A    between atoms: C_4  and  C_5
REMARK    4  A    between atoms: C_5  and  C_7
REMARK    5  A    between atoms: C_16  and  C_17
REMARK                            x       y       z     vdW  Elec       q    Type
REMARK                         _______ _______ _______ _____ _____    ______ ____
ROOT
ATOM      1  C   UNL     1       0.391   6.540  -7.222  0.00  0.00    +0.004 C 
ATOM      2  C   UNL     1       0.888   5.610  -8.455  0.00  0.00    +0.004 C 
ATOM      3  C   UNL     1       1.608   6.949  -9.099  0.00  0.00    +0.018 C 
ATOM      4  C   UNL     1       2.522   6.050 -10.105  0.00  0.00    -0.045 C 
ATOM      5  C   UNL     1       1.621   5.397 -11.107  0.00  0.00    +0.022 C 
ATOM      6  C   UNL     1       0.544   4.557 -10.503  0.00  0.00    +0.004 C 
ATOM      7  C   UNL     1       3.449   6.815 -10.709  0.00  0.00    -0.009 C 
ATOM      8  C   UNL     1       2.737   6.904  -7.895  0.00  0.00    +0.004 C 
ATOM      9  C   UNL     1       1.925   4.695  -8.017  0.00  0.00    +0.000 C 
ATOM     10  C   UNL     1      -0.176   5.240  -9.345  0.00  0.00    +0.001 C 
ATOM     11  C   UNL     1       1.921   6.660  -6.677  0.00  0.00    +0.001 C 
ENDROOT
BRANCH   7  12
ATOM     12  C   UNL     1       4.227   6.199 -11.789  0.00  0.00    -0.009 C 
ATOM     13  C   UNL     1       5.517   6.485 -11.889  0.00  0.00    -0.039 C 
ATOM     14  C   UNL     1       6.065   7.574 -11.095  0.00  0.00    +0.055 C 
ATOM     15  C   UNL     1       7.175   6.876 -10.045  0.00  0.00    +0.159 C 
ATOM     16  O   UNL     1       6.489   5.488  -9.995  0.00  0.00    -0.223 OA
ATOM     17  C   UNL     1       8.213   6.529 -11.309  0.00  0.00    +0.066 C 
ATOM     18  C   UNL     1       7.579   5.099 -11.891  0.00  0.00    +0.159 C 
ATOM     19  O   UNL     1       8.610   5.095 -13.036  0.00  0.00    -0.223 OA
ATOM     20  C   UNL     1       6.447   5.877 -12.857  0.00  0.00    +0.055 C 
ENDBRANCH   7  12
BRANCH   1  22
ATOM     21  C   UNL     1      -1.527   5.233  -6.725  0.00  0.00    +0.005 C 
ATOM     22  C   UNL     1       0.044   5.154  -6.261  0.00  0.00    +0.022 C 
BRANCH  22  23
ATOM     23  C   UNL     1      -0.234   5.979  -4.901  0.00  0.00    -0.031 C 
ATOM     24  C   UNL     1      -1.246   5.542  -4.155  0.00  0.00    -0.029 C 
BRANCH  24  25
ATOM     25  C   UNL     1      -2.594   6.458  -4.184  0.00  0.00    +0.050 C 
ATOM     26  C   UNL     1      -1.754   7.852  -3.880  0.00  0.00    +0.007 C 
BRANCH  25  27
ATOM     27  C   UNL     1      -2.886   6.180  -2.580  0.00  0.00    +0.130 C 
ATOM     28  O   UNL     1      -2.623   4.831  -2.522  0.00  0.00    -0.225 OA
ATOM     29  C   UNL     1      -4.324   6.556  -2.464  0.00  0.00    +0.033 C 
ATOM     30  C   UNL     1      -1.953   7.050  -1.823  0.00  0.00    +0.033 C 
ENDBRANCH  25  27
ENDBRANCH  24  25
ENDBRANCH  22  23
ENDBRANCH   1  22
TORSDOF 5
ENDMDL
MODEL 2
REMARK VINA RESULT:     -10.1      2.377      2.962
REMARK  Name = 
REMARK  5 active torsions:
REMARK  status: ('A' for Active; 'I' for Inactive)
REMARK    1  A    between atoms: C_2  and  C_3
REMARK    2  A    between atoms: C_2  and  C_11
REMARK    3  A    between atoms: C_4  and  C_5
REMARK    4  A    between atoms: C_5  and  C_7
REMARK    5  A    between atoms: C_16  and  C_17
REMARK                            x       y       z     vdW  Elec       q    Type
REMARK                         _______ _______ _______ _____ _____    ______ ____
ROOT
ATOM      1  C   UNL     1       0.974   6.879  -6.170  0.00  0.00    +0.004 C 
ATOM      2  C   UNL     1       1.142   5.910  -7.461  0.00  0.00    +0.004 C 
ATOM      3  C   UNL     1       1.912   7.157  -8.223  0.00  0.00    +0.018 C 
ATOM      4  C   UNL     1       2.529   6.164  -9.359  0.00  0.00    -0.045 C 
ATOM      5  C   UNL     1       1.401   5.644 -10.196  0.00  0.00    +0.022 C 
ATOM      6  C   UNL     1       0.339   4.938  -9.419  0.00  0.00    +0.004 C 
ATOM      7  C   UNL     1       3.434   6.814 -10.111  0.00  0.00    -0.009 C 
ATOM      8  C   UNL     1       3.206   6.952  -7.219  0.00  0.00    +0.004 C 
ATOM      9  C   UNL     1       2.112   4.866  -7.192  0.00  0.00    +0.000 C 
ATOM     10  C   UNL     1      -0.091   5.690  -8.164  0.00  0.00    +0.001 C 
ATOM     11  C   UNL     1       2.575   6.797  -5.883  0.00  0.00    +0.001 C 
ENDROOT
BRANCH   7  12
ATOM     12  C   UNL     1       3.942   6.120 -11.299  0.00  0.00    -0.009 C 
ATOM     13  C   UNL     1       5.162   6.404 -11.731  0.00  0.00    -0.039 C 
ATOM     14  C   UNL     1       5.860   7.554 -11.178  0.00  0.00    +0.055 C 
ATOM     15  C   UNL     1       7.207   6.946 -10.380  0.00  0.00    +0.159 C 
ATOM     16  O   UNL     1       6.588   5.563 -10.061  0.00  0.00    -0.223 OA
ATOM     17  C   UNL     1       7.917   6.507 -11.829  0.00  0.00    +0.066 C 
ATOM     18  C   UNL     1       7.195   5.034 -12.132  0.00  0.00    +0.159 C 
ATOM     19  O   UNL     1       7.917   4.945 -13.490  0.00  0.00    -0.223 OA
ATOM     20  C   UNL     1       5.844   5.728 -12.848  0.00  0.00    +0.055 C 
ENDBRANCH   7  12
BRANCH   1  22
ATOM     21  C   UNL     1      -0.980   5.909  -5.234  0.00  0.00    +0.005 C 
ATOM     22  C   UNL     1       0.615   5.534  -5.156  0.00  0.00    +0.022 C 
BRANCH  22  23
ATOM     23  C   UNL     1       0.817   6.334  -3.767  0.00  0.00    -0.031 C 
ATOM     24  C   UNL     1       1.903   6.013  -3.067  0.00  0.00    -0.029 C 
BRANCH  24  25
ATOM     25  C   UNL     1       1.643   5.120  -1.729  0.00  0.00    +0.050 C 
ATOM     26  C   UNL     1       1.404   6.456  -0.781  0.00  0.00    +0.007 C 
BRANCH  25  27
ATOM     27  C   UNL     1       3.261   5.060  -1.387  0.00  0.00    +0.130 C 
ATOM     28  O   UNL     1       3.294   3.935  -0.597  0.00  0.00    -0.225 OA
ATOM     29  C   UNL     1       3.468   6.350  -0.669  0.00  0.00    +0.033 C 
ATOM     30  C   UNL     1       3.964   4.953  -2.689  0.00  0.00    +0.033 C 
ENDBRANCH  25  27
ENDBRANCH  24  25
ENDBRANCH  22  23
ENDBRANCH   1  22
TORSDOF 5
ENDMDL
MODEL 3
REMARK VINA RESULT:     -10.0      1.358      1.714
REMARK  Name = 
REMARK  5 active torsions:
REMARK  status: ('A' for Active; 'I' for Inactive)
REMARK    1  A    between atoms: C_2  and  C_3
REMARK    2  A    between atoms: C_2  and  C_11
REMARK    3  A    between atoms: C_4  and  C_5
REMARK    4  A    between atoms: C_5  and  C_7
REMARK    5  A    between atoms: C_16  and  C_17
REMARK                            x       y       z     vdW  Elec       q    Type
REMARK                         _______ _______ _______ _____ _____    ______ ____
ROOT
ATOM      1  C   UNL     1       0.563   6.976  -6.198  0.00  0.00    +0.004 C 
ATOM      2  C   UNL     1       0.811   5.901  -7.387  0.00  0.00    +0.004 C 
ATOM      3  C   UNL     1       1.770   7.026  -8.123  0.00  0.00    +0.018 C 
ATOM      4  C   UNL     1       2.442   5.906  -9.099  0.00  0.00    -0.045 C 
ATOM      5  C   UNL     1       1.388   5.406 -10.040  0.00  0.00    +0.022 C 
ATOM      6  C   UNL     1       0.183   4.841  -9.363  0.00  0.00    +0.004 C 
ATOM      7  C   UNL     1       3.484   6.428  -9.768  0.00  0.00    -0.009 C 
ATOM      8  C   UNL     1       2.908   6.806  -6.948  0.00  0.00    +0.004 C 
ATOM      9  C   UNL     1       1.651   4.813  -6.924  0.00  0.00    +0.000 C 
ATOM     10  C   UNL     1      -0.338   5.718  -8.229  0.00  0.00    +0.001 C 
ATOM     11  C   UNL     1       2.104   6.800  -5.698  0.00  0.00    +0.001 C 
ENDROOT
BRANCH   7  12
ATOM     12  C   UNL     1       4.078   5.609 -10.830  0.00  0.00    -0.009 C 
ATOM     13  C   UNL     1       5.176   6.044 -11.433  0.00  0.00    -0.039 C 
ATOM     14  C   UNL     1       5.614   7.412 -11.206  0.00  0.00    +0.055 C 
ATOM     15  C   UNL     1       7.105   7.306 -10.439  0.00  0.00    +0.159 C 
ATOM     16  O   UNL     1       6.840   5.930  -9.777  0.00  0.00    -0.223 OA
ATOM     17  C   UNL     1       7.822   6.713 -11.829  0.00  0.00    +0.066 C 
ATOM     18  C   UNL     1       7.448   5.089 -11.742  0.00  0.00    +0.159 C 
ATOM     19  O   UNL     1       8.101   4.853 -13.117  0.00  0.00    -0.223 OA
ATOM     20  C   UNL     1       5.938   5.295 -12.448  0.00  0.00    +0.055 C 
ENDBRANCH   7  12
BRANCH   1  22
ATOM     21  C   UNL     1      -1.553   6.030  -5.685  0.00  0.00    +0.005 C 
ATOM     22  C   UNL     1      -0.029   5.744  -5.150  0.00  0.00    +0.022 C 
BRANCH  22  23
ATOM     23  C   UNL     1      -0.212   6.709  -3.869  0.00  0.00    -0.031 C 
ATOM     24  C   UNL     1      -0.189   6.106  -2.682  0.00  0.00    -0.029 C 
BRANCH  24  25
ATOM     25  C   UNL     1      -1.629   5.967  -1.932  0.00  0.00    +0.050 C 
ATOM     26  C   UNL     1      -2.216   7.355  -2.617  0.00  0.00    +0.007 C 
BRANCH  25  27
ATOM     27  C   UNL     1      -1.071   6.762  -0.592  0.00  0.00    +0.130 C 
ATOM     28  O   UNL     1      -1.247   8.064  -0.998  0.00  0.00    -0.225 OA
ATOM     29  C   UNL     1       0.345   6.298  -0.532  0.00  0.00    +0.033 C 
ATOM     30  C   UNL     1      -1.918   6.323   0.544  0.00  0.00    +0.033 C 
ENDBRANCH  25  27
ENDBRANCH  24  25
ENDBRANCH  22  23
ENDBRANCH   1  22
TORSDOF 5
ENDMDL
MODEL 4
REMARK VINA RESULT:      -9.8      3.820      4.620
REMARK  Name = 
REMARK  5 active torsions:
REMARK  status: ('A' for Active; 'I' for Inactive)
REMARK    1  A    between atoms: C_2  and  C_3
REMARK    2  A    between atoms: C_2  and  C_11
REMARK    3  A    between atoms: C_4  and  C_5
REMARK    4  A    between atoms: C_5  and  C_7
REMARK    5  A    between atoms: C_16  and  C_17
REMARK                            x       y       z     vdW  Elec       q    Type
REMARK                         _______ _______ _______ _____ _____    ______ ____
ROOT
ATOM      1  C   UNL     1       3.024   6.739  -4.023  0.00  0.00    +0.004 C 
ATOM      2  C   UNL     1       3.085   5.509  -5.079  0.00  0.00    +0.004 C 
ATOM      3  C   UNL     1       3.185   6.629  -6.288  0.00  0.00    +0.018 C 
ATOM      4  C   UNL     1       3.707   5.517  -7.360  0.00  0.00    -0.045 C 
ATOM      5  C   UNL     1       2.592   4.551  -7.621  0.00  0.00    +0.022 C 
ATOM      6  C   UNL     1       2.069   3.877  -6.395  0.00  0.00    +0.004 C 
ATOM      7  C   UNL     1       4.111   6.112  -8.496  0.00  0.00    -0.009 C 
ATOM      8  C   UNL     1       4.717   7.000  -5.799  0.00  0.00    +0.004 C 
ATOM      9  C   UNL     1       4.357   4.818  -4.986  0.00  0.00    +0.000 C 
ATOM     10  C   UNL     1       1.825   4.838  -5.236  0.00  0.00    +0.001 C 
ATOM     11  C   UNL     1       4.586   7.091  -4.322  0.00  0.00    +0.001 C 
ENDROOT
BRANCH   7  12
ATOM     12  C   UNL     1       4.429   5.241  -9.633  0.00  0.00    -0.009 C 
ATOM     13  C   UNL     1       5.026   5.768 -10.693  0.00  0.00    -0.039 C 
ATOM     14  C   UNL     1       5.124   7.214 -10.805  0.00  0.00    +0.055 C 
ATOM     15  C   UNL     1       6.764   7.577 -10.764  0.00  0.00    +0.159 C 
ATOM     16  O   UNL     1       7.177   6.337  -9.933  0.00  0.00    -0.223 OA
ATOM     17  C   UNL     1       6.995   6.884 -12.268  0.00  0.00    +0.066 C 
ATOM     18  C   UNL     1       7.150   5.268 -11.881  0.00  0.00    +0.159 C 
ATOM     19  O   UNL     1       7.233   4.906 -13.376  0.00  0.00    -0.223 OA
ATOM     20  C   UNL     1       5.491   5.009 -11.868  0.00  0.00    +0.055 C 
ENDBRANCH   7  12
BRANCH   1  22
ATOM     21  C   UNL     1       1.906   5.943  -2.086  0.00  0.00    +0.005 C 
ATOM     22  C   UNL     1       3.401   5.687  -2.712  0.00  0.00    +0.022 C 
BRANCH  22  23
ATOM     23  C   UNL     1       4.071   6.830  -1.789  0.00  0.00    -0.031 C 
ATOM     24  C   UNL     1       3.773   6.775  -0.492  0.00  0.00    -0.029 C 
BRANCH  24  25
ATOM     25  C   UNL     1       2.731   7.907   0.043  0.00  0.00    +0.050 C 
ATOM     26  C   UNL     1       3.568   9.140  -0.679  0.00  0.00    +0.007 C 
BRANCH  25  27
ATOM     27  C   UNL     1       3.552   8.068   1.470  0.00  0.00    +0.130 C 
ATOM     28  O   UNL     1       4.195   6.854   1.512  0.00  0.00    -0.225 OA
ATOM     29  C   UNL     1       2.436   8.233   2.445  0.00  0.00    +0.033 C 
ATOM     30  C   UNL     1       4.429   9.256   1.322  0.00  0.00    +0.033 C 
ENDBRANCH  25  27
ENDBRANCH  24  25
ENDBRANCH  22  23
ENDBRANCH   1  22
TORSDOF 5
ENDMDL
MODEL 5
REMARK VINA RESULT:      -9.7      1.580     10.028
REMARK  Name = 
REMARK  5 active torsions:
REMARK  status: ('A' for Active; 'I' for Inactive)
REMARK    1  A    between atoms: C_2  and  C_3
REMARK    2  A    between atoms: C_2  and  C_11
REMARK    3  A    between atoms: C_4  and  C_5
REMARK    4  A    between atoms: C_5  and  C_7
REMARK    5  A    between atoms: C_16  and  C_17
REMARK                            x       y       z     vdW  Elec       q    Type
REMARK                         _______ _______ _______ _____ _____    ______ ____
ROOT
ATOM      1  C   UNL     1       3.870   6.739  -9.322  0.00  0.00    +0.004 C 
ATOM      2  C   UNL     1       3.760   5.911  -7.931  0.00  0.00    +0.004 C 
ATOM      3  C   UNL     1       2.844   7.149  -7.335  0.00  0.00    +0.018 C 
ATOM      4  C   UNL     1       2.294   6.233  -6.105  0.00  0.00    -0.045 C 
ATOM      5  C   UNL     1       3.442   5.931  -5.190  0.00  0.00    +0.022 C 
ATOM      6  C   UNL     1       4.595   5.257  -5.858  0.00  0.00    +0.004 C 
ATOM      7  C   UNL     1       1.305   6.866  -5.451  0.00  0.00    -0.009 C 
ATOM      8  C   UNL     1       1.610   6.698  -8.334  0.00  0.00    +0.004 C 
ATOM      9  C   UNL     1       2.910   4.748  -8.096  0.00  0.00    +0.000 C 
ATOM     10  C   UNL     1       4.986   5.902  -7.183  0.00  0.00    +0.001 C 
ATOM     11  C   UNL     1       2.295   6.459  -9.631  0.00  0.00    +0.001 C 
ENDROOT
BRANCH   7  12
ATOM     12  C   UNL     1       0.831   6.262  -4.201  0.00  0.00    -0.009 C 
ATOM     13  C   UNL     1      -0.396   6.537  -3.784  0.00  0.00    -0.039 C 
ATOM     14  C   UNL     1      -1.141   7.605  -4.430  0.00  0.00    +0.055 C 
ATOM     15  C   UNL     1      -2.469   6.877  -5.158  0.00  0.00    +0.159 C 
ATOM     16  O   UNL     1      -1.798   5.496  -5.358  0.00  0.00    -0.223 OA
ATOM     17  C   UNL     1      -3.151   6.543  -3.667  0.00  0.00    +0.066 C 
ATOM     18  C   UNL     1      -2.371   5.131  -3.242  0.00  0.00    +0.159 C 
ATOM     19  O   UNL     1      -3.081   5.137  -1.875  0.00  0.00    -0.223 OA
ATOM     20  C   UNL     1      -1.044   5.937  -2.604  0.00  0.00    +0.055 C 
ENDBRANCH   7  12
BRANCH   1  22
ATOM     21  C   UNL     1       5.955   5.734  -9.851  0.00  0.00    +0.005 C 
ATOM     22  C   UNL     1       4.396   5.333 -10.167  0.00  0.00    +0.022 C 
BRANCH  22  23
ATOM     23  C   UNL     1       4.427   6.033 -11.622  0.00  0.00    -0.031 C 
ATOM     24  C   UNL     1       5.454   5.702 -12.401  0.00  0.00    -0.029 C 
BRANCH  24  25
ATOM     25  C   UNL     1       6.604   6.843 -12.577  0.00  0.00    +0.050 C 
ATOM     26  C   UNL     1       6.038   7.305 -14.063  0.00  0.00    +0.007 C 
BRANCH  25  27
ATOM     27  C   UNL     1       7.667   5.752 -13.224  0.00  0.00    +0.130 C 
ATOM     28  O   UNL     1       7.072   4.578 -12.826  0.00  0.00    -0.225 OA
ATOM     29  C   UNL     1       8.930   6.101 -12.512  0.00  0.00    +0.033 C 
ATOM     30  C   UNL     1       7.689   5.999 -14.686  0.00  0.00    +0.033 C 
ENDBRANCH  25  27
ENDBRANCH  24  25
ENDBRANCH  22  23
ENDBRANCH   1  22
TORSDOF 5
ENDMDL
MODEL 6
REMARK VINA RESULT:      -9.5      3.487      9.465
REMARK  Name = 
REMARK  5 active torsions:
REMARK  status: ('A' for Active; 'I' for Inactive)
REMARK    1  A    between atoms: C_2  and  C_3
REMARK    2  A    between atoms: C_2  and  C_11
REMARK    3  A    between atoms: C_4  and  C_5
REMARK    4  A    between atoms: C_5  and  C_7
REMARK    5  A    between atoms: C_16  and  C_17
REMARK                            x       y       z     vdW  Elec       q    Type
REMARK                         _______ _______ _______ _____ _____    ______ ____
ROOT
ATOM      1  C   UNL     1       3.124   5.001  -7.948  0.00  0.00    +0.004 C 
ATOM      2  C   UNL     1       2.104   5.817  -6.985  0.00  0.00    +0.004 C 
ATOM      3  C   UNL     1       2.558   4.815  -5.754  0.00  0.00    +0.018 C 
ATOM      4  C   UNL     1       1.943   5.818  -4.627  0.00  0.00    -0.045 C 
ATOM      5  C   UNL     1       0.452   5.840  -4.775  0.00  0.00    +0.022 C 
ATOM      6  C   UNL     1      -0.021   6.242  -6.133  0.00  0.00    +0.004 C 
ATOM      7  C   UNL     1       2.304   5.421  -3.394  0.00  0.00    -0.009 C 
ATOM      8  C   UNL     1       4.037   5.546  -5.721  0.00  0.00    +0.004 C 
ATOM      9  C   UNL     1       2.617   7.145  -6.709  0.00  0.00    +0.000 C 
ATOM     10  C   UNL     1       0.724   5.538  -7.263  0.00  0.00    +0.001 C 
ATOM     11  C   UNL     1       4.400   5.637  -7.159  0.00  0.00    +0.001 C 
ENDROOT
BRANCH   7  12
ATOM     12  C   UNL     1       1.676   6.102  -2.258  0.00  0.00    -0.009 C 
ATOM     13  C   UNL     1       2.429   6.441  -1.221  0.00  0.00    -0.039 C 
ATOM     14  C   UNL     1       3.782   5.917  -1.127  0.00  0.00    +0.055 C 
ATOM     15  C   UNL     1       4.807   7.245  -1.218  0.00  0.00    +0.159 C 
ATOM     16  O   UNL     1       3.842   8.129  -2.047  0.00  0.00    -0.223 OA
ATOM     17  C   UNL     1       4.310   7.781   0.287  0.00  0.00    +0.066 C 
ATOM     18  C   UNL     1       2.905   8.600  -0.088  0.00  0.00    +0.159 C 
ATOM     19  O   UNL     1       2.645   8.861   1.408  0.00  0.00    -0.223 OA
ATOM     20  C   UNL     1       1.965   7.209  -0.052  0.00  0.00    +0.055 C 
ENDBRANCH   7  12
BRANCH   1  22
ATOM     21  C   UNL     1       2.251   5.280 -10.138  0.00  0.00    +0.005 C 
ATOM     22  C   UNL     1       3.088   6.260  -9.123  0.00  0.00    +0.022 C 
BRANCH  22  23
ATOM     23  C   UNL     1       4.506   5.879  -9.796  0.00  0.00    -0.031 C 
ATOM     24  C   UNL     1       5.072   6.832 -10.533  0.00  0.00    -0.029 C 
BRANCH  24  25
ATOM     25  C   UNL     1       5.015   6.606 -12.146  0.00  0.00    +0.050 C 
ATOM     26  C   UNL     1       5.662   5.086 -12.041  0.00  0.00    +0.007 C 
BRANCH  25  27
ATOM     27  C   UNL     1       6.494   7.317 -12.354  0.00  0.00    +0.130 C 
ATOM     28  O   UNL     1       6.380   7.723 -13.663  0.00  0.00    -0.225 OA
ATOM     29  C   UNL     1       7.418   6.169 -12.122  0.00  0.00    +0.033 C 
ATOM     30  C   UNL     1       6.587   8.403 -11.349  0.00  0.00    +0.033 C 
ENDBRANCH  25  27
ENDBRANCH  24  25
ENDBRANCH  22  23
ENDBRANCH   1  22
TORSDOF 5
ENDMDL
MODEL 7
REMARK VINA RESULT:      -9.5      1.962      9.885
REMARK  Name = 
REMARK  5 active torsions:
REMARK  status: ('A' for Active; 'I' for Inactive)
REMARK    1  A    between atoms: C_2  and  C_3
REMARK    2  A    between atoms: C_2  and  C_11
REMARK    3  A    between atoms: C_4  and  C_5
REMARK    4  A    between atoms: C_5  and  C_7
REMARK    5  A    between atoms: C_16  and  C_17
REMARK                            x       y       z     vdW  Elec       q    Type
REMARK                         _______ _______ _______ _____ _____    ______ ____
ROOT
ATOM      1  C   UNL     1       3.734   4.882  -7.870  0.00  0.00    +0.004 C 
ATOM      2  C   UNL     1       2.268   5.540  -7.651  0.00  0.00    +0.004 C 
ATOM      3  C   UNL     1       2.174   4.710  -6.226  0.00  0.00    +0.018 C 
ATOM      4  C   UNL     1       0.943   5.638  -5.695  0.00  0.00    -0.045 C 
ATOM      5  C   UNL     1      -0.257   5.367  -6.550  0.00  0.00    +0.022 C 
ATOM      6  C   UNL     1      -0.033   5.597  -8.008  0.00  0.00    +0.004 C 
ATOM      7  C   UNL     1       0.687   5.384  -4.400  0.00  0.00    -0.009 C 
ATOM      8  C   UNL     1       3.318   5.711  -5.584  0.00  0.00    +0.004 C 
ATOM      9  C   UNL     1       2.383   6.954  -7.353  0.00  0.00    +0.000 C 
ATOM     10  C   UNL     1       1.268   4.988  -8.521  0.00  0.00    +0.001 C 
ATOM     11  C   UNL     1       4.339   5.791  -6.661  0.00  0.00    +0.001 C 
ENDROOT
BRANCH   7  12
ATOM     12  C   UNL     1      -0.515   5.994  -3.821  0.00  0.00    -0.009 C 
ATOM     13  C   UNL     1      -0.727   5.875  -2.519  0.00  0.00    -0.039 C 
ATOM     14  C   UNL     1       0.088   4.948  -1.750  0.00  0.00    +0.055 C 
ATOM     15  C   UNL     1       0.957   5.882  -0.657  0.00  0.00    +0.159 C 
ATOM     16  O   UNL     1       0.969   7.165  -1.526  0.00  0.00    -0.223 OA
ATOM     17  C   UNL     1      -0.433   6.245   0.198  0.00  0.00    +0.066 C 
ATOM     18  C   UNL     1      -1.057   7.517  -0.684  0.00  0.00    +0.159 C 
ATOM     19  O   UNL     1      -2.301   7.552   0.224  0.00  0.00    -0.223 OA
ATOM     20  C   UNL     1      -1.833   6.508  -1.779  0.00  0.00    +0.055 C 
ENDBRANCH   7  12
BRANCH   1  22
ATOM     21  C   UNL     1       3.667   4.979 -10.242  0.00  0.00    +0.005 C 
ATOM     22  C   UNL     1       4.121   6.045  -9.080  0.00  0.00    +0.022 C 
BRANCH  22  23
ATOM     23  C   UNL     1       5.678   5.631  -9.196  0.00  0.00    -0.031 C 
ATOM     24  C   UNL     1       6.382   6.278 -10.123  0.00  0.00    -0.029 C 
BRANCH  24  25
ATOM     25  C   UNL     1       6.754   5.418 -11.456  0.00  0.00    +0.050 C 
ATOM     26  C   UNL     1       8.348   5.864 -11.401  0.00  0.00    +0.007 C 
BRANCH  25  27
ATOM     27  C   UNL     1       6.346   6.676 -12.450  0.00  0.00    +0.130 C 
ATOM     28  O   UNL     1       5.041   6.344 -12.728  0.00  0.00    -0.225 OA
ATOM     29  C   UNL     1       7.304   6.495 -13.578  0.00  0.00    +0.033 C 
ATOM     30  C   UNL     1       6.540   7.918 -11.662  0.00  0.00    +0.033 C 
ENDBRANCH  25  27
ENDBRANCH  24  25
ENDBRANCH  22  23
ENDBRANCH   1  22
TORSDOF 5
ENDMDL
MODEL 8
REMARK VINA RESULT:      -9.1      2.480     10.281
REMARK  Name = 
REMARK  5 active torsions:
REMARK  status: ('A' for Active; 'I' for Inactive)
REMARK    1  A    between atoms: C_2  and  C_3
REMARK    2  A    between atoms: C_2  and  C_11
REMARK    3  A    between atoms: C_4  and  C_5
REMARK    4  A    between atoms: C_5  and  C_7
REMARK    5  A    between atoms: C_16  and  C_17
REMARK                            x       y       z     vdW  Elec       q    Type
REMARK                         _______ _______ _______ _____ _____    ______ ____
ROOT
ATOM      1  C   UNL     1       1.427   5.594  -6.052  0.00  0.00    +0.004 C 
ATOM      2  C   UNL     1      -0.020   6.080  -5.501  0.00  0.00    +0.004 C 
ATOM      3  C   UNL     1       0.317   5.289  -4.092  0.00  0.00    +0.018 C 
ATOM      4  C   UNL     1      -0.863   6.080  -3.293  0.00  0.00    -0.045 C 
ATOM      5  C   UNL     1      -2.185   5.643  -3.846  0.00  0.00    +0.022 C 
ATOM      6  C   UNL     1      -2.331   5.854  -5.317  0.00  0.00    +0.004 C 
ATOM      7  C   UNL     1      -0.783   5.837  -1.973  0.00  0.00    -0.009 C 
ATOM      8  C   UNL     1       1.447   6.437  -3.733  0.00  0.00    +0.004 C 
ATOM      9  C   UNL     1      -0.013   7.507  -5.241  0.00  0.00    +0.000 C 
ATOM     10  C   UNL     1      -1.118   5.388  -6.116  0.00  0.00    +0.001 C 
ATOM     11  C   UNL     1       2.176   6.605  -5.017  0.00  0.00    +0.001 C 
ENDROOT
BRANCH   7  12
ATOM     12  C   UNL     1      -1.885   6.318  -1.134  0.00  0.00    -0.009 C 
ATOM     13  C   UNL     1      -1.619   6.718   0.102  0.00  0.00    -0.039 C 
ATOM     14  C   UNL     1      -0.309   6.442   0.669  0.00  0.00    +0.055 C 
ATOM     15  C   UNL     1       0.408   7.936   0.943  0.00  0.00    +0.159 C 
ATOM     16  O   UNL     1      -0.360   8.684  -0.176  0.00  0.00    -0.223 OA
ATOM     17  C   UNL     1      -0.674   8.274   2.173  0.00  0.00    +0.066 C 
ATOM     18  C   UNL     1      -1.990   8.848   1.324  0.00  0.00    +0.159 C 
ATOM     19  O   UNL     1      -2.799   8.959   2.631  0.00  0.00    -0.223 OA
ATOM     20  C   UNL     1      -2.599   7.311   1.029  0.00  0.00    +0.055 C 
ENDBRANCH   7  12
BRANCH   1  22
ATOM     21  C   UNL     1       1.141   5.553  -8.409  0.00  0.00    +0.005 C 
ATOM     22  C   UNL     1       1.381   6.758  -7.322  0.00  0.00    +0.022 C 
BRANCH  22  23
ATOM     23  C   UNL     1       2.976   6.773  -7.570  0.00  0.00    -0.031 C 
ATOM     24  C   UNL     1       3.366   6.639  -8.836  0.00  0.00    -0.029 C 
BRANCH  24  25
ATOM     25  C   UNL     1       4.002   5.191  -9.230  0.00  0.00    +0.050 C 
ATOM     26  C   UNL     1       5.086   5.232  -7.980  0.00  0.00    +0.007 C 
BRANCH  25  27
ATOM     27  C   UNL     1       5.066   5.885 -10.290  0.00  0.00    +0.130 C 
ATOM     28  O   UNL     1       4.912   5.041 -11.366  0.00  0.00    -0.225 OA
ATOM     29  C   UNL     1       6.357   5.751  -9.556  0.00  0.00    +0.033 C 
ATOM     30  C   UNL     1       4.609   7.281 -10.497  0.00  0.00    +0.033 C 
ENDBRANCH  25  27
ENDBRANCH  24  25
ENDBRANCH  22  23
ENDBRANCH   1  22
TORSDOF 5
ENDMDL
MODEL 9
REMARK VINA RESULT:      -9.1      3.626      8.706
REMARK  Name = 
REMARK  5 active torsions:
REMARK  status: ('A' for Active; 'I' for Inactive)
REMARK    1  A    between atoms: C_2  and  C_3
REMARK    2  A    between atoms: C_2  and  C_11
REMARK    3  A    between atoms: C_4  and  C_5
REMARK    4  A    between atoms: C_5  and  C_7
REMARK    5  A    between atoms: C_16  and  C_17
REMARK                            x       y       z     vdW  Elec       q    Type
REMARK                         _______ _______ _______ _____ _____    ______ ____
ROOT
ATOM      1  C   UNL     1       1.448   4.908  -8.902  0.00  0.00    +0.004 C 
ATOM      2  C   UNL     1       0.697   5.623  -7.654  0.00  0.00    +0.004 C 
ATOM      3  C   UNL     1       1.522   4.603  -6.651  0.00  0.00    +0.018 C 
ATOM      4  C   UNL     1       1.197   5.523  -5.345  0.00  0.00    -0.045 C 
ATOM      5  C   UNL     1      -0.276   5.459  -5.076  0.00  0.00    +0.022 C 
ATOM      6  C   UNL     1      -1.126   5.883  -6.229  0.00  0.00    +0.004 C 
ATOM      7  C   UNL     1       1.905   5.101  -4.283  0.00  0.00    -0.009 C 
ATOM      8  C   UNL     1       2.916   5.421  -6.986  0.00  0.00    +0.004 C 
ATOM      9  C   UNL     1       1.202   6.968  -7.458  0.00  0.00    +0.000 C 
ATOM     10  C   UNL     1      -0.691   5.270  -7.556  0.00  0.00    +0.001 C 
ATOM     11  C   UNL     1       2.860   5.590  -8.462  0.00  0.00    +0.001 C 
ENDROOT
BRANCH   7  12
ATOM     12  C   UNL     1       1.585   5.699  -2.983  0.00  0.00    -0.009 C 
ATOM     13  C   UNL     1       2.578   6.014  -2.163  0.00  0.00    -0.039 C 
ATOM     14  C   UNL     1       3.920   5.539  -2.461  0.00  0.00    +0.055 C 
ATOM     15  C   UNL     1       4.851   6.909  -2.740  0.00  0.00    +0.159 C 
ATOM     16  O   UNL     1       3.680   7.795  -3.231  0.00  0.00    -0.223 OA
ATOM     17  C   UNL     1       4.759   7.347  -1.129  0.00  0.00    +0.066 C 
ATOM     18  C   UNL     1       3.286   8.129  -1.070  0.00  0.00    +0.159 C 
ATOM     19  O   UNL     1       3.426   8.303   0.455  0.00  0.00    -0.223 OA
ATOM     20  C   UNL     1       2.423   6.702  -0.870  0.00  0.00    +0.055 C 
ENDBRANCH   7  12
BRANCH   1  22
ATOM     21  C   UNL     1      -0.122   5.263 -10.648  0.00  0.00    +0.005 C 
ATOM     22  C   UNL     1       1.027   6.206  -9.953  0.00  0.00    +0.022 C 
BRANCH  22  23
ATOM     23  C   UNL     1       2.121   5.846 -11.085  0.00  0.00    -0.031 C 
ATOM     24  C   UNL     1       1.927   6.406 -12.277  0.00  0.00    -0.029 C 
BRANCH  24  25
ATOM     25  C   UNL     1       1.386   5.409 -13.447  0.00  0.00    +0.050 C 
ATOM     26  C   UNL     1       2.912   5.103 -14.009  0.00  0.00    +0.007 C 
BRANCH  25  27
ATOM     27  C   UNL     1       1.158   6.670 -14.494  0.00  0.00    +0.130 C 
ATOM     28  O   UNL     1       2.414   6.746 -15.049  0.00  0.00    -0.225 OA
ATOM     29  C   UNL     1       0.805   7.778 -13.562  0.00  0.00    +0.033 C 
ATOM     30  C   UNL     1       0.070   6.262 -15.416  0.00  0.00    +0.033 C 
ENDBRANCH  25  27
ENDBRANCH  24  25
ENDBRANCH  22  23
ENDBRANCH   1  22
TORSDOF 5
ENDMDL
