MODEL 1
REMARK VINA RESULT:      -9.0      0.000      0.000
REMARK  Name = 
REMARK  5 active torsions:
REMARK  status: ('A' for Active; 'I' for Inactive)
REMARK    1  A    between atoms: C_2  and  C_3
REMARK    2  A    between atoms: C_3  and  O_4
REMARK    3  A    between atoms: O_4  and  C_5
REMARK    4  A    between atoms: C_16  and  O_17
REMARK    5  A    between atoms: O_17  and  C_18
REMARK                            x       y       z     vdW  Elec       q    Type
REMARK                         _______ _______ _______ _____ _____    ______ ____
ROOT
ATOM      1  C   UNL     1      -0.890   6.244  -4.861  0.00  0.00    +0.189 C 
ATOM      2  C   UNL     1      -0.162   5.600  -5.961  0.00  0.00    +0.045 C 
ATOM      3  C   UNL     1       0.882   6.816  -6.183  0.00  0.00    +0.004 C 
ATOM      4  C   UNL     1       2.026   5.780  -6.844  0.00  0.00    +0.001 C 
ATOM      5  C   UNL     1       1.538   6.267  -8.365  0.00  0.00    +0.004 C 
ATOM      6  C   UNL     1       0.330   5.199  -8.356  0.00  0.00    +0.000 C 
ATOM      7  C   UNL     1       2.536   5.246  -9.269  0.00  0.00    +0.018 C 
ATOM      8  C   UNL     1       3.876   5.273  -8.413  0.00  0.00    -0.045 C 
ATOM      9  C   UNL     1       4.732   4.771  -9.329  0.00  0.00    +0.008 C 
ATOM     10  C   UNL     1       5.492   5.873 -10.241  0.00  0.00    +0.190 C 
ATOM     11  C   UNL     1       4.318   6.993  -9.950  0.00  0.00    +0.049 C 
ATOM     12  C   UNL     1       4.193   6.048  -7.266  0.00  0.00    +0.022 C 
ATOM     13  C   UNL     1       3.013   6.461 -10.244  0.00  0.00    +0.008 C 
ATOM     14  C   UNL     1       3.129   6.952  -6.790  0.00  0.00    +0.004 C 
ATOM     15  C   UNL     1       1.404   6.640  -4.660  0.00  0.00    +0.005 C 
ATOM     16  C   UNL     1       0.543   4.409  -5.442  0.00  0.00    +0.004 C 
ATOM     17  C   UNL     1      -0.686   5.559  -7.322  0.00  0.00    +0.004 C 
ATOM     18  C   UNL     1       0.073   7.238  -4.184  0.00  0.00    +0.053 C 
ENDROOT
BRANCH   1  20
ATOM     19  C   UNL     1      -2.978   7.381  -5.536  0.00  0.00    -0.011 C 
ATOM     20  C   UNL     1      -2.130   6.907  -5.266  0.00  0.00    -0.040 C 
ENDBRANCH   1  20
BRANCH  10  21
ATOM     21  O   UNL     1       4.823   5.438 -11.558  0.00  0.00    -0.448 OA
BRANCH  21  22
ATOM     22  C   UNL     1       5.866   5.290 -12.484  0.00  0.00    +0.318 C 
ATOM     23  O   UNL     1       5.684   4.943 -13.689  0.00  0.00    -0.250 OA
ATOM     24  C   UNL     1       7.294   5.401 -12.102  0.00  0.00    +0.121 C 
ENDBRANCH  21  22
ENDBRANCH  10  21
BRANCH   1  25
ATOM     25  O   UNL     1      -1.076   5.387  -3.736  0.00  0.00    -0.443 OA
BRANCH  25  26
ATOM     26  C   UNL     1      -2.098   5.450  -2.843  0.00  0.00    +0.318 C 
ATOM     27  O   UNL     1      -3.029   4.643  -3.027  0.00  0.00    -0.250 OA
ATOM     28  C   UNL     1      -2.103   6.544  -1.841  0.00  0.00    +0.121 C 
ENDBRANCH  25  26
ENDBRANCH   1  25
TORSDOF 5
ENDMDL
MODEL 2
REMARK VINA RESULT:      -8.6      1.237      8.612
REMARK  Name = 
REMARK  5 active torsions:
REMARK  status: ('A' for Active; 'I' for Inactive)
REMARK    1  A    between atoms: C_2  and  C_3
REMARK    2  A    between atoms: C_3  and  O_4
REMARK    3  A    between atoms: O_4  and  C_5
REMARK    4  A    between atoms: C_16  and  O_17
REMARK    5  A    between atoms: O_17  and  C_18
REMARK                            x       y       z     vdW  Elec       q    Type
REMARK                         _______ _______ _______ _____ _____    ______ ____
ROOT
ATOM      1  C   UNL     1       5.685   6.115 -10.575  0.00  0.00    +0.189 C 
ATOM      2  C   UNL     1       4.918   5.508  -9.479  0.00  0.00    +0.045 C 
ATOM      3  C   UNL     1       3.947   6.783  -9.252  0.00  0.00    +0.004 C 
ATOM      4  C   UNL     1       2.743   5.812  -8.598  0.00  0.00    +0.001 C 
ATOM      5  C   UNL     1       3.256   6.260  -7.074  0.00  0.00    +0.004 C 
ATOM      6  C   UNL     1       4.399   5.122  -7.088  0.00  0.00    +0.000 C 
ATOM      7  C   UNL     1       2.198   5.295  -6.178  0.00  0.00    +0.018 C 
ATOM      8  C   UNL     1       0.864   5.406  -7.035  0.00  0.00    -0.045 C 
ATOM      9  C   UNL     1      -0.022   4.950  -6.123  0.00  0.00    +0.008 C 
ATOM     10  C   UNL     1      -0.717   6.089  -5.205  0.00  0.00    +0.190 C 
ATOM     11  C   UNL     1       0.522   7.140  -5.488  0.00  0.00    +0.049 C 
ATOM     12  C   UNL     1       0.595   6.205  -8.178  0.00  0.00    +0.022 C 
ATOM     13  C   UNL     1       1.793   6.530  -5.196  0.00  0.00    +0.008 C 
ATOM     14  C   UNL     1       1.711   7.048  -8.647  0.00  0.00    +0.004 C 
ATOM     15  C   UNL     1       3.419   6.647 -10.776  0.00  0.00    +0.005 C 
ATOM     16  C   UNL     1       4.145   4.365 -10.007  0.00  0.00    +0.004 C 
ATOM     17  C   UNL     1       5.437   5.428  -8.119  0.00  0.00    +0.004 C 
ATOM     18  C   UNL     1       4.783   7.168 -11.247  0.00  0.00    +0.053 C 
ENDROOT
BRANCH   1  20
ATOM     19  C   UNL     1       7.843   7.113  -9.900  0.00  0.00    -0.011 C 
ATOM     20  C   UNL     1       6.961   6.701 -10.164  0.00  0.00    -0.040 C 
ENDBRANCH   1  20
BRANCH  10  21
ATOM     21  O   UNL     1      -0.076   5.608  -3.890  0.00  0.00    -0.448 OA
BRANCH  21  22
ATOM     22  C   UNL     1      -1.142   5.402  -3.001  0.00  0.00    +0.318 C 
ATOM     23  O   UNL     1      -0.984   5.079  -1.786  0.00  0.00    -0.250 OA
ATOM     24  C   UNL     1      -2.559   5.419  -3.437  0.00  0.00    +0.121 C 
ENDBRANCH  21  22
ENDBRANCH  10  21
BRANCH   1  25
ATOM     25  O   UNL     1       5.822   5.256 -11.705  0.00  0.00    -0.443 OA
BRANCH  25  26
ATOM     26  C   UNL     1       6.819   5.299 -12.626  0.00  0.00    +0.318 C 
ATOM     27  O   UNL     1       7.781   4.535 -12.419  0.00  0.00    -0.250 OA
ATOM     28  C   UNL     1       6.763   6.330 -13.691  0.00  0.00    +0.121 C 
ENDBRANCH  25  26
ENDBRANCH   1  25
TORSDOF 5
ENDMDL
MODEL 3
REMARK VINA RESULT:      -8.4      3.039      7.613
REMARK  Name = 
REMARK  5 active torsions:
REMARK  status: ('A' for Active; 'I' for Inactive)
REMARK    1  A    between atoms: C_2  and  C_3
REMARK    2  A    between atoms: C_3  and  O_4
REMARK    3  A    between atoms: O_4  and  C_5
REMARK    4  A    between atoms: C_16  and  O_17
REMARK    5  A    between atoms: O_17  and  C_18
REMARK                            x       y       z     vdW  Elec       q    Type
REMARK                         _______ _______ _______ _____ _____    ______ ____
ROOT
ATOM      1  C   UNL     1       1.895   5.720  -9.698  0.00  0.00    +0.189 C 
ATOM      2  C   UNL     1       1.743   6.301  -8.358  0.00  0.00    +0.045 C 
ATOM      3  C   UNL     1       2.902   5.403  -7.672  0.00  0.00    +0.004 C 
ATOM      4  C   UNL     1       3.162   6.558  -6.481  0.00  0.00    +0.001 C 
ATOM      5  C   UNL     1       2.212   5.656  -5.447  0.00  0.00    +0.004 C 
ATOM      6  C   UNL     1       0.870   6.326  -6.040  0.00  0.00    +0.000 C 
ATOM      7  C   UNL     1       2.244   6.706  -4.124  0.00  0.00    +0.018 C 
ATOM      8  C   UNL     1       3.746   7.226  -4.167  0.00  0.00    -0.045 C 
ATOM      9  C   UNL     1       3.834   7.747  -2.925  0.00  0.00    +0.008 C 
ATOM     10  C   UNL     1       4.395   6.737  -1.790  0.00  0.00    +0.190 C 
ATOM     11  C   UNL     1       3.964   5.419  -2.682  0.00  0.00    +0.049 C 
ATOM     12  C   UNL     1       4.811   6.820  -5.013  0.00  0.00    +0.022 C 
ATOM     13  C   UNL     1       2.584   5.498  -3.085  0.00  0.00    +0.008 C 
ATOM     14  C   UNL     1       4.484   5.774  -6.000  0.00  0.00    +0.004 C 
ATOM     15  C   UNL     1       3.986   6.024  -8.702  0.00  0.00    +0.005 C 
ATOM     16  C   UNL     1       2.154   7.720  -8.399  0.00  0.00    +0.004 C 
ATOM     17  C   UNL     1       0.659   5.917  -7.461  0.00  0.00    +0.004 C 
ATOM     18  C   UNL     1       3.337   5.191  -9.815  0.00  0.00    +0.053 C 
ENDROOT
BRANCH   1  20
ATOM     19  C   UNL     1       0.256   3.952 -10.248  0.00  0.00    -0.011 C 
ATOM     20  C   UNL     1       0.923   4.671 -10.012  0.00  0.00    -0.040 C 
ENDBRANCH   1  20
BRANCH  10  21
ATOM     21  O   UNL     1       3.079   6.691  -0.992  0.00  0.00    -0.448 OA
BRANCH  21  22
ATOM     22  C   UNL     1       3.353   7.323   0.230  0.00  0.00    +0.318 C 
ATOM     23  O   UNL     1       4.090   6.815   1.128  0.00  0.00    -0.250 OA
ATOM     24  C   UNL     1       2.701   8.591   0.637  0.00  0.00    +0.121 C 
ENDBRANCH  21  22
ENDBRANCH  10  21
BRANCH   1  25
ATOM     25  O   UNL     1       1.984   6.702 -10.728  0.00  0.00    -0.443 OA
BRANCH  25  26
ATOM     26  C   UNL     1       1.210   6.765 -11.842  0.00  0.00    +0.318 C 
ATOM     27  O   UNL     1       1.753   6.397 -12.901  0.00  0.00    -0.250 OA
ATOM     28  C   UNL     1      -0.130   7.393 -11.745  0.00  0.00    +0.121 C 
ENDBRANCH  25  26
ENDBRANCH   1  25
TORSDOF 5
ENDMDL
MODEL 4
REMARK VINA RESULT:      -8.4      2.841      4.282
REMARK  Name = 
REMARK  5 active torsions:
REMARK  status: ('A' for Active; 'I' for Inactive)
REMARK    1  A    between atoms: C_2  and  C_3
REMARK    2  A    between atoms: C_3  and  O_4
REMARK    3  A    between atoms: O_4  and  C_5
REMARK    4  A    between atoms: C_16  and  O_17
REMARK    5  A    between atoms: O_17  and  C_18
REMARK                            x       y       z     vdW  Elec       q    Type
REMARK                         _______ _______ _______ _____ _____    ______ ____
ROOT
ATOM      1  C   UNL     1       2.976   6.002  -2.322  0.00  0.00    +0.189 C 
ATOM      2  C   UNL     1       3.666   6.147  -3.610  0.00  0.00    +0.045 C 
ATOM      3  C   UNL     1       2.430   5.609  -4.505  0.00  0.00    +0.004 C 
ATOM      4  C   UNL     1       2.969   6.457  -5.851  0.00  0.00    +0.001 C 
ATOM      5  C   UNL     1       3.656   5.047  -6.421  0.00  0.00    +0.004 C 
ATOM      6  C   UNL     1       4.978   5.290  -5.529  0.00  0.00    +0.000 C 
ATOM      7  C   UNL     1       4.381   5.684  -7.808  0.00  0.00    +0.018 C 
ATOM      8  C   UNL     1       3.278   6.720  -8.295  0.00  0.00    -0.045 C 
ATOM      9  C   UNL     1       3.710   6.924  -9.558  0.00  0.00    +0.008 C 
ATOM     10  C   UNL     1       3.053   5.955 -10.677  0.00  0.00    +0.190 C 
ATOM     11  C   UNL     1       2.663   4.826  -9.541  0.00  0.00    +0.049 C 
ATOM     12  C   UNL     1       1.977   6.955  -7.777  0.00  0.00    +0.022 C 
ATOM     13  C   UNL     1       3.811   4.479  -8.744  0.00  0.00    +0.008 C 
ATOM     14  C   UNL     1       1.590   6.131  -6.617  0.00  0.00    +0.004 C 
ATOM     15  C   UNL     1       1.506   6.816  -3.946  0.00  0.00    +0.005 C 
ATOM     16  C   UNL     1       3.901   7.582  -3.873  0.00  0.00    +0.004 C 
ATOM     17  C   UNL     1       4.659   5.184  -4.073  0.00  0.00    +0.004 C 
ATOM     18  C   UNL     1       1.462   6.093  -2.592  0.00  0.00    +0.053 C 
ENDROOT
BRANCH   1  20
ATOM     19  C   UNL     1       3.517   3.929  -1.088  0.00  0.00    -0.011 C 
ATOM     20  C   UNL     1       3.308   4.775  -1.597  0.00  0.00    -0.040 C 
ENDBRANCH   1  20
BRANCH  10  21
ATOM     21  O   UNL     1       4.369   5.234 -11.018  0.00  0.00    -0.448 OA
BRANCH  21  22
ATOM     22  C   UNL     1       4.447   5.224 -12.418  0.00  0.00    +0.318 C 
ATOM     23  O   UNL     1       5.486   4.877 -13.056  0.00  0.00    -0.250 OA
ATOM     24  C   UNL     1       3.359   5.743 -13.282  0.00  0.00    +0.121 C 
ENDBRANCH  21  22
ENDBRANCH  10  21
BRANCH   1  25
ATOM     25  O   UNL     1       3.077   7.162  -1.499  0.00  0.00    -0.443 OA
BRANCH  25  26
ATOM     26  C   UNL     1       3.409   7.182  -0.183  0.00  0.00    +0.318 C 
ATOM     27  O   UNL     1       2.453   7.203   0.617  0.00  0.00    -0.250 OA
ATOM     28  C   UNL     1       4.836   7.330   0.192  0.00  0.00    +0.121 C 
ENDBRANCH  25  26
ENDBRANCH   1  25
TORSDOF 5
ENDMDL
MODEL 5
REMARK VINA RESULT:      -8.3      3.072      4.003
REMARK  Name = 
REMARK  5 active torsions:
REMARK  status: ('A' for Active; 'I' for Inactive)
REMARK    1  A    between atoms: C_2  and  C_3
REMARK    2  A    between atoms: C_3  and  O_4
REMARK    3  A    between atoms: O_4  and  C_5
REMARK    4  A    between atoms: C_16  and  O_17
REMARK    5  A    between atoms: O_17  and  C_18
REMARK                            x       y       z     vdW  Elec       q    Type
REMARK                         _______ _______ _______ _____ _____    ______ ____
ROOT
ATOM      1  C   UNL     1       2.716   5.970  -3.232  0.00  0.00    +0.189 C 
ATOM      2  C   UNL     1       2.554   5.316  -4.537  0.00  0.00    +0.045 C 
ATOM      3  C   UNL     1       2.262   6.682  -5.355  0.00  0.00    +0.004 C 
ATOM      4  C   UNL     1       2.810   6.000  -6.788  0.00  0.00    +0.001 C 
ATOM      5  C   UNL     1       1.223   5.711  -7.217  0.00  0.00    +0.004 C 
ATOM      6  C   UNL     1       1.209   4.338  -6.373  0.00  0.00    +0.000 C 
ATOM      7  C   UNL     1       1.517   4.904  -8.672  0.00  0.00    +0.018 C 
ATOM      8  C   UNL     1       2.746   5.730  -9.251  0.00  0.00    -0.045 C 
ATOM      9  C   UNL     1       2.709   5.310 -10.534  0.00  0.00    +0.008 C 
ATOM     10  C   UNL     1       1.834   6.233 -11.537  0.00  0.00    +0.190 C 
ATOM     11  C   UNL     1       0.957   6.849 -10.283  0.00  0.00    +0.049 C 
ATOM     12  C   UNL     1       3.353   6.910  -8.743  0.00  0.00    +0.022 C 
ATOM     13  C   UNL     1       0.410   5.795  -9.470  0.00  0.00    +0.008 C 
ATOM     14  C   UNL     1       2.771   7.445  -7.498  0.00  0.00    +0.004 C 
ATOM     15  C   UNL     1       3.713   7.250  -4.913  0.00  0.00    +0.005 C 
ATOM     16  C   UNL     1       3.850   4.739  -4.952  0.00  0.00    +0.004 C 
ATOM     17  C   UNL     1       1.331   4.615  -4.910  0.00  0.00    +0.004 C 
ATOM     18  C   UNL     1       3.161   7.422  -3.491  0.00  0.00    +0.053 C 
ENDROOT
BRANCH   1  20
ATOM     19  C   UNL     1       0.692   5.918  -1.813  0.00  0.00    -0.011 C 
ATOM     20  C   UNL     1       1.522   5.929  -2.387  0.00  0.00    -0.040 C 
ENDBRANCH   1  20
BRANCH  10  21
ATOM     21  O   UNL     1       0.772   5.154 -11.817  0.00  0.00    -0.448 OA
BRANCH  21  22
ATOM     22  C   UNL     1       0.751   4.993 -13.210  0.00  0.00    +0.318 C 
ATOM     23  O   UNL     1       0.663   3.865 -13.780  0.00  0.00    -0.250 OA
ATOM     24  C   UNL     1       0.960   6.123 -14.147  0.00  0.00    +0.121 C 
ENDBRANCH  21  22
ENDBRANCH  10  21
BRANCH   1  25
ATOM     25  O   UNL     1       3.887   5.549  -2.536  0.00  0.00    -0.443 OA
BRANCH  25  26
ATOM     26  C   UNL     1       4.002   5.379  -1.194  0.00  0.00    +0.318 C 
ATOM     27  O   UNL     1       3.649   4.268  -0.756  0.00  0.00    -0.250 OA
ATOM     28  C   UNL     1       4.379   6.545  -0.357  0.00  0.00    +0.121 C 
ENDBRANCH  25  26
ENDBRANCH   1  25
TORSDOF 5
ENDMDL
MODEL 6
REMARK VINA RESULT:      -8.2      1.499      2.756
REMARK  Name = 
REMARK  5 active torsions:
REMARK  status: ('A' for Active; 'I' for Inactive)
REMARK    1  A    between atoms: C_2  and  C_3
REMARK    2  A    between atoms: C_3  and  O_4
REMARK    3  A    between atoms: O_4  and  C_5
REMARK    4  A    between atoms: C_16  and  O_17
REMARK    5  A    between atoms: O_17  and  C_18
REMARK                            x       y       z     vdW  Elec       q    Type
REMARK                         _______ _______ _______ _____ _____    ______ ____
ROOT
ATOM      1  C   UNL     1      -0.573   6.123  -3.810  0.00  0.00    +0.189 C 
ATOM      2  C   UNL     1       0.570   6.577  -4.612  0.00  0.00    +0.045 C 
ATOM      3  C   UNL     1       0.525   5.338  -5.653  0.00  0.00    +0.004 C 
ATOM      4  C   UNL     1       1.273   6.250  -6.848  0.00  0.00    +0.001 C 
ATOM      5  C   UNL     1       2.722   5.523  -6.448  0.00  0.00    +0.004 C 
ATOM      6  C   UNL     1       2.962   6.580  -5.255  0.00  0.00    +0.000 C 
ATOM      7  C   UNL     1       3.716   6.379  -7.512  0.00  0.00    +0.018 C 
ATOM      8  C   UNL     1       2.785   6.490  -8.797  0.00  0.00    -0.045 C 
ATOM      9  C   UNL     1       3.716   6.834  -9.713  0.00  0.00    +0.008 C 
ATOM     10  C   UNL     1       4.386   5.596 -10.514  0.00  0.00    +0.190 C 
ATOM     11  C   UNL     1       3.991   4.540  -9.310  0.00  0.00    +0.049 C 
ATOM     12  C   UNL     1       1.510   5.912  -9.033  0.00  0.00    +0.022 C 
ATOM     13  C   UNL     1       4.448   5.020  -8.032  0.00  0.00    +0.008 C 
ATOM     14  C   UNL     1       0.960   5.100  -7.931  0.00  0.00    +0.004 C 
ATOM     15  C   UNL     1      -0.978   5.760  -6.082  0.00  0.00    +0.005 C 
ATOM     16  C   UNL     1       0.209   7.835  -5.298  0.00  0.00    +0.004 C 
ATOM     17  C   UNL     1       1.949   6.396  -4.173  0.00  0.00    +0.004 C 
ATOM     18  C   UNL     1      -1.461   5.250  -4.717  0.00  0.00    +0.053 C 
ENDROOT
BRANCH   1  20
ATOM     19  C   UNL     1       0.069   4.918  -1.749  0.00  0.00    -0.011 C 
ATOM     20  C   UNL     1      -0.204   5.405  -2.589  0.00  0.00    -0.040 C 
ENDBRANCH   1  20
BRANCH  10  21
ATOM     21  O   UNL     1       5.796   5.811  -9.932  0.00  0.00    -0.448 OA
BRANCH  21  22
ATOM     22  C   UNL     1       6.614   6.133 -11.025  0.00  0.00    +0.318 C 
ATOM     23  O   UNL     1       7.329   5.284 -11.635  0.00  0.00    -0.250 OA
ATOM     24  C   UNL     1       6.815   7.528 -11.487  0.00  0.00    +0.121 C 
ENDBRANCH  21  22
ENDBRANCH  10  21
BRANCH   1  25
ATOM     25  O   UNL     1      -1.529   7.152  -3.566  0.00  0.00    -0.443 OA
BRANCH  25  26
ATOM     26  C   UNL     1      -2.362   7.232  -2.496  0.00  0.00    +0.318 C 
ATOM     27  O   UNL     1      -1.917   7.846  -1.507  0.00  0.00    -0.250 OA
ATOM     28  C   UNL     1      -3.637   6.475  -2.526  0.00  0.00    +0.121 C 
ENDBRANCH  25  26
ENDBRANCH   1  25
TORSDOF 5
ENDMDL
MODEL 7
REMARK VINA RESULT:      -8.1      3.131      7.410
REMARK  Name = 
REMARK  5 active torsions:
REMARK  status: ('A' for Active; 'I' for Inactive)
REMARK    1  A    between atoms: C_2  and  C_3
REMARK    2  A    between atoms: C_3  and  O_4
REMARK    3  A    between atoms: O_4  and  C_5
REMARK    4  A    between atoms: C_16  and  O_17
REMARK    5  A    between atoms: O_17  and  C_18
REMARK                            x       y       z     vdW  Elec       q    Type
REMARK                         _______ _______ _______ _____ _____    ______ ____
ROOT
ATOM      1  C   UNL     1       1.079   5.848 -10.787  0.00  0.00    +0.189 C 
ATOM      2  C   UNL     1       1.942   6.222  -9.659  0.00  0.00    +0.045 C 
ATOM      3  C   UNL     1       1.094   5.408  -8.546  0.00  0.00    +0.004 C 
ATOM      4  C   UNL     1       2.440   5.265  -7.552  0.00  0.00    +0.001 C 
ATOM      5  C   UNL     1       1.877   6.558  -6.660  0.00  0.00    +0.004 C 
ATOM      6  C   UNL     1       2.541   7.604  -7.692  0.00  0.00    +0.000 C 
ATOM      7  C   UNL     1       3.172   6.681  -5.582  0.00  0.00    +0.018 C 
ATOM      8  C   UNL     1       3.516   5.151  -5.323  0.00  0.00    -0.045 C 
ATOM      9  C   UNL     1       4.275   5.281  -4.213  0.00  0.00    +0.008 C 
ATOM     10  C   UNL     1       3.473   5.163  -2.811  0.00  0.00    +0.190 C 
ATOM     11  C   UNL     1       2.048   5.566  -3.537  0.00  0.00    +0.049 C 
ATOM     12  C   UNL     1       2.835   3.989  -5.775  0.00  0.00    +0.022 C 
ATOM     13  C   UNL     1       2.181   6.784  -4.293  0.00  0.00    +0.008 C 
ATOM     14  C   UNL     1       1.644   4.229  -6.611  0.00  0.00    +0.004 C 
ATOM     15  C   UNL     1       1.371   4.030  -9.349  0.00  0.00    +0.005 C 
ATOM     16  C   UNL     1       3.271   5.603  -9.842  0.00  0.00    +0.004 C 
ATOM     17  C   UNL     1       1.866   7.532  -9.024  0.00  0.00    +0.004 C 
ATOM     18  C   UNL     1       0.393   4.516 -10.428  0.00  0.00    +0.053 C 
ENDROOT
BRANCH   1  20
ATOM     19  C   UNL     1      -0.602   7.551 -11.408  0.00  0.00    -0.011 C 
ATOM     20  C   UNL     1       0.092   6.865 -11.153  0.00  0.00    -0.040 C 
ENDBRANCH   1  20
BRANCH  10  21
ATOM     21  O   UNL     1       3.730   6.622  -2.390  0.00  0.00    -0.448 OA
BRANCH  21  22
ATOM     22  C   UNL     1       4.032   6.575  -1.021  0.00  0.00    +0.318 C 
ATOM     23  O   UNL     1       3.983   5.512  -0.332  0.00  0.00    -0.250 OA
ATOM     24  C   UNL     1       4.314   7.793  -0.223  0.00  0.00    +0.121 C 
ENDBRANCH  21  22
ENDBRANCH  10  21
BRANCH   1  25
ATOM     25  O   UNL     1       1.809   5.370 -11.915  0.00  0.00    -0.443 OA
BRANCH  25  26
ATOM     26  C   UNL     1       1.368   5.341 -13.199  0.00  0.00    +0.318 C 
ATOM     27  O   UNL     1       0.693   4.344 -13.518  0.00  0.00    -0.250 OA
ATOM     28  C   UNL     1       1.839   6.388 -14.139  0.00  0.00    +0.121 C 
ENDBRANCH  25  26
ENDBRANCH   1  25
TORSDOF 5
ENDMDL
MODEL 8
REMARK VINA RESULT:      -7.8      3.002      7.626
REMARK  Name = 
REMARK  5 active torsions:
REMARK  status: ('A' for Active; 'I' for Inactive)
REMARK    1  A    between atoms: C_2  and  C_3
REMARK    2  A    between atoms: C_3  and  O_4
REMARK    3  A    between atoms: O_4  and  C_5
REMARK    4  A    between atoms: C_16  and  O_17
REMARK    5  A    between atoms: O_17  and  C_18
REMARK                            x       y       z     vdW  Elec       q    Type
REMARK                         _______ _______ _______ _____ _____    ______ ____
ROOT
ATOM      1  C   UNL     1       2.150   5.698 -11.478  0.00  0.00    +0.189 C 
ATOM      2  C   UNL     1       2.406   5.157 -10.137  0.00  0.00    +0.045 C 
ATOM      3  C   UNL     1       2.422   6.596  -9.395  0.00  0.00    +0.004 C 
ATOM      4  C   UNL     1       1.984   5.901  -7.930  0.00  0.00    +0.001 C 
ATOM      5  C   UNL     1       3.589   5.938  -7.472  0.00  0.00    +0.004 C 
ATOM      6  C   UNL     1       3.875   4.548  -8.238  0.00  0.00    +0.000 C 
ATOM      7  C   UNL     1       3.423   5.169  -5.977  0.00  0.00    +0.018 C 
ATOM      8  C   UNL     1       2.051   5.779  -5.456  0.00  0.00    -0.045 C 
ATOM      9  C   UNL     1       2.141   5.443  -4.151  0.00  0.00    +0.008 C 
ATOM     10  C   UNL     1       2.809   6.566  -3.194  0.00  0.00    +0.190 C 
ATOM     11  C   UNL     1       3.579   7.267  -4.472  0.00  0.00    +0.049 C 
ATOM     12  C   UNL     1       1.244   6.795  -6.034  0.00  0.00    +0.022 C 
ATOM     13  C   UNL     1       4.329   6.293  -5.221  0.00  0.00    +0.008 C 
ATOM     14  C   UNL     1       1.739   7.363  -7.302  0.00  0.00    +0.004 C 
ATOM     15  C   UNL     1       0.899   6.857  -9.881  0.00  0.00    +0.005 C 
ATOM     16  C   UNL     1       1.233   4.371  -9.702  0.00  0.00    +0.004 C 
ATOM     17  C   UNL     1       3.731   4.719  -9.715  0.00  0.00    +0.004 C 
ATOM     18  C   UNL     1       1.437   7.053 -11.305  0.00  0.00    +0.053 C 
ENDROOT
BRANCH   1  20
ATOM     19  C   UNL     1       4.160   5.925 -12.898  0.00  0.00    -0.011 C 
ATOM     20  C   UNL     1       3.346   5.837 -12.310  0.00  0.00    -0.040 C 
ENDBRANCH   1  20
BRANCH  10  21
ATOM     21  O   UNL     1       4.048   5.721  -2.845  0.00  0.00    -0.448 OA
BRANCH  21  22
ATOM     22  C   UNL     1       4.160   5.770  -1.447  0.00  0.00    +0.318 C 
ATOM     23  O   UNL     1       3.804   4.821  -0.686  0.00  0.00    -0.250 OA
ATOM     24  C   UNL     1       4.589   6.990  -0.722  0.00  0.00    +0.121 C 
ENDBRANCH  21  22
ENDBRANCH  10  21
BRANCH   1  25
ATOM     25  O   UNL     1       1.091   5.029 -12.159  0.00  0.00    -0.443 OA
BRANCH  25  26
ATOM     26  C   UNL     1       0.950   4.918 -13.505  0.00  0.00    +0.318 C 
ATOM     27  O   UNL     1       0.619   5.959 -14.103  0.00  0.00    -0.250 OA
ATOM     28  C   UNL     1       1.046   3.573 -14.124  0.00  0.00    +0.121 C 
ENDBRANCH  25  26
ENDBRANCH   1  25
TORSDOF 5
ENDMDL
MODEL 9
REMARK VINA RESULT:      -7.8      2.975      4.718
REMARK  Name = 
REMARK  5 active torsions:
REMARK  status: ('A' for Active; 'I' for Inactive)
REMARK    1  A    between atoms: C_2  and  C_3
REMARK    2  A    between atoms: C_3  and  O_4
REMARK    3  A    between atoms: O_4  and  C_5
REMARK    4  A    between atoms: C_16  and  O_17
REMARK    5  A    between atoms: O_17  and  C_18
REMARK                            x       y       z     vdW  Elec       q    Type
REMARK                         _______ _______ _______ _____ _____    ______ ____
ROOT
ATOM      1  C   UNL     1       2.396   5.695  -5.657  0.00  0.00    +0.189 C 
ATOM      2  C   UNL     1       2.439   6.374  -6.959  0.00  0.00    +0.045 C 
ATOM      3  C   UNL     1       1.712   5.181  -7.775  0.00  0.00    +0.004 C 
ATOM      4  C   UNL     1       1.162   6.250  -8.948  0.00  0.00    +0.001 C 
ATOM      5  C   UNL     1       2.438   5.786  -9.919  0.00  0.00    +0.004 C 
ATOM      6  C   UNL     1       3.422   6.833  -9.186  0.00  0.00    +0.000 C 
ATOM      7  C   UNL     1       2.148   6.842 -11.206  0.00  0.00    +0.018 C 
ATOM      8  C   UNL     1       0.560   6.821 -11.283  0.00  0.00    -0.045 C 
ATOM      9  C   UNL     1       0.392   7.356 -12.511  0.00  0.00    +0.008 C 
ATOM     10  C   UNL     1       0.296   6.286 -13.723  0.00  0.00    +0.190 C 
ATOM     11  C   UNL     1       1.083   5.140 -12.837  0.00  0.00    +0.049 C 
ATOM     12  C   UNL     1      -0.363   6.028 -10.550  0.00  0.00    +0.022 C 
ATOM     13  C   UNL     1       2.320   5.655 -12.309  0.00  0.00    +0.008 C 
ATOM     14  C   UNL     1       0.228   5.096  -9.571  0.00  0.00    +0.004 C 
ATOM     15  C   UNL     1       0.407   5.335  -6.829  0.00  0.00    +0.005 C 
ATOM     16  C   UNL     1       1.567   7.566  -6.910  0.00  0.00    +0.004 C 
ATOM     17  C   UNL     1       3.653   6.434  -7.765  0.00  0.00    +0.004 C 
ATOM     18  C   UNL     1       1.217   4.704  -5.688  0.00  0.00    +0.053 C 
ENDROOT
BRANCH   1  20
ATOM     19  C   UNL     1       4.490   4.548  -5.018  0.00  0.00    -0.011 C 
ATOM     20  C   UNL     1       3.641   5.019  -5.290  0.00  0.00    -0.040 C 
ENDBRANCH   1  20
BRANCH  10  21
ATOM     21  O   UNL     1       1.604   6.736 -14.399  0.00  0.00    -0.448 OA
BRANCH  21  22
ATOM     22  C   UNL     1       1.217   7.395 -15.576  0.00  0.00    +0.318 C 
ATOM     23  O   UNL     1       0.805   6.789 -16.611  0.00  0.00    -0.250 OA
ATOM     24  C   UNL     1       1.376   8.857 -15.762  0.00  0.00    +0.121 C 
ENDBRANCH  21  22
ENDBRANCH  10  21
BRANCH   1  25
ATOM     25  O   UNL     1       1.900   6.526  -4.609  0.00  0.00    -0.443 OA
BRANCH  25  26
ATOM     26  C   UNL     1       2.385   6.589  -3.342  0.00  0.00    +0.318 C 
ATOM     27  O   UNL     1       1.827   5.847  -2.511  0.00  0.00    -0.250 OA
ATOM     28  C   UNL     1       3.405   7.616  -3.018  0.00  0.00    +0.121 C 
ENDBRANCH  25  26
ENDBRANCH   1  25
TORSDOF 5
ENDMDL
