MODEL 1
REMARK VINA RESULT:      -8.8      0.000      0.000
REMARK  Name = 
REMARK  4 active torsions:
REMARK  status: ('A' for Active; 'I' for Inactive)
REMARK    1  A    between atoms: C_2  and  C_3
REMARK    2  A    between atoms: C_3  and  O_4
REMARK    3  A    between atoms: O_4  and  C_5
REMARK    4  A    between atoms: C_25  and  C_26
REMARK                            x       y       z     vdW  Elec       q    Type
REMARK                         _______ _______ _______ _____ _____    ______ ____
ROOT
ATOM      1  C   UNL     1      -0.737   6.584  -4.432  0.00  0.00    +0.189 C 
ATOM      2  C   UNL     1       0.094   6.274  -5.618  0.00  0.00    +0.045 C 
ATOM      3  C   UNL     1       1.575   6.361  -4.954  0.00  0.00    +0.004 C 
ATOM      4  C   UNL     1       2.234   5.250  -6.049  0.00  0.00    +0.001 C 
ATOM      5  C   UNL     1       2.618   6.529  -7.070  0.00  0.00    +0.004 C 
ATOM      6  C   UNL     1       1.150   6.541  -7.734  0.00  0.00    +0.000 C 
ATOM      7  C   UNL     1       3.254   5.477  -8.237  0.00  0.00    +0.019 C 
ATOM      8  C   UNL     1       4.692   5.497  -7.532  0.00  0.00    -0.043 C 
ATOM      9  C   UNL     1       5.707   5.130  -8.275  0.00  0.00    +0.010 C 
ATOM     10  C   UNL     1       5.861   5.748  -9.593  0.00  0.00    +0.101 C 
ATOM     11  C   UNL     1       4.578   6.110 -10.273  0.00  0.00    +0.050 C 
ATOM     12  N   UNL     1       6.886   5.585 -10.328  0.00  0.00    -0.034 NA
ATOM     13  O   UNL     1       6.836   5.584 -11.705  0.00  0.00    -0.143 OA
ATOM     14  C   UNL     1       4.737   5.732  -6.096  0.00  0.00    +0.022 C 
ATOM     15  C   UNL     1       3.640   6.712  -9.235  0.00  0.00    +0.010 C 
ATOM     16  C   UNL     1       3.643   5.227  -5.276  0.00  0.00    +0.004 C 
ATOM     17  C   UNL     1       1.100   5.275  -3.835  0.00  0.00    +0.005 C 
ATOM     18  C   UNL     1       0.218   7.221  -6.725  0.00  0.00    +0.004 C 
ATOM     19  C   UNL     1       0.200   6.371  -3.238  0.00  0.00    +0.053 C 
ENDROOT
BRANCH   1  21
ATOM     20  C   UNL     1      -1.985   8.869  -4.424  0.00  0.00    -0.011 C 
ATOM     21  C   UNL     1      -1.275   7.932  -4.435  0.00  0.00    -0.040 C 
ENDBRANCH   1  21
BRANCH   2  22
ATOM     22  C   UNL     1      -0.177   4.849  -5.982  0.00  0.00    +0.004 C 
ATOM     23  C   UNL     1      -1.345   4.906  -6.961  0.00  0.00    +0.000 C 
ENDBRANCH   2  22
BRANCH   1  24
ATOM     24  O   UNL     1      -1.752   5.598  -4.216  0.00  0.00    -0.443 OA
BRANCH  24  25
ATOM     25  C   UNL     1      -2.558   5.573  -3.086  0.00  0.00    +0.318 C 
ATOM     26  O   UNL     1      -2.223   4.744  -2.186  0.00  0.00    -0.250 OA
ATOM     27  C   UNL     1      -3.919   6.202  -3.046  0.00  0.00    +0.121 C 
ENDBRANCH  24  25
ENDBRANCH   1  24
TORSDOF 4
ENDMDL
MODEL 2
REMARK VINA RESULT:      -8.7      2.737      8.477
REMARK  Name = 
REMARK  4 active torsions:
REMARK  status: ('A' for Active; 'I' for Inactive)
REMARK    1  A    between atoms: C_2  and  C_3
REMARK    2  A    between atoms: C_3  and  O_4
REMARK    3  A    between atoms: O_4  and  C_5
REMARK    4  A    between atoms: C_25  and  C_26
REMARK                            x       y       z     vdW  Elec       q    Type
REMARK                         _______ _______ _______ _____ _____    ______ ____
ROOT
ATOM      1  C   UNL     1       5.251   6.317 -11.156  0.00  0.00    +0.189 C 
ATOM      2  C   UNL     1       4.408   6.110  -9.956  0.00  0.00    +0.045 C 
ATOM      3  C   UNL     1       2.934   6.150 -10.640  0.00  0.00    +0.004 C 
ATOM      4  C   UNL     1       2.258   5.137  -9.464  0.00  0.00    +0.001 C 
ATOM      5  C   UNL     1       1.873   6.497  -8.555  0.00  0.00    +0.004 C 
ATOM      6  C   UNL     1       3.334   6.557  -7.880  0.00  0.00    +0.000 C 
ATOM      7  C   UNL     1       1.220   5.548  -7.312  0.00  0.00    +0.019 C 
ATOM      8  C   UNL     1      -0.212   5.518  -8.030  0.00  0.00    -0.043 C 
ATOM      9  C   UNL     1      -1.236   5.219  -7.269  0.00  0.00    +0.010 C 
ATOM     10  C   UNL     1      -1.398   5.945  -6.007  0.00  0.00    +0.101 C 
ATOM     11  C   UNL     1      -0.120   6.354  -5.348  0.00  0.00    +0.050 C 
ATOM     12  N   UNL     1      -2.431   5.847  -5.271  0.00  0.00    -0.034 NA
ATOM     13  O   UNL     1      -2.393   5.960  -3.899  0.00  0.00    -0.143 OA
ATOM     14  C   UNL     1      -0.242   5.634  -9.481  0.00  0.00    +0.022 C 
ATOM     15  C   UNL     1       0.832   6.863  -6.423  0.00  0.00    +0.010 C 
ATOM     16  C   UNL     1       0.857   5.057 -10.245  0.00  0.00    +0.004 C 
ATOM     17  C   UNL     1       3.413   4.973 -11.661  0.00  0.00    +0.005 C 
ATOM     18  C   UNL     1       4.280   7.147  -8.933  0.00  0.00    +0.004 C 
ATOM     19  C   UNL     1       4.325   6.011 -12.338  0.00  0.00    +0.053 C 
ENDROOT
BRANCH   1  21
ATOM     20  C   UNL     1       6.511   8.593 -11.287  0.00  0.00    -0.011 C 
ATOM     21  C   UNL     1       5.798   7.658 -11.259  0.00  0.00    -0.040 C 
ENDBRANCH   1  21
BRANCH   2  22
ATOM     22  C   UNL     1       4.668   4.719  -9.474  0.00  0.00    +0.004 C 
ATOM     23  C   UNL     1       5.779   4.860  -8.439  0.00  0.00    +0.000 C 
ENDBRANCH   2  22
BRANCH   1  24
ATOM     24  O   UNL     1       6.263   5.312 -11.281  0.00  0.00    -0.443 OA
BRANCH  24  25
ATOM     25  C   UNL     1       7.244   5.339 -12.262  0.00  0.00    +0.318 C 
ATOM     26  O   UNL     1       6.962   4.737 -13.343  0.00  0.00    -0.250 OA
ATOM     27  C   UNL     1       8.664   5.729 -11.980  0.00  0.00    +0.121 C 
ENDBRANCH  24  25
ENDBRANCH   1  24
TORSDOF 4
ENDMDL
MODEL 3
REMARK VINA RESULT:      -8.3      3.998      7.867
REMARK  Name = 
REMARK  4 active torsions:
REMARK  status: ('A' for Active; 'I' for Inactive)
REMARK    1  A    between atoms: C_2  and  C_3
REMARK    2  A    between atoms: C_3  and  O_4
REMARK    3  A    between atoms: O_4  and  C_5
REMARK    4  A    between atoms: C_25  and  C_26
REMARK                            x       y       z     vdW  Elec       q    Type
REMARK                         _______ _______ _______ _____ _____    ______ ____
ROOT
ATOM      1  C   UNL     1       1.365   5.652 -12.863  0.00  0.00    +0.189 C 
ATOM      2  C   UNL     1       0.964   5.841 -11.450  0.00  0.00    +0.045 C 
ATOM      3  C   UNL     1       2.354   5.442 -10.708  0.00  0.00    +0.004 C 
ATOM      4  C   UNL     1       2.043   6.446  -9.381  0.00  0.00    +0.001 C 
ATOM      5  C   UNL     1       1.270   5.159  -8.625  0.00  0.00    +0.004 C 
ATOM      6  C   UNL     1      -0.126   5.457  -9.370  0.00  0.00    +0.000 C 
ATOM      7  C   UNL     1       0.880   6.113  -7.279  0.00  0.00    +0.019 C 
ATOM      8  C   UNL     1       2.287   5.786  -6.587  0.00  0.00    -0.043 C 
ATOM      9  C   UNL     1       2.354   5.978  -5.292  0.00  0.00    +0.010 C 
ATOM     10  C   UNL     1       1.309   5.394  -4.449  0.00  0.00    +0.101 C 
ATOM     11  C   UNL     1      -0.042   5.315  -5.085  0.00  0.00    +0.050 C 
ATOM     12  N   UNL     1       1.359   5.384  -3.178  0.00  0.00    -0.034 NA
ATOM     13  O   UNL     1       0.238   5.449  -2.378  0.00  0.00    -0.143 OA
ATOM     14  C   UNL     1       3.416   5.490  -7.457  0.00  0.00    +0.022 C 
ATOM     15  C   UNL     1       0.134   4.866  -6.530  0.00  0.00    +0.010 C 
ATOM     16  C   UNL     1       3.492   6.165  -8.747  0.00  0.00    +0.004 C 
ATOM     17  C   UNL     1       3.121   6.555 -11.620  0.00  0.00    +0.005 C 
ATOM     18  C   UNL     1       0.020   4.932 -10.802  0.00  0.00    +0.004 C 
ATOM     19  C   UNL     1       2.897   5.632 -12.830  0.00  0.00    +0.053 C 
ENDROOT
BRANCH   1  21
ATOM     20  C   UNL     1       0.575   3.557 -14.193  0.00  0.00    -0.011 C 
ATOM     21  C   UNL     1       0.844   4.435 -13.458  0.00  0.00    -0.040 C 
ENDBRANCH   1  21
BRANCH   2  22
ATOM     22  C   UNL     1       0.728   7.305 -11.255  0.00  0.00    +0.004 C 
ATOM     23  C   UNL     1      -0.748   7.513 -11.577  0.00  0.00    +0.000 C 
ENDBRANCH   2  22
BRANCH   1  24
ATOM     24  O   UNL     1       1.082   6.806 -13.661  0.00  0.00    -0.443 OA
BRANCH  24  25
ATOM     25  C   UNL     1       1.046   6.781 -15.048  0.00  0.00    +0.318 C 
ATOM     26  O   UNL     1       2.163   6.926 -15.633  0.00  0.00    -0.250 OA
ATOM     27  C   UNL     1      -0.225   6.926 -15.830  0.00  0.00    +0.121 C 
ENDBRANCH  24  25
ENDBRANCH   1  24
TORSDOF 4
ENDMDL
MODEL 4
REMARK VINA RESULT:      -8.3      2.801      4.578
REMARK  Name = 
REMARK  4 active torsions:
REMARK  status: ('A' for Active; 'I' for Inactive)
REMARK    1  A    between atoms: C_2  and  C_3
REMARK    2  A    between atoms: C_3  and  O_4
REMARK    3  A    between atoms: O_4  and  C_5
REMARK    4  A    between atoms: C_25  and  C_26
REMARK                            x       y       z     vdW  Elec       q    Type
REMARK                         _______ _______ _______ _____ _____    ______ ____
ROOT
ATOM      1  C   UNL     1       3.040   5.798  -2.519  0.00  0.00    +0.189 C 
ATOM      2  C   UNL     1       3.509   6.028  -3.905  0.00  0.00    +0.045 C 
ATOM      3  C   UNL     1       2.203   5.522  -4.730  0.00  0.00    +0.004 C 
ATOM      4  C   UNL     1       2.510   6.555  -6.035  0.00  0.00    +0.001 C 
ATOM      5  C   UNL     1       3.430   5.340  -6.744  0.00  0.00    +0.004 C 
ATOM      6  C   UNL     1       4.750   5.746  -5.915  0.00  0.00    +0.000 C 
ATOM      7  C   UNL     1       3.821   6.330  -8.062  0.00  0.00    +0.019 C 
ATOM      8  C   UNL     1       2.490   5.893  -8.839  0.00  0.00    -0.043 C 
ATOM      9  C   UNL     1       2.485   6.087 -10.135  0.00  0.00    +0.010 C 
ATOM     10  C   UNL     1       3.624   5.595 -10.914  0.00  0.00    +0.101 C 
ATOM     11  C   UNL     1       4.936   5.623 -10.197  0.00  0.00    +0.050 C 
ATOM     12  N   UNL     1       3.652   5.589 -12.186  0.00  0.00    -0.034 NA
ATOM     13  O   UNL     1       4.809   5.749 -12.916  0.00  0.00    -0.143 OA
ATOM     14  C   UNL     1       1.339   5.501  -8.039  0.00  0.00    +0.022 C 
ATOM     15  C   UNL     1       4.710   5.153  -8.766  0.00  0.00    +0.010 C 
ATOM     16  C   UNL     1       1.130   6.161  -6.756  0.00  0.00    +0.004 C 
ATOM     17  C   UNL     1       1.295   6.563  -3.865  0.00  0.00    +0.005 C 
ATOM     18  C   UNL     1       4.561   5.202  -4.495  0.00  0.00    +0.004 C 
ATOM     19  C   UNL     1       1.519   5.654  -2.644  0.00  0.00    +0.053 C 
ENDROOT
BRANCH   1  21
ATOM     20  C   UNL     1       4.000   3.819  -1.125  0.00  0.00    -0.011 C 
ATOM     21  C   UNL     1       3.622   4.625  -1.895  0.00  0.00    -0.040 C 
ENDBRANCH   1  21
BRANCH   2  22
ATOM     22  C   UNL     1       3.636   7.508  -4.084  0.00  0.00    +0.004 C 
ATOM     23  C   UNL     1       5.101   7.817  -3.793  0.00  0.00    +0.000 C 
ENDBRANCH   2  22
BRANCH   1  24
ATOM     24  O   UNL     1       3.179   6.968  -1.704  0.00  0.00    -0.443 OA
BRANCH  24  25
ATOM     25  C   UNL     1       3.520   6.921  -0.360  0.00  0.00    +0.318 C 
ATOM     26  O   UNL     1       2.550   6.877   0.456  0.00  0.00    -0.250 OA
ATOM     27  C   UNL     1       4.895   7.250   0.140  0.00  0.00    +0.121 C 
ENDBRANCH  24  25
ENDBRANCH   1  24
TORSDOF 4
ENDMDL
MODEL 5
REMARK VINA RESULT:      -8.0      3.080      4.135
REMARK  Name = 
REMARK  4 active torsions:
REMARK  status: ('A' for Active; 'I' for Inactive)
REMARK    1  A    between atoms: C_2  and  C_3
REMARK    2  A    between atoms: C_3  and  O_4
REMARK    3  A    between atoms: O_4  and  C_5
REMARK    4  A    between atoms: C_25  and  C_26
REMARK                            x       y       z     vdW  Elec       q    Type
REMARK                         _______ _______ _______ _____ _____    ______ ____
ROOT
ATOM      1  C   UNL     1       3.678   6.229  -3.508  0.00  0.00    +0.189 C 
ATOM      2  C   UNL     1       2.990   6.096  -4.813  0.00  0.00    +0.045 C 
ATOM      3  C   UNL     1       4.269   6.176  -5.813  0.00  0.00    +0.004 C 
ATOM      4  C   UNL     1       3.518   5.230  -7.000  0.00  0.00    +0.001 C 
ATOM      5  C   UNL     1       2.895   6.633  -7.684  0.00  0.00    +0.004 C 
ATOM      6  C   UNL     1       1.631   6.652  -6.685  0.00  0.00    +0.000 C 
ATOM      7  C   UNL     1       2.075   5.752  -8.877  0.00  0.00    +0.019 C 
ATOM      8  C   UNL     1       3.364   5.759  -9.827  0.00  0.00    -0.043 C 
ATOM      9  C   UNL     1       3.148   5.527 -11.099  0.00  0.00    +0.010 C 
ATOM     10  C   UNL     1       2.104   6.299 -11.777  0.00  0.00    +0.101 C 
ATOM     11  C   UNL     1       0.940   6.675 -10.917  0.00  0.00    +0.050 C 
ATOM     12  N   UNL     1       1.916   6.268 -13.035  0.00  0.00    -0.034 NA
ATOM     13  O   UNL     1       0.677   6.422 -13.617  0.00  0.00    -0.143 OA
ATOM     14  C   UNL     1       4.672   5.831  -9.192  0.00  0.00    +0.022 C 
ATOM     15  C   UNL     1       1.471   7.109  -9.557  0.00  0.00    +0.010 C 
ATOM     16  C   UNL     1       4.850   5.185  -7.898  0.00  0.00    +0.004 C 
ATOM     17  C   UNL     1       4.951   4.949  -4.985  0.00  0.00    +0.005 C 
ATOM     18  C   UNL     1       2.146   7.168  -5.337  0.00  0.00    +0.004 C 
ATOM     19  C   UNL     1       5.149   5.926  -3.814  0.00  0.00    +0.053 C 
ENDROOT
BRANCH   1  21
ATOM     20  C   UNL     1       3.663   8.507  -2.245  0.00  0.00    -0.011 C 
ATOM     21  C   UNL     1       3.534   7.542  -2.906  0.00  0.00    -0.040 C 
ENDBRANCH   1  21
BRANCH   2  22
ATOM     22  C   UNL     1       2.431   4.710  -4.872  0.00  0.00    +0.004 C 
ATOM     23  C   UNL     1       0.958   4.863  -4.503  0.00  0.00    +0.000 C 
ENDBRANCH   2  22
BRANCH   1  24
ATOM     24  O   UNL     1       3.322   5.179  -2.603  0.00  0.00    -0.443 OA
BRANCH  24  25
ATOM     25  C   UNL     1       2.920   5.407  -1.295  0.00  0.00    +0.318 C 
ATOM     26  O   UNL     1       3.830   5.327  -0.414  0.00  0.00    -0.250 OA
ATOM     27  C   UNL     1       1.480   5.402  -0.875  0.00  0.00    +0.121 C 
ENDBRANCH  24  25
ENDBRANCH   1  24
TORSDOF 4
ENDMDL
MODEL 6
REMARK VINA RESULT:      -7.9      3.998      6.753
REMARK  Name = 
REMARK  4 active torsions:
REMARK  status: ('A' for Active; 'I' for Inactive)
REMARK    1  A    between atoms: C_2  and  C_3
REMARK    2  A    between atoms: C_3  and  O_4
REMARK    3  A    between atoms: O_4  and  C_5
REMARK    4  A    between atoms: C_25  and  C_26
REMARK                            x       y       z     vdW  Elec       q    Type
REMARK                         _______ _______ _______ _____ _____    ______ ____
ROOT
ATOM      1  C   UNL     1       1.077   5.825 -10.997  0.00  0.00    +0.189 C 
ATOM      2  C   UNL     1       1.946   6.073  -9.823  0.00  0.00    +0.045 C 
ATOM      3  C   UNL     1       1.170   5.181  -8.707  0.00  0.00    +0.004 C 
ATOM      4  C   UNL     1       2.585   4.884  -7.825  0.00  0.00    +0.001 C 
ATOM      5  C   UNL     1       2.281   6.272  -6.927  0.00  0.00    +0.004 C 
ATOM      6  C   UNL     1       2.982   7.227  -8.019  0.00  0.00    +0.000 C 
ATOM      7  C   UNL     1       3.706   6.069  -6.032  0.00  0.00    +0.019 C 
ATOM      8  C   UNL     1       2.958   5.122  -4.978  0.00  0.00    -0.043 C 
ATOM      9  C   UNL     1       3.537   4.982  -3.811  0.00  0.00    +0.010 C 
ATOM     10  C   UNL     1       3.950   6.190  -3.092  0.00  0.00    +0.101 C 
ATOM     11  C   UNL     1       4.377   7.327  -3.965  0.00  0.00    +0.050 C 
ATOM     12  N   UNL     1       4.375   6.181  -1.894  0.00  0.00    -0.034 NA
ATOM     13  O   UNL     1       5.309   7.075  -1.417  0.00  0.00    -0.143 OA
ATOM     14  C   UNL     1       1.818   4.352  -5.453  0.00  0.00    +0.022 C 
ATOM     15  C   UNL     1       3.417   7.412  -5.145  0.00  0.00    +0.010 C 
ATOM     16  C   UNL     1       1.829   3.875  -6.830  0.00  0.00    +0.004 C 
ATOM     17  C   UNL     1       1.286   3.896  -9.703  0.00  0.00    +0.005 C 
ATOM     18  C   UNL     1       1.985   7.381  -9.172  0.00  0.00    +0.004 C 
ATOM     19  C   UNL     1       0.260   4.585 -10.618  0.00  0.00    +0.053 C 
ENDROOT
BRANCH   1  21
ATOM     20  C   UNL     1      -0.709   7.613 -11.625  0.00  0.00    -0.011 C 
ATOM     21  C   UNL     1       0.207   6.940 -11.322  0.00  0.00    -0.040 C 
ENDBRANCH   1  21
BRANCH   2  22
ATOM     22  C   UNL     1       3.264   5.427 -10.111  0.00  0.00    +0.004 C 
ATOM     23  C   UNL     1       4.084   6.500 -10.820  0.00  0.00    +0.000 C 
ENDBRANCH   2  22
BRANCH   1  24
ATOM     24  O   UNL     1       1.824   5.376 -12.133  0.00  0.00    -0.443 OA
BRANCH  24  25
ATOM     25  C   UNL     1       1.338   5.428 -13.431  0.00  0.00    +0.318 C 
ATOM     26  O   UNL     1       0.770   4.374 -13.852  0.00  0.00    -0.250 OA
ATOM     27  C   UNL     1       1.740   6.493 -14.407  0.00  0.00    +0.121 C 
ENDBRANCH  24  25
ENDBRANCH   1  24
TORSDOF 4
ENDMDL
MODEL 7
REMARK VINA RESULT:      -7.6      3.716      7.881
REMARK  Name = 
REMARK  4 active torsions:
REMARK  status: ('A' for Active; 'I' for Inactive)
REMARK    1  A    between atoms: C_2  and  C_3
REMARK    2  A    between atoms: C_3  and  O_4
REMARK    3  A    between atoms: O_4  and  C_5
REMARK    4  A    between atoms: C_25  and  C_26
REMARK                            x       y       z     vdW  Elec       q    Type
REMARK                         _______ _______ _______ _____ _____    ______ ____
ROOT
ATOM      1  C   UNL     1       1.002   5.927  -7.533  0.00  0.00    +0.189 C 
ATOM      2  C   UNL     1       0.928   5.808  -6.059  0.00  0.00    +0.045 C 
ATOM      3  C   UNL     1      -0.608   6.280  -5.816  0.00  0.00    +0.004 C 
ATOM      4  C   UNL     1      -0.772   5.345  -4.413  0.00  0.00    +0.001 C 
ATOM      5  C   UNL     1      -0.227   6.655  -3.511  0.00  0.00    +0.004 C 
ATOM      6  C   UNL     1       1.320   6.283  -3.760  0.00  0.00    +0.000 C 
ATOM      7  C   UNL     1      -0.320   5.769  -2.069  0.00  0.00    +0.019 C 
ATOM      8  C   UNL     1      -1.859   6.167  -1.875  0.00  0.00    -0.043 C 
ATOM      9  C   UNL     1      -2.339   6.050  -0.661  0.00  0.00    +0.010 C 
ATOM     10  C   UNL     1      -1.592   6.656   0.442  0.00  0.00    +0.101 C 
ATOM     11  C   UNL     1      -0.106   6.668   0.265  0.00  0.00    +0.050 C 
ATOM     12  N   UNL     1      -2.039   6.738   1.630  0.00  0.00    -0.034 NA
ATOM     13  O   UNL     1      -1.233   6.692   2.746  0.00  0.00    -0.143 OA
ATOM     14  C   UNL     1      -2.643   6.440  -3.071  0.00  0.00    +0.022 C 
ATOM     15  C   UNL     1       0.200   7.038  -1.180  0.00  0.00    +0.010 C 
ATOM     16  C   UNL     1      -2.335   5.695  -4.286  0.00  0.00    +0.004 C 
ATOM     17  C   UNL     1      -1.091   5.136  -6.872  0.00  0.00    +0.005 C 
ATOM     18  C   UNL     1       1.655   6.731  -5.187  0.00  0.00    +0.004 C 
ATOM     19  C   UNL     1      -0.460   5.984  -7.990  0.00  0.00    +0.053 C 
ENDROOT
BRANCH   1  21
ATOM     20  C   UNL     1       2.568   7.890  -8.225  0.00  0.00    -0.011 C 
ATOM     21  C   UNL     1       1.733   7.096  -7.987  0.00  0.00    -0.040 C 
ENDBRANCH   1  21
BRANCH   2  22
ATOM     22  C   UNL     1       1.033   4.352  -5.732  0.00  0.00    +0.004 C 
ATOM     23  C   UNL     1       2.528   4.081  -5.609  0.00  0.00    +0.000 C 
ENDBRANCH   2  22
BRANCH   1  24
ATOM     24  O   UNL     1       1.476   4.724  -8.146  0.00  0.00    -0.443 OA
BRANCH  24  25
ATOM     25  C   UNL     1       2.322   4.713  -9.246  0.00  0.00    +0.318 C 
ATOM     26  O   UNL     1       1.754   4.746 -10.381  0.00  0.00    -0.250 OA
ATOM     27  C   UNL     1       3.770   4.339  -9.153  0.00  0.00    +0.121 C 
ENDBRANCH  24  25
ENDBRANCH   1  24
TORSDOF 4
ENDMDL
MODEL 8
REMARK VINA RESULT:      -7.4      3.601      7.101
REMARK  Name = 
REMARK  4 active torsions:
REMARK  status: ('A' for Active; 'I' for Inactive)
REMARK    1  A    between atoms: C_2  and  C_3
REMARK    2  A    between atoms: C_3  and  O_4
REMARK    3  A    between atoms: O_4  and  C_5
REMARK    4  A    between atoms: C_25  and  C_26
REMARK                            x       y       z     vdW  Elec       q    Type
REMARK                         _______ _______ _______ _____ _____    ______ ____
ROOT
ATOM      1  C   UNL     1       2.560   5.341  -9.279  0.00  0.00    +0.189 C 
ATOM      2  C   UNL     1       2.469   5.903  -7.912  0.00  0.00    +0.045 C 
ATOM      3  C   UNL     1       3.486   4.903  -7.130  0.00  0.00    +0.004 C 
ATOM      4  C   UNL     1       3.904   6.075  -5.981  0.00  0.00    +0.001 C 
ATOM      5  C   UNL     1       2.635   5.540  -5.016  0.00  0.00    +0.004 C 
ATOM      6  C   UNL     1       1.559   6.459  -5.785  0.00  0.00    +0.000 C 
ATOM      7  C   UNL     1       2.962   6.716  -3.841  0.00  0.00    +0.019 C 
ATOM      8  C   UNL     1       4.026   5.760  -3.120  0.00  0.00    -0.043 C 
ATOM      9  C   UNL     1       4.316   6.050  -1.876  0.00  0.00    +0.010 C 
ATOM     10  C   UNL     1       3.211   6.256  -0.936  0.00  0.00    +0.101 C 
ATOM     11  C   UNL     1       1.978   6.854  -1.536  0.00  0.00    +0.050 C 
ATOM     12  N   UNL     1       3.374   6.386   0.318  0.00  0.00    -0.034 NA
ATOM     13  O   UNL     1       2.555   7.162   1.109  0.00  0.00    -0.143 OA
ATOM     14  C   UNL     1       4.720   4.780  -3.943  0.00  0.00    +0.022 C 
ATOM     15  C   UNL     1       1.738   6.199  -2.890  0.00  0.00    +0.010 C 
ATOM     16  C   UNL     1       5.022   5.126  -5.326  0.00  0.00    +0.004 C 
ATOM     17  C   UNL     1       4.638   5.277  -8.221  0.00  0.00    +0.005 C 
ATOM     18  C   UNL     1       1.252   5.759  -7.113  0.00  0.00    +0.004 C 
ATOM     19  C   UNL     1       3.830   4.483  -9.261  0.00  0.00    +0.053 C 
ENDROOT
BRANCH   1  21
ATOM     20  C   UNL     1       0.424   4.148 -10.171  0.00  0.00    -0.011 C 
ATOM     21  C   UNL     1       1.405   4.550  -9.661  0.00  0.00    -0.040 C 
ENDBRANCH   1  21
BRANCH   2  22
ATOM     22  C   UNL     1       3.087   7.264  -7.956  0.00  0.00    +0.004 C 
ATOM     23  C   UNL     1       1.909   8.233  -7.964  0.00  0.00    +0.000 C 
ENDBRANCH   2  22
BRANCH   1  24
ATOM     24  O   UNL     1       2.872   6.344 -10.252  0.00  0.00    -0.443 OA
BRANCH  24  25
ATOM     25  C   UNL     1       3.415   6.054 -11.495  0.00  0.00    +0.318 C 
ATOM     26  O   UNL     1       4.644   6.335 -11.641  0.00  0.00    -0.250 OA
ATOM     27  C   UNL     1       2.574   5.762 -12.701  0.00  0.00    +0.121 C 
ENDBRANCH  24  25
ENDBRANCH   1  24
TORSDOF 4
ENDMDL
MODEL 9
REMARK VINA RESULT:      -7.0      3.098      5.300
REMARK  Name = 
REMARK  4 active torsions:
REMARK  status: ('A' for Active; 'I' for Inactive)
REMARK    1  A    between atoms: C_2  and  C_3
REMARK    2  A    between atoms: C_3  and  O_4
REMARK    3  A    between atoms: O_4  and  C_5
REMARK    4  A    between atoms: C_25  and  C_26
REMARK                            x       y       z     vdW  Elec       q    Type
REMARK                         _______ _______ _______ _____ _____    ______ ____
ROOT
ATOM      1  C   UNL     1       3.411   5.916  -7.407  0.00  0.00    +0.189 C 
ATOM      2  C   UNL     1       3.663   5.733  -8.855  0.00  0.00    +0.045 C 
ATOM      3  C   UNL     1       5.179   6.311  -8.951  0.00  0.00    +0.004 C 
ATOM      4  C   UNL     1       5.571   5.327 -10.272  0.00  0.00    +0.001 C 
ATOM      5  C   UNL     1       5.041   6.546 -11.301  0.00  0.00    +0.004 C 
ATOM      6  C   UNL     1       3.506   6.066 -11.206  0.00  0.00    +0.000 C 
ATOM      7  C   UNL     1       5.363   5.603 -12.671  0.00  0.00    +0.019 C 
ATOM      8  C   UNL     1       6.882   6.110 -12.714  0.00  0.00    -0.043 C 
ATOM      9  C   UNL     1       7.506   5.973 -13.858  0.00  0.00    +0.010 C 
ATOM     10  C   UNL     1       6.850   6.466 -15.071  0.00  0.00    +0.101 C 
ATOM     11  C   UNL     1       5.357   6.370 -15.062  0.00  0.00    +0.050 C 
ATOM     12  N   UNL     1       7.424   6.526 -16.204  0.00  0.00    -0.034 NA
ATOM     13  O   UNL     1       6.757   6.365 -17.399  0.00  0.00    -0.143 OA
ATOM     14  C   UNL     1       7.500   6.499 -11.455  0.00  0.00    +0.022 C 
ATOM     15  C   UNL     1       4.859   6.784 -13.683  0.00  0.00    +0.010 C 
ATOM     16  C   UNL     1       7.108   5.791 -10.243  0.00  0.00    +0.004 C 
ATOM     17  C   UNL     1       5.617   5.260  -7.785  0.00  0.00    +0.005 C 
ATOM     18  C   UNL     1       2.977   6.553  -9.852  0.00  0.00    +0.004 C 
ATOM     19  C   UNL     1       4.802   6.108  -6.794  0.00  0.00    +0.053 C 
ENDROOT
BRANCH   1  21
ATOM     20  C   UNL     1       1.646   7.793  -7.029  0.00  0.00    -0.011 C 
ATOM     21  C   UNL     1       2.550   7.044  -7.104  0.00  0.00    -0.040 C 
ENDBRANCH   1  21
BRANCH   2  22
ATOM     22  C   UNL     1       3.702   4.260  -9.109  0.00  0.00    +0.004 C 
ATOM     23  C   UNL     1       2.240   3.834  -9.194  0.00  0.00    +0.000 C 
ENDBRANCH   2  22
BRANCH   1  24
ATOM     24  O   UNL     1       2.957   4.709  -6.785  0.00  0.00    -0.443 OA
BRANCH  24  25
ATOM     25  C   UNL     1       2.250   4.690  -5.591  0.00  0.00    +0.318 C 
ATOM     26  O   UNL     1       2.946   4.556  -4.538  0.00  0.00    -0.250 OA
ATOM     27  C   UNL     1       0.766   4.484  -5.529  0.00  0.00    +0.121 C 
ENDBRANCH  24  25
ENDBRANCH   1  24
TORSDOF 4
ENDMDL
