MODEL 1
REMARK VINA RESULT:      -6.0      0.000      0.000
REMARK  Name = 
REMARK  4 active torsions:
REMARK  status: ('A' for Active; 'I' for Inactive)
REMARK    1  A    between atoms: C_2  and  N_4
REMARK    2  A    between atoms: N_4  and  C_5
REMARK    3  A    between atoms: C_5  and  C_6
REMARK    4  A    between atoms: C_6  and  C_8
REMARK                            x       y       z     vdW  Elec       q    Type
REMARK                         _______ _______ _______ _____ _____    ______ ____
ROOT
ATOM      1  C   UNL     1       4.886   6.412 -10.389  0.00  0.00    +0.013 A 
ATOM      2  C   UNL     1       4.589   5.728 -11.510  0.00  0.00    +0.044 A 
ATOM      3  C   UNL     1       5.582   5.326 -12.366  0.00  0.00    +0.234 A 
ATOM      4  O   UNL     1       5.214   4.633 -13.513  0.00  0.00    -0.283 OA
ATOM      5  C   UNL     1       6.900   5.479 -11.968  0.00  0.00    +0.234 A 
ATOM      6  O   UNL     1       7.801   4.689 -12.681  0.00  0.00    -0.283 OA
ATOM      7  C   UNL     1       7.115   5.540 -10.597  0.00  0.00    +0.045 A 
ATOM      8  C   UNL     1       6.130   6.135  -9.820  0.00  0.00    +0.002 A 
ENDROOT
BRANCH   1   9
ATOM      9  C   UNL     1       3.798   6.300  -9.144  0.00  0.00    +0.192 C 
ATOM     10  O   UNL     1       3.911   4.753  -9.018  0.00  0.00    -0.217 OA
BRANCH   9  11
ATOM     11  C   UNL     1       2.532   6.153 -10.251  0.00  0.00    +0.126 C 
BRANCH  11  12
ATOM     12  N   UNL     1       1.399   6.698  -9.552  0.00  0.00    -0.216 NA
BRANCH  12  14
ATOM     13  C   UNL     1      -0.072   5.504  -8.247  0.00  0.00    +0.019 C 
ATOM     14  C   UNL     1       0.359   5.739  -9.311  0.00  0.00    +0.073 C 
ATOM     15  C   UNL     1       0.247   4.777 -10.453  0.00  0.00    +0.019 C 
ENDBRANCH  12  14
ENDBRANCH  11  12
ENDBRANCH   9  11
ENDBRANCH   1   9
TORSDOF 4
ENDMDL
MODEL 2
REMARK VINA RESULT:      -6.0      5.269      8.915
REMARK  Name = 
REMARK  4 active torsions:
REMARK  status: ('A' for Active; 'I' for Inactive)
REMARK    1  A    between atoms: C_2  and  N_4
REMARK    2  A    between atoms: N_4  and  C_5
REMARK    3  A    between atoms: C_5  and  C_6
REMARK    4  A    between atoms: C_6  and  C_8
REMARK                            x       y       z     vdW  Elec       q    Type
REMARK                         _______ _______ _______ _____ _____    ______ ____
ROOT
ATOM      1  C   UNL     1      -0.347   6.210  -5.075  0.00  0.00    +0.013 A 
ATOM      2  C   UNL     1       0.157   5.587  -3.994  0.00  0.00    +0.044 A 
ATOM      3  C   UNL     1      -0.631   5.343  -2.898  0.00  0.00    +0.234 A 
ATOM      4  O   UNL     1      -0.052   4.706  -1.806  0.00  0.00    -0.283 OA
ATOM      5  C   UNL     1      -1.990   5.587  -2.994  0.00  0.00    +0.234 A 
ATOM      6  O   UNL     1      -2.751   4.940  -2.021  0.00  0.00    -0.283 OA
ATOM      7  C   UNL     1      -2.520   5.566  -4.278  0.00  0.00    +0.045 A 
ATOM      8  C   UNL     1      -1.708   6.008  -5.313  0.00  0.00    +0.002 A 
ENDROOT
BRANCH   1   9
ATOM      9  C   UNL     1       0.402   5.905  -6.521  0.00  0.00    +0.192 C 
ATOM     10  O   UNL     1      -0.808   5.140  -7.131  0.00  0.00    -0.217 OA
BRANCH   9  11
ATOM     11  C   UNL     1       1.041   4.471  -5.899  0.00  0.00    +0.126 C 
BRANCH  11  12
ATOM     12  N   UNL     1       2.285   4.314  -6.605  0.00  0.00    -0.216 NA
BRANCH  12  14
ATOM     13  C   UNL     1       4.081   5.743  -6.753  0.00  0.00    +0.019 C 
ATOM     14  C   UNL     1       3.346   5.125  -6.081  0.00  0.00    +0.073 C 
ATOM     15  C   UNL     1       3.689   4.717  -4.682  0.00  0.00    +0.019 C 
ENDBRANCH  12  14
ENDBRANCH  11  12
ENDBRANCH   9  11
ENDBRANCH   1   9
TORSDOF 4
ENDMDL
MODEL 3
REMARK VINA RESULT:      -5.9      6.066      8.998
REMARK  Name = 
REMARK  4 active torsions:
REMARK  status: ('A' for Active; 'I' for Inactive)
REMARK    1  A    between atoms: C_2  and  N_4
REMARK    2  A    between atoms: N_4  and  C_5
REMARK    3  A    between atoms: C_5  and  C_6
REMARK    4  A    between atoms: C_6  and  C_8
REMARK                            x       y       z     vdW  Elec       q    Type
REMARK                         _______ _______ _______ _____ _____    ______ ____
ROOT
ATOM      1  C   UNL     1      -0.088   6.796  -4.866  0.00  0.00    +0.013 A 
ATOM      2  C   UNL     1       0.310   6.026  -3.836  0.00  0.00    +0.044 A 
ATOM      3  C   UNL     1      -0.610   5.481  -2.976  0.00  0.00    +0.234 A 
ATOM      4  O   UNL     1      -0.138   4.703  -1.924  0.00  0.00    -0.283 OA
ATOM      5  C   UNL     1      -1.954   5.590  -3.290  0.00  0.00    +0.234 A 
ATOM      6  O   UNL     1      -2.767   4.680  -2.616  0.00  0.00    -0.283 OA
ATOM      7  C   UNL     1      -2.249   5.771  -4.636  0.00  0.00    +0.045 A 
ATOM      8  C   UNL     1      -1.344   6.499  -5.397  0.00  0.00    +0.002 A 
ENDROOT
BRANCH   1   9
ATOM      9  C   UNL     1       0.933   6.873  -6.169  0.00  0.00    +0.192 C 
ATOM     10  O   UNL     1       0.587   5.446  -6.684  0.00  0.00    -0.217 OA
BRANCH   9  11
ATOM     11  C   UNL     1       2.196   6.266  -5.227  0.00  0.00    +0.126 C 
BRANCH  11  12
ATOM     12  N   UNL     1       3.261   7.212  -5.430  0.00  0.00    -0.216 NA
BRANCH  12  14
ATOM     13  C   UNL     1       5.117   7.887  -4.250  0.00  0.00    +0.019 C 
ATOM     14  C   UNL     1       4.364   7.034  -4.529  0.00  0.00    +0.073 C 
ATOM     15  C   UNL     1       4.706   5.583  -4.385  0.00  0.00    +0.019 C 
ENDBRANCH  12  14
ENDBRANCH  11  12
ENDBRANCH   9  11
ENDBRANCH   1   9
TORSDOF 4
ENDMDL
MODEL 4
REMARK VINA RESULT:      -5.7      2.866      5.777
REMARK  Name = 
REMARK  4 active torsions:
REMARK  status: ('A' for Active; 'I' for Inactive)
REMARK    1  A    between atoms: C_2  and  N_4
REMARK    2  A    between atoms: N_4  and  C_5
REMARK    3  A    between atoms: C_5  and  C_6
REMARK    4  A    between atoms: C_6  and  C_8
REMARK                            x       y       z     vdW  Elec       q    Type
REMARK                         _______ _______ _______ _____ _____    ______ ____
ROOT
ATOM      1  C   UNL     1       3.468   6.716  -8.819  0.00  0.00    +0.013 A 
ATOM      2  C   UNL     1       4.028   5.889  -7.916  0.00  0.00    +0.044 A 
ATOM      3  C   UNL     1       3.844   6.095  -6.572  0.00  0.00    +0.234 A 
ATOM      4  O   UNL     1       4.456   5.214  -5.687  0.00  0.00    -0.283 OA
ATOM      5  C   UNL     1       2.932   7.056  -6.169  0.00  0.00    +0.234 A 
ATOM      6  O   UNL     1       2.508   6.915  -4.849  0.00  0.00    -0.283 OA
ATOM      7  C   UNL     1       1.936   7.368  -7.086  0.00  0.00    +0.045 A 
ATOM      8  C   UNL     1       2.266   7.311  -8.434  0.00  0.00    +0.002 A 
ENDROOT
BRANCH   1   9
ATOM      9  C   UNL     1       3.185   6.085 -10.324  0.00  0.00    +0.192 C 
ATOM     10  O   UNL     1       2.333   4.892  -9.802  0.00  0.00    -0.217 OA
BRANCH   9  11
ATOM     11  C   UNL     1       4.600   5.170 -10.217  0.00  0.00    +0.126 C 
BRANCH  11  12
ATOM     12  N   UNL     1       5.424   5.684 -11.278  0.00  0.00    -0.216 NA
BRANCH  12  14
ATOM     13  C   UNL     1       7.232   6.114  -9.923  0.00  0.00    +0.019 C 
ATOM     14  C   UNL     1       6.546   6.447 -10.813  0.00  0.00    +0.073 C 
ATOM     15  C   UNL     1       6.441   7.874 -11.254  0.00  0.00    +0.019 C 
ENDBRANCH  12  14
ENDBRANCH  11  12
ENDBRANCH   9  11
ENDBRANCH   1   9
TORSDOF 4
ENDMDL
MODEL 5
REMARK VINA RESULT:      -5.6      5.071      8.208
REMARK  Name = 
REMARK  4 active torsions:
REMARK  status: ('A' for Active; 'I' for Inactive)
REMARK    1  A    between atoms: C_2  and  N_4
REMARK    2  A    between atoms: N_4  and  C_5
REMARK    3  A    between atoms: C_5  and  C_6
REMARK    4  A    between atoms: C_6  and  C_8
REMARK                            x       y       z     vdW  Elec       q    Type
REMARK                         _______ _______ _______ _____ _____    ______ ____
ROOT
ATOM      1  C   UNL     1      -0.188   6.039  -5.705  0.00  0.00    +0.013 A 
ATOM      2  C   UNL     1      -0.080   5.642  -4.424  0.00  0.00    +0.044 A 
ATOM      3  C   UNL     1      -1.197   5.501  -3.640  0.00  0.00    +0.234 A 
ATOM      4  O   UNL     1      -1.022   5.099  -2.320  0.00  0.00    -0.283 OA
ATOM      5  C   UNL     1      -2.441   5.601  -4.238  0.00  0.00    +0.234 A 
ATOM      6  O   UNL     1      -3.476   5.047  -3.487  0.00  0.00    -0.283 OA
ATOM      7  C   UNL     1      -2.482   5.331  -5.601  0.00  0.00    +0.045 A 
ATOM      8  C   UNL     1      -1.369   5.678  -6.355  0.00  0.00    +0.002 A 
ENDROOT
BRANCH   1   9
ATOM      9  C   UNL     1       1.034   5.582  -6.726  0.00  0.00    +0.192 C 
ATOM     10  O   UNL     1       1.486   7.038  -7.040  0.00  0.00    -0.217 OA
BRANCH   9  11
ATOM     11  C   UNL     1      -0.038   5.595  -8.031  0.00  0.00    +0.126 C 
BRANCH  11  12
ATOM     12  N   UNL     1       0.750   5.100  -9.128  0.00  0.00    -0.216 NA
BRANCH  12  14
ATOM     13  C   UNL     1       0.124   4.585 -11.281  0.00  0.00    +0.019 C 
ATOM     14  C   UNL     1       0.175   5.372 -10.414  0.00  0.00    +0.073 C 
ATOM     15  C   UNL     1       0.101   6.846 -10.664  0.00  0.00    +0.019 C 
ENDBRANCH  12  14
ENDBRANCH  11  12
ENDBRANCH   9  11
ENDBRANCH   1   9
TORSDOF 4
ENDMDL
MODEL 6
REMARK VINA RESULT:      -5.6      1.930      2.388
REMARK  Name = 
REMARK  4 active torsions:
REMARK  status: ('A' for Active; 'I' for Inactive)
REMARK    1  A    between atoms: C_2  and  N_4
REMARK    2  A    between atoms: N_4  and  C_5
REMARK    3  A    between atoms: C_5  and  C_6
REMARK    4  A    between atoms: C_6  and  C_8
REMARK                            x       y       z     vdW  Elec       q    Type
REMARK                         _______ _______ _______ _____ _____    ______ ____
ROOT
ATOM      1  C   UNL     1       5.046   5.711 -10.414  0.00  0.00    +0.013 A 
ATOM      2  C   UNL     1       5.353   5.254 -11.643  0.00  0.00    +0.044 A 
ATOM      3  C   UNL     1       6.613   5.425 -12.156  0.00  0.00    +0.234 A 
ATOM      4  O   UNL     1       6.868   4.941 -13.435  0.00  0.00    -0.283 OA
ATOM      5  C   UNL     1       7.606   5.913 -11.324  0.00  0.00    +0.234 A 
ATOM      6  O   UNL     1       8.899   5.665 -11.781  0.00  0.00    -0.283 OA
ATOM      7  C   UNL     1       7.406   5.716  -9.963  0.00  0.00    +0.045 A 
ATOM      8  C   UNL     1       6.099   5.743  -9.498  0.00  0.00    +0.002 A 
ENDROOT
BRANCH   1   9
ATOM      9  C   UNL     1       3.803   4.948  -9.630  0.00  0.00    +0.192 C 
ATOM     10  O   UNL     1       2.710   5.431 -10.629  0.00  0.00    -0.217 OA
BRANCH   9  11
ATOM     11  C   UNL     1       3.567   6.309  -8.659  0.00  0.00    +0.126 C 
BRANCH  11  12
ATOM     12  N   UNL     1       2.517   5.910  -7.759  0.00  0.00    -0.216 NA
BRANCH  12  14
ATOM     13  C   UNL     1       2.257   4.137  -6.316  0.00  0.00    +0.019 C 
ATOM     14  C   UNL     1       2.946   4.976  -6.758  0.00  0.00    +0.073 C 
ATOM     15  C   UNL     1       4.151   5.488  -6.032  0.00  0.00    +0.019 C 
ENDBRANCH  12  14
ENDBRANCH  11  12
ENDBRANCH   9  11
ENDBRANCH   1   9
TORSDOF 4
ENDMDL
MODEL 7
REMARK VINA RESULT:      -5.5      8.516     10.557
REMARK  Name = 
REMARK  4 active torsions:
REMARK  status: ('A' for Active; 'I' for Inactive)
REMARK    1  A    between atoms: C_2  and  N_4
REMARK    2  A    between atoms: N_4  and  C_5
REMARK    3  A    between atoms: C_5  and  C_6
REMARK    4  A    between atoms: C_6  and  C_8
REMARK                            x       y       z     vdW  Elec       q    Type
REMARK                         _______ _______ _______ _____ _____    ______ ____
ROOT
ATOM      1  C   UNL     1      -1.238   6.665  -1.541  0.00  0.00    +0.013 A 
ATOM      2  C   UNL     1      -0.339   5.672  -1.416  0.00  0.00    +0.044 A 
ATOM      3  C   UNL     1       0.830   5.871  -0.726  0.00  0.00    +0.234 A 
ATOM      4  O   UNL     1       1.726   4.811  -0.640  0.00  0.00    -0.283 OA
ATOM      5  C   UNL     1       0.985   7.049  -0.014  0.00  0.00    +0.234 A 
ATOM      6  O   UNL     1       1.977   6.992   0.963  0.00  0.00    -0.283 OA
ATOM      7  C   UNL     1      -0.190   7.686   0.365  0.00  0.00    +0.045 A 
ATOM      8  C   UNL     1      -1.279   7.584  -0.491  0.00  0.00    +0.002 A 
ENDROOT
BRANCH   1   9
ATOM      9  C   UNL     1      -2.812   6.211  -1.789  0.00  0.00    +0.192 C 
ATOM     10  O   UNL     1      -2.449   4.813  -2.368  0.00  0.00    -0.217 OA
BRANCH   9  11
ATOM     11  C   UNL     1      -2.778   6.899  -3.331  0.00  0.00    +0.126 C 
BRANCH  11  12
ATOM     12  N   UNL     1      -2.595   5.771  -4.206  0.00  0.00    -0.216 NA
BRANCH  12  14
ATOM     13  C   UNL     1      -2.056   5.498  -6.426  0.00  0.00    +0.019 C 
ATOM     14  C   UNL     1      -1.922   6.101  -5.430  0.00  0.00    +0.073 C 
ATOM     15  C   UNL     1      -0.722   6.956  -5.165  0.00  0.00    +0.019 C 
ENDBRANCH  12  14
ENDBRANCH  11  12
ENDBRANCH   9  11
ENDBRANCH   1   9
TORSDOF 4
ENDMDL
MODEL 8
REMARK VINA RESULT:      -5.5      3.207      5.249
REMARK  Name = 
REMARK  4 active torsions:
REMARK  status: ('A' for Active; 'I' for Inactive)
REMARK    1  A    between atoms: C_2  and  N_4
REMARK    2  A    between atoms: N_4  and  C_5
REMARK    3  A    between atoms: C_5  and  C_6
REMARK    4  A    between atoms: C_6  and  C_8
REMARK                            x       y       z     vdW  Elec       q    Type
REMARK                         _______ _______ _______ _____ _____    ______ ____
ROOT
ATOM      1  C   UNL     1       1.600   6.030  -8.480  0.00  0.00    +0.013 A 
ATOM      2  C   UNL     1       2.528   6.390  -9.386  0.00  0.00    +0.044 A 
ATOM      3  C   UNL     1       2.354   6.103 -10.716  0.00  0.00    +0.234 A 
ATOM      4  O   UNL     1       3.352   6.490 -11.603  0.00  0.00    -0.283 OA
ATOM      5  C   UNL     1       1.132   5.599 -11.129  0.00  0.00    +0.234 A 
ATOM      6  O   UNL     1       0.900   5.729 -12.497  0.00  0.00    -0.283 OA
ATOM      7  C   UNL     1       0.049   5.891 -10.309  0.00  0.00    +0.045 A 
ATOM      8  C   UNL     1       0.285   5.982  -8.944  0.00  0.00    +0.002 A 
ENDROOT
BRANCH   1   9
ATOM      9  C   UNL     1       1.543   6.922  -7.086  0.00  0.00    +0.192 C 
ATOM     10  O   UNL     1       2.088   8.222  -7.746  0.00  0.00    -0.217 OA
BRANCH   9  11
ATOM     11  C   UNL     1       3.107   6.424  -6.690  0.00  0.00    +0.126 C 
BRANCH  11  12
ATOM     12  N   UNL     1       3.566   7.430  -5.770  0.00  0.00    -0.216 NA
BRANCH  12  14
ATOM     13  C   UNL     1       5.211   7.589  -4.170  0.00  0.00    +0.019 C 
ATOM     14  C   UNL     1       4.451   6.922  -4.761  0.00  0.00    +0.073 C 
ATOM     15  C   UNL     1       4.622   5.440  -4.899  0.00  0.00    +0.019 C 
ENDBRANCH  12  14
ENDBRANCH  11  12
ENDBRANCH   9  11
ENDBRANCH   1   9
TORSDOF 4
ENDMDL
MODEL 9
REMARK VINA RESULT:      -5.4      1.840      2.524
REMARK  Name = 
REMARK  4 active torsions:
REMARK  status: ('A' for Active; 'I' for Inactive)
REMARK    1  A    between atoms: C_2  and  N_4
REMARK    2  A    between atoms: N_4  and  C_5
REMARK    3  A    between atoms: C_5  and  C_6
REMARK    4  A    between atoms: C_6  and  C_8
REMARK                            x       y       z     vdW  Elec       q    Type
REMARK                         _______ _______ _______ _____ _____    ______ ____
ROOT
ATOM      1  C   UNL     1       3.751   5.489  -8.607  0.00  0.00    +0.013 A 
ATOM      2  C   UNL     1       3.671   5.226  -9.925  0.00  0.00    +0.044 A 
ATOM      3  C   UNL     1       4.741   5.462 -10.750  0.00  0.00    +0.234 A 
ATOM      4  O   UNL     1       4.595   5.181 -12.104  0.00  0.00    -0.283 OA
ATOM      5  C   UNL     1       5.954   5.806 -10.178  0.00  0.00    +0.234 A 
ATOM      6  O   UNL     1       7.049   5.621 -11.020  0.00  0.00    -0.283 OA
ATOM      7  C   UNL     1       6.138   5.402  -8.861  0.00  0.00    +0.045 A 
ATOM      8  C   UNL     1       5.020   5.368  -8.039  0.00  0.00    +0.002 A 
ENDROOT
BRANCH   1   9
ATOM      9  C   UNL     1       2.742   4.625  -7.618  0.00  0.00    +0.192 C 
ATOM     10  O   UNL     1       2.594   3.429  -8.603  0.00  0.00    -0.217 OA
BRANCH   9  11
ATOM     11  C   UNL     1       1.401   5.396  -8.295  0.00  0.00    +0.126 C 
BRANCH  11  12
ATOM     12  N   UNL     1       0.836   6.132  -7.194  0.00  0.00    -0.216 NA
BRANCH  12  14
ATOM     13  C   UNL     1      -1.268   5.254  -6.888  0.00  0.00    +0.019 C 
ATOM     14  C   UNL     1      -0.179   5.408  -6.484  0.00  0.00    +0.073 C 
ATOM     15  C   UNL     1       0.159   5.305  -5.029  0.00  0.00    +0.019 C 
ENDBRANCH  12  14
ENDBRANCH  11  12
ENDBRANCH   9  11
ENDBRANCH   1   9
TORSDOF 4
ENDMDL
