MODEL 1
REMARK VINA RESULT:      -7.8      0.000      0.000
REMARK  Name = 
REMARK  8 active torsions:
REMARK  status: ('A' for Active; 'I' for Inactive)
REMARK    1  A    between atoms: C_2  and  C_3
REMARK    2  A    between atoms: C_3  and  O_4
REMARK    3  A    between atoms: O_4  and  C_5
REMARK    4  A    between atoms: C_5  and  C_6
REMARK    5  A    between atoms: C_6  and  N_7
REMARK    6  A    between atoms: N_10  and  C_11
REMARK    7  A    between atoms: C_11  and  C_12
REMARK    8  A    between atoms: C_11  and  C_18
REMARK                            x       y       z     vdW  Elec       q    Type
REMARK                         _______ _______ _______ _____ _____    ______ ____
ROOT
ATOM      1  C   UNL     1       3.777   5.103  -9.898  0.00  0.00    +0.103 C 
ENDROOT
BRANCH   1   2
ATOM      2  C   UNL     1       2.836   5.746 -11.049  0.00  0.00    -0.004 A 
ATOM      3  C   UNL     1       1.545   5.297 -10.760  0.00  0.00    -0.002 A 
ATOM      4  C   UNL     1       0.651   4.963 -11.776  0.00  0.00    +0.011 A 
ATOM      5  C   UNL     1       1.043   5.112 -13.102  0.00  0.00    +0.058 A 
ATOM      6 CL   UNL     1       0.380   4.083 -14.371  0.00  0.00    -0.082 Cl
ATOM      7  C   UNL     1       2.195   5.861 -13.301  0.00  0.00    +0.011 A 
ATOM      8  C   UNL     1       3.170   5.795 -12.315  0.00  0.00    -0.002 A 
ENDBRANCH   1   2
BRANCH   1   9
ATOM      9  C   UNL     1       4.912   6.250  -9.942  0.00  0.00    -0.004 A 
ATOM     10  C   UNL     1       4.996   7.231 -10.770  0.00  0.00    -0.003 A 
ATOM     11  C   UNL     1       6.171   7.799 -11.191  0.00  0.00    -0.000 A 
ATOM     12  C   UNL     1       7.347   7.210 -10.795  0.00  0.00    -0.000 A 
ATOM     13  C   UNL     1       7.304   6.183  -9.872  0.00  0.00    -0.000 A 
ATOM     14  C   UNL     1       6.082   5.671  -9.455  0.00  0.00    -0.003 A 
ENDBRANCH   1   9
BRANCH   1  18
ATOM     15  N   UNL     1       3.149   6.576  -6.186  0.00  0.00    -0.268 NA
ATOM     16  C   UNL     1       3.742   5.352  -6.521  0.00  0.00    +0.090 C 
ATOM     17  C   UNL     1       2.954   4.695  -7.652  0.00  0.00    +0.090 C 
ATOM     18  N   UNL     1       2.958   5.649  -8.688  0.00  0.00    -0.264 NA
ATOM     19  C   UNL     1       2.610   6.883  -8.552  0.00  0.00    +0.090 C 
ATOM     20  C   UNL     1       2.703   7.451  -7.181  0.00  0.00    +0.090 C 
BRANCH  15  21
ATOM     21  C   UNL     1       3.274   7.048  -4.868  0.00  0.00    +0.105 C 
BRANCH  21  22
ATOM     22  C   UNL     1       2.419   6.314  -3.866  0.00  0.00    +0.160 C 
BRANCH  22  23
ATOM     23  O   UNL     1       1.095   6.596  -4.241  0.00  0.00    -0.350 OA
BRANCH  23  24
ATOM     24  C   UNL     1       0.412   5.370  -4.268  0.00  0.00    +0.178 C 
BRANCH  24  26
ATOM     25  O   UNL     1      -0.135   5.274  -5.924  0.00  0.00    -0.218 OA
ATOM     26  C   UNL     1      -0.197   5.323  -5.669  0.00  0.00    +0.214 C 
ENDBRANCH  24  26
ENDBRANCH  23  24
ENDBRANCH  22  23
ENDBRANCH  21  22
ENDBRANCH  15  21
ENDBRANCH   1  18
TORSDOF 8
ENDMDL
MODEL 2
REMARK VINA RESULT:      -7.7      3.617      7.685
REMARK  Name = 
REMARK  8 active torsions:
REMARK  status: ('A' for Active; 'I' for Inactive)
REMARK    1  A    between atoms: C_2  and  C_3
REMARK    2  A    between atoms: C_3  and  O_4
REMARK    3  A    between atoms: O_4  and  C_5
REMARK    4  A    between atoms: C_5  and  C_6
REMARK    5  A    between atoms: C_6  and  N_7
REMARK    6  A    between atoms: N_10  and  C_11
REMARK    7  A    between atoms: C_11  and  C_12
REMARK    8  A    between atoms: C_11  and  C_18
REMARK                            x       y       z     vdW  Elec       q    Type
REMARK                         _______ _______ _______ _____ _____    ______ ____
ROOT
ATOM      1  C   UNL     1       1.183   4.825  -5.821  0.00  0.00    +0.103 C 
ENDROOT
BRANCH   1   2
ATOM      2  C   UNL     1       1.993   5.577  -4.637  0.00  0.00    -0.004 A 
ATOM      3  C   UNL     1       3.316   5.148  -4.771  0.00  0.00    -0.002 A 
ATOM      4  C   UNL     1       4.117   4.914  -3.653  0.00  0.00    +0.011 A 
ATOM      5  C   UNL     1       3.596   5.144  -2.385  0.00  0.00    +0.058 A 
ATOM      6 CL   UNL     1       4.158   4.229  -0.987  0.00  0.00    -0.082 Cl
ATOM      7  C   UNL     1       2.412   5.870  -2.349  0.00  0.00    +0.011 A 
ATOM      8  C   UNL     1       1.538   5.705  -3.415  0.00  0.00    -0.002 A 
ENDBRANCH   1   2
BRANCH   1   9
ATOM      9  C   UNL     1       0.021   5.936  -5.967  0.00  0.00    -0.004 A 
ATOM     10  C   UNL     1      -0.184   6.953  -5.206  0.00  0.00    -0.003 A 
ATOM     11  C   UNL     1      -1.414   7.503  -4.952  0.00  0.00    -0.000 A 
ATOM     12  C   UNL     1      -2.521   6.858  -5.447  0.00  0.00    -0.000 A 
ATOM     13  C   UNL     1      -2.346   5.788  -6.304  0.00  0.00    -0.000 A 
ATOM     14  C   UNL     1      -1.070   5.296  -6.552  0.00  0.00    -0.003 A 
ENDBRANCH   1   9
BRANCH   1  18
ATOM     15  N   UNL     1       2.218   5.702  -9.630  0.00  0.00    -0.268 NA
ATOM     16  C   UNL     1       1.813   4.457  -9.128  0.00  0.00    +0.090 C 
ATOM     17  C   UNL     1       2.481   4.210  -7.778  0.00  0.00    +0.090 C 
ATOM     18  N   UNL     1       2.099   5.311  -6.986  0.00  0.00    -0.264 NA
ATOM     19  C   UNL     1       2.228   6.546  -7.334  0.00  0.00    +0.090 C 
ATOM     20  C   UNL     1       2.292   6.819  -8.794  0.00  0.00    +0.090 C 
BRANCH  15  21
ATOM     21  C   UNL     1       2.259   5.886 -11.023  0.00  0.00    +0.105 C 
BRANCH  21  22
ATOM     22  C   UNL     1       3.628   6.218 -11.561  0.00  0.00    +0.160 C 
BRANCH  22  23
ATOM     23  O   UNL     1       4.482   5.250 -11.007  0.00  0.00    -0.350 OA
BRANCH  23  24
ATOM     24  C   UNL     1       5.623   5.930 -10.553  0.00  0.00    +0.178 C 
BRANCH  24  26
ATOM     25  O   UNL     1       5.643   5.429  -8.880  0.00  0.00    -0.218 OA
ATOM     26  C   UNL     1       5.778   5.459  -9.107  0.00  0.00    +0.214 C 
ENDBRANCH  24  26
ENDBRANCH  23  24
ENDBRANCH  22  23
ENDBRANCH  21  22
ENDBRANCH  15  21
ENDBRANCH   1  18
TORSDOF 8
ENDMDL
MODEL 3
REMARK VINA RESULT:      -7.6      1.638      2.140
REMARK  Name = 
REMARK  8 active torsions:
REMARK  status: ('A' for Active; 'I' for Inactive)
REMARK    1  A    between atoms: C_2  and  C_3
REMARK    2  A    between atoms: C_3  and  O_4
REMARK    3  A    between atoms: O_4  and  C_5
REMARK    4  A    between atoms: C_5  and  C_6
REMARK    5  A    between atoms: C_6  and  N_7
REMARK    6  A    between atoms: N_10  and  C_11
REMARK    7  A    between atoms: C_11  and  C_12
REMARK    8  A    between atoms: C_11  and  C_18
REMARK                            x       y       z     vdW  Elec       q    Type
REMARK                         _______ _______ _______ _____ _____    ______ ____
ROOT
ATOM      1  C   UNL     1       3.720   5.096  -9.809  0.00  0.00    +0.103 C 
ENDROOT
BRANCH   1   2
ATOM      2  C   UNL     1       2.763   5.750 -10.941  0.00  0.00    -0.004 A 
ATOM      3  C   UNL     1       1.485   5.256 -10.669  0.00  0.00    -0.002 A 
ATOM      4  C   UNL     1       0.601   4.931 -11.697  0.00  0.00    +0.011 A 
ATOM      5  C   UNL     1       0.990   5.133 -13.016  0.00  0.00    +0.058 A 
ATOM      6 CL   UNL     1       0.358   4.129 -14.320  0.00  0.00    -0.082 Cl
ATOM      7  C   UNL     1       2.122   5.921 -13.189  0.00  0.00    +0.011 A 
ATOM      8  C   UNL     1       3.097   5.850 -12.204  0.00  0.00    -0.002 A 
ENDBRANCH   1   2
BRANCH   1   9
ATOM      9  C   UNL     1       4.862   6.236  -9.870  0.00  0.00    -0.004 A 
ATOM     10  C   UNL     1       4.956   7.200 -10.716  0.00  0.00    -0.003 A 
ATOM     11  C   UNL     1       6.136   7.752 -11.143  0.00  0.00    -0.000 A 
ATOM     12  C   UNL     1       7.307   7.164 -10.731  0.00  0.00    -0.000 A 
ATOM     13  C   UNL     1       7.254   6.155  -9.789  0.00  0.00    -0.000 A 
ATOM     14  C   UNL     1       6.027   5.659  -9.367  0.00  0.00    -0.003 A 
ENDBRANCH   1   9
BRANCH   1  18
ATOM     15  N   UNL     1       3.165   6.517  -6.064  0.00  0.00    -0.268 NA
ATOM     16  C   UNL     1       3.717   5.281  -6.428  0.00  0.00    +0.090 C 
ATOM     17  C   UNL     1       2.901   4.671  -7.565  0.00  0.00    +0.090 C 
ATOM     18  N   UNL     1       2.928   5.644  -8.582  0.00  0.00    -0.264 NA
ATOM     19  C   UNL     1       2.619   6.886  -8.420  0.00  0.00    +0.090 C 
ATOM     20  C   UNL     1       2.740   7.423  -7.040  0.00  0.00    +0.090 C 
BRANCH  15  21
ATOM     21  C   UNL     1       3.315   6.959  -4.739  0.00  0.00    +0.105 C 
BRANCH  21  22
ATOM     22  C   UNL     1       4.574   6.474  -4.065  0.00  0.00    +0.160 C 
BRANCH  22  23
ATOM     23  O   UNL     1       4.230   6.328  -2.711  0.00  0.00    -0.350 OA
BRANCH  23  24
ATOM     24  C   UNL     1       3.910   4.974  -2.518  0.00  0.00    +0.178 C 
BRANCH  24  26
ATOM     25  O   UNL     1       4.299   4.723  -0.835  0.00  0.00    -0.218 OA
ATOM     26  C   UNL     1       4.110   4.762  -1.018  0.00  0.00    +0.214 C 
ENDBRANCH  24  26
ENDBRANCH  23  24
ENDBRANCH  22  23
ENDBRANCH  21  22
ENDBRANCH  15  21
ENDBRANCH   1  18
TORSDOF 8
ENDMDL
MODEL 4
REMARK VINA RESULT:      -7.5      2.215      4.281
REMARK  Name = 
REMARK  8 active torsions:
REMARK  status: ('A' for Active; 'I' for Inactive)
REMARK    1  A    between atoms: C_2  and  C_3
REMARK    2  A    between atoms: C_3  and  O_4
REMARK    3  A    between atoms: O_4  and  C_5
REMARK    4  A    between atoms: C_5  and  C_6
REMARK    5  A    between atoms: C_6  and  N_7
REMARK    6  A    between atoms: N_10  and  C_11
REMARK    7  A    between atoms: C_11  and  C_12
REMARK    8  A    between atoms: C_11  and  C_18
REMARK                            x       y       z     vdW  Elec       q    Type
REMARK                         _______ _______ _______ _____ _____    ______ ____
ROOT
ATOM      1  C   UNL     1       2.866   6.678  -8.844  0.00  0.00    +0.103 C 
ENDROOT
BRANCH   1   2
ATOM      2  C   UNL     1       3.918   5.730  -9.630  0.00  0.00    -0.004 A 
ATOM      3  C   UNL     1       5.084   5.761  -8.860  0.00  0.00    -0.002 A 
ATOM      4  C   UNL     1       6.344   5.759  -9.456  0.00  0.00    +0.011 A 
ATOM      5  C   UNL     1       6.441   5.691 -10.841  0.00  0.00    +0.058 A 
ATOM      6 CL   UNL     1       7.802   6.411 -11.699  0.00  0.00    -0.082 Cl
ATOM      7  C   UNL     1       5.272   5.335 -11.502  0.00  0.00    +0.011 A 
ATOM      8  C   UNL     1       4.074   5.740 -10.931  0.00  0.00    -0.002 A 
ENDBRANCH   1   2
BRANCH   1   9
ATOM      9  C   UNL     1       1.535   5.938  -9.377  0.00  0.00    -0.004 A 
ATOM     10  C   UNL     1       1.434   4.727  -9.803  0.00  0.00    -0.003 A 
ATOM     11  C   UNL     1       0.547   4.307 -10.760  0.00  0.00    -0.000 A 
ATOM     12  C   UNL     1      -0.211   5.260 -11.396  0.00  0.00    -0.000 A 
ATOM     13  C   UNL     1      -0.167   6.564 -10.942  0.00  0.00    -0.000 A 
ATOM     14  C   UNL     1       0.730   6.924  -9.943  0.00  0.00    -0.003 A 
ENDBRANCH   1   9
BRANCH   1  18
ATOM     15  N   UNL     1       1.723   5.479  -5.156  0.00  0.00    -0.268 NA
ATOM     16  C   UNL     1       1.870   6.797  -5.610  0.00  0.00    +0.090 C 
ATOM     17  C   UNL     1       3.143   6.911  -6.445  0.00  0.00    +0.090 C 
ATOM     18  N   UNL     1       2.984   5.956  -7.467  0.00  0.00    -0.264 NA
ATOM     19  C   UNL     1       2.679   4.717  -7.275  0.00  0.00    +0.090 C 
ATOM     20  C   UNL     1       1.971   4.399  -6.008  0.00  0.00    +0.090 C 
BRANCH  15  21
ATOM     21  C   UNL     1       1.046   5.255  -3.946  0.00  0.00    +0.105 C 
BRANCH  21  22
ATOM     22  C   UNL     1      -0.230   6.044  -3.797  0.00  0.00    +0.160 C 
BRANCH  22  23
ATOM     23  O   UNL     1      -1.199   5.306  -4.498  0.00  0.00    -0.350 OA
BRANCH  23  24
ATOM     24  C   UNL     1      -1.727   6.159  -5.479  0.00  0.00    +0.178 C 
BRANCH  24  26
ATOM     25  O   UNL     1      -1.320   5.352  -6.973  0.00  0.00    -0.218 OA
ATOM     26  C   UNL     1      -1.503   5.397  -6.785  0.00  0.00    +0.214 C 
ENDBRANCH  24  26
ENDBRANCH  23  24
ENDBRANCH  22  23
ENDBRANCH  21  22
ENDBRANCH  15  21
ENDBRANCH   1  18
TORSDOF 8
ENDMDL
MODEL 5
REMARK VINA RESULT:      -7.5      4.195      7.859
REMARK  Name = 
REMARK  8 active torsions:
REMARK  status: ('A' for Active; 'I' for Inactive)
REMARK    1  A    between atoms: C_2  and  C_3
REMARK    2  A    between atoms: C_3  and  O_4
REMARK    3  A    between atoms: O_4  and  C_5
REMARK    4  A    between atoms: C_5  and  C_6
REMARK    5  A    between atoms: C_6  and  N_7
REMARK    6  A    between atoms: N_10  and  C_11
REMARK    7  A    between atoms: C_11  and  C_12
REMARK    8  A    between atoms: C_11  and  C_18
REMARK                            x       y       z     vdW  Elec       q    Type
REMARK                         _______ _______ _______ _____ _____    ______ ____
ROOT
ATOM      1  C   UNL     1       1.309   4.864  -5.835  0.00  0.00    +0.103 C 
ENDROOT
BRANCH   1   2
ATOM      2  C   UNL     1       2.134   5.636  -4.674  0.00  0.00    -0.004 A 
ATOM      3  C   UNL     1       3.449   5.178  -4.793  0.00  0.00    -0.002 A 
ATOM      4  C   UNL     1       4.244   4.963  -3.669  0.00  0.00    +0.011 A 
ATOM      5  C   UNL     1       3.728   5.241  -2.408  0.00  0.00    +0.058 A 
ATOM      6 CL   UNL     1       4.272   4.358  -0.982  0.00  0.00    -0.082 Cl
ATOM      7  C   UNL     1       2.558   5.991  -2.396  0.00  0.00    +0.011 A 
ATOM      8  C   UNL     1       1.681   5.810  -3.456  0.00  0.00    -0.002 A 
ENDBRANCH   1   2
BRANCH   1   9
ATOM      9  C   UNL     1       0.119   5.948  -5.950  0.00  0.00    -0.004 A 
ATOM     10  C   UNL     1      -0.118   6.932  -5.156  0.00  0.00    -0.003 A 
ATOM     11  C   UNL     1      -1.364   7.439  -4.891  0.00  0.00    -0.000 A 
ATOM     12  C   UNL     1      -2.450   6.782  -5.416  0.00  0.00    -0.000 A 
ATOM     13  C   UNL     1      -2.241   5.748  -6.308  0.00  0.00    -0.000 A 
ATOM     14  C   UNL     1      -0.951   5.300  -6.564  0.00  0.00    -0.003 A 
ENDBRANCH   1   9
BRANCH   1  18
ATOM     15  N   UNL     1       2.171   5.907  -9.646  0.00  0.00    -0.268 NA
ATOM     16  C   UNL     1       1.728   4.658  -9.189  0.00  0.00    +0.090 C 
ATOM     17  C   UNL     1       2.458   4.299  -7.897  0.00  0.00    +0.090 C 
ATOM     18  N   UNL     1       2.183   5.369  -7.025  0.00  0.00    -0.264 NA
ATOM     19  C   UNL     1       2.358   6.615  -7.311  0.00  0.00    +0.090 C 
ATOM     20  C   UNL     1       2.354   6.969  -8.755  0.00  0.00    +0.090 C 
BRANCH  15  21
ATOM     21  C   UNL     1       2.142   6.170 -11.026  0.00  0.00    +0.105 C 
BRANCH  21  22
ATOM     22  C   UNL     1       0.797   6.614 -11.542  0.00  0.00    +0.160 C 
BRANCH  22  23
ATOM     23  O   UNL     1       0.715   6.092 -12.843  0.00  0.00    -0.350 OA
BRANCH  23  24
ATOM     24  C   UNL     1       0.586   4.701 -12.715  0.00  0.00    +0.178 C 
BRANCH  24  26
ATOM     25  O   UNL     1       0.573   4.030 -14.327  0.00  0.00    -0.218 OA
ATOM     26  C   UNL     1       0.694   4.189 -14.150  0.00  0.00    +0.214 C 
ENDBRANCH  24  26
ENDBRANCH  23  24
ENDBRANCH  22  23
ENDBRANCH  21  22
ENDBRANCH  15  21
ENDBRANCH   1  18
TORSDOF 8
ENDMDL
MODEL 6
REMARK VINA RESULT:      -7.4      2.489      5.184
REMARK  Name = 
REMARK  8 active torsions:
REMARK  status: ('A' for Active; 'I' for Inactive)
REMARK    1  A    between atoms: C_2  and  C_3
REMARK    2  A    between atoms: C_3  and  O_4
REMARK    3  A    between atoms: O_4  and  C_5
REMARK    4  A    between atoms: C_5  and  C_6
REMARK    5  A    between atoms: C_6  and  N_7
REMARK    6  A    between atoms: N_10  and  C_11
REMARK    7  A    between atoms: C_11  and  C_12
REMARK    8  A    between atoms: C_11  and  C_18
REMARK                            x       y       z     vdW  Elec       q    Type
REMARK                         _______ _______ _______ _____ _____    ______ ____
ROOT
ATOM      1  C   UNL     1       1.465   6.963  -6.920  0.00  0.00    +0.103 C 
ENDROOT
BRANCH   1   2
ATOM      2  C   UNL     1       1.439   6.001  -8.222  0.00  0.00    -0.004 A 
ATOM      3  C   UNL     1       2.682   6.181  -8.835  0.00  0.00    -0.002 A 
ATOM      4  C   UNL     1       2.809   6.191 -10.223  0.00  0.00    +0.011 A 
ATOM      5  C   UNL     1       1.682   5.984 -11.010  0.00  0.00    +0.058 A 
ATOM      6 CL   UNL     1       1.550   6.689 -12.621  0.00  0.00    -0.082 Cl
ATOM      7  C   UNL     1       0.570   5.492 -10.339  0.00  0.00    +0.011 A 
ATOM      8  C   UNL     1       0.404   5.884  -9.018  0.00  0.00    -0.002 A 
ENDBRANCH   1   2
BRANCH   1   9
ATOM      9  C   UNL     1       0.191   6.295  -6.187  0.00  0.00    -0.004 A 
ATOM     10  C   UNL     1      -0.696   5.527  -6.714  0.00  0.00    -0.003 A 
ATOM     11  C   UNL     1      -2.007   5.463  -6.318  0.00  0.00    -0.000 A 
ATOM     12  C   UNL     1      -2.438   6.362  -5.373  0.00  0.00    -0.000 A 
ATOM     13  C   UNL     1      -1.511   7.174  -4.750  0.00  0.00    -0.000 A 
ATOM     14  C   UNL     1      -0.187   7.170  -5.170  0.00  0.00    -0.003 A 
ENDBRANCH   1   9
BRANCH   1  18
ATOM     15  N   UNL     1       3.557   5.606  -3.737  0.00  0.00    -0.268 NA
ATOM     16  C   UNL     1       3.329   6.942  -4.093  0.00  0.00    +0.090 C 
ATOM     17  C   UNL     1       3.497   7.105  -5.601  0.00  0.00    +0.090 C 
ATOM     18  N   UNL     1       2.587   6.189  -6.161  0.00  0.00    -0.264 NA
ATOM     19  C   UNL     1       2.513   4.940  -5.847  0.00  0.00    +0.090 C 
ATOM     20  C   UNL     1       3.034   4.562  -4.507  0.00  0.00    +0.090 C 
BRANCH  15  21
ATOM     21  C   UNL     1       4.055   5.325  -2.453  0.00  0.00    +0.105 C 
BRANCH  21  22
ATOM     22  C   UNL     1       3.353   6.066  -1.344  0.00  0.00    +0.160 C 
BRANCH  22  23
ATOM     23  O   UNL     1       2.389   5.166  -0.857  0.00  0.00    -0.350 OA
BRANCH  23  24
ATOM     24  C   UNL     1       1.152   5.826  -0.917  0.00  0.00    +0.178 C 
BRANCH  24  26
ATOM     25  O   UNL     1       0.218   4.719  -1.892  0.00  0.00    -0.218 OA
ATOM     26  C   UNL     1       0.323   4.963  -1.867  0.00  0.00    +0.214 C 
ENDBRANCH  24  26
ENDBRANCH  23  24
ENDBRANCH  22  23
ENDBRANCH  21  22
ENDBRANCH  15  21
ENDBRANCH   1  18
TORSDOF 8
ENDMDL
MODEL 7
REMARK VINA RESULT:      -7.3      3.834      7.190
REMARK  Name = 
REMARK  8 active torsions:
REMARK  status: ('A' for Active; 'I' for Inactive)
REMARK    1  A    between atoms: C_2  and  C_3
REMARK    2  A    between atoms: C_3  and  O_4
REMARK    3  A    between atoms: O_4  and  C_5
REMARK    4  A    between atoms: C_5  and  C_6
REMARK    5  A    between atoms: C_6  and  N_7
REMARK    6  A    between atoms: N_10  and  C_11
REMARK    7  A    between atoms: C_11  and  C_12
REMARK    8  A    between atoms: C_11  and  C_18
REMARK                            x       y       z     vdW  Elec       q    Type
REMARK                         _______ _______ _______ _____ _____    ______ ____
ROOT
ATOM      1  C   UNL     1       1.714   6.838  -6.054  0.00  0.00    +0.103 C 
ENDROOT
BRANCH   1   2
ATOM      2  C   UNL     1       0.638   5.852  -5.350  0.00  0.00    -0.004 A 
ATOM      3  C   UNL     1      -0.509   5.937  -6.144  0.00  0.00    -0.002 A 
ATOM      4  C   UNL     1      -1.783   5.909  -5.579  0.00  0.00    +0.011 A 
ATOM      5  C   UNL     1      -1.913   5.761  -4.202  0.00  0.00    +0.058 A 
ATOM      6 CL   UNL     1      -3.291   6.439  -3.336  0.00  0.00    -0.082 Cl
ATOM      7  C   UNL     1      -0.762   5.358  -3.536  0.00  0.00    +0.011 A 
ATOM      8  C   UNL     1       0.451   5.788  -4.055  0.00  0.00    -0.002 A 
ENDBRANCH   1   2
BRANCH   1   9
ATOM      9  C   UNL     1       3.015   6.219  -5.326  0.00  0.00    -0.004 A 
ATOM     10  C   UNL     1       3.040   5.310  -4.415  0.00  0.00    -0.003 A 
ATOM     11  C   UNL     1       3.984   5.224  -3.425  0.00  0.00    -0.000 A 
ATOM     12  C   UNL     1       4.903   6.240  -3.322  0.00  0.00    -0.000 A 
ATOM     13  C   UNL     1       4.940   7.211  -4.304  0.00  0.00    -0.000 A 
ATOM     14  C   UNL     1       3.976   7.228  -5.304  0.00  0.00    -0.003 A 
ENDBRANCH   1   9
BRANCH   1  18
ATOM     15  N   UNL     1       3.459   5.373  -9.394  0.00  0.00    -0.268 NA
ATOM     16  C   UNL     1       3.314   6.720  -9.035  0.00  0.00    +0.090 C 
ATOM     17  C   UNL     1       1.915   6.951  -8.469  0.00  0.00    +0.090 C 
ATOM     18  N   UNL     1       1.814   6.047  -7.394  0.00  0.00    -0.264 NA
ATOM     19  C   UNL     1       2.069   4.785  -7.469  0.00  0.00    +0.090 C 
ATOM     20  C   UNL     1       2.984   4.357  -8.560  0.00  0.00    +0.090 C 
BRANCH  15  21
ATOM     21  C   UNL     1       4.339   5.044 -10.439  0.00  0.00    +0.105 C 
BRANCH  21  22
ATOM     22  C   UNL     1       4.259   5.969 -11.627  0.00  0.00    +0.160 C 
BRANCH  22  23
ATOM     23  O   UNL     1       5.358   5.625 -12.432  0.00  0.00    -0.350 OA
BRANCH  23  24
ATOM     24  C   UNL     1       6.501   5.732 -11.624  0.00  0.00    +0.178 C 
BRANCH  24  26
ATOM     25  O   UNL     1       7.616   4.764 -12.556  0.00  0.00    -0.218 OA
ATOM     26  C   UNL     1       7.576   4.985 -12.411  0.00  0.00    +0.214 C 
ENDBRANCH  24  26
ENDBRANCH  23  24
ENDBRANCH  22  23
ENDBRANCH  21  22
ENDBRANCH  15  21
ENDBRANCH   1  18
TORSDOF 8
ENDMDL
MODEL 8
REMARK VINA RESULT:      -7.2      2.695      5.399
REMARK  Name = 
REMARK  8 active torsions:
REMARK  status: ('A' for Active; 'I' for Inactive)
REMARK    1  A    between atoms: C_2  and  C_3
REMARK    2  A    between atoms: C_3  and  O_4
REMARK    3  A    between atoms: O_4  and  C_5
REMARK    4  A    between atoms: C_5  and  C_6
REMARK    5  A    between atoms: C_6  and  N_7
REMARK    6  A    between atoms: N_10  and  C_11
REMARK    7  A    between atoms: C_11  and  C_12
REMARK    8  A    between atoms: C_11  and  C_18
REMARK                            x       y       z     vdW  Elec       q    Type
REMARK                         _______ _______ _______ _____ _____    ______ ____
ROOT
ATOM      1  C   UNL     1       2.485   6.825  -6.441  0.00  0.00    +0.103 C 
ENDROOT
BRANCH   1   2
ATOM      2  C   UNL     1       2.943   5.714  -7.528  0.00  0.00    -0.004 A 
ATOM      3  C   UNL     1       4.324   5.583  -7.356  0.00  0.00    -0.002 A 
ATOM      4  C   UNL     1       5.171   5.379  -8.444  0.00  0.00    +0.011 A 
ATOM      5  C   UNL     1       4.627   5.273  -9.720  0.00  0.00    +0.058 A 
ATOM      6 CL   UNL     1       5.538   5.764 -11.147  0.00  0.00    -0.082 Cl
ATOM      7  C   UNL     1       3.251   5.086  -9.765  0.00  0.00    +0.011 A 
ATOM      8  C   UNL     1       2.499   5.678  -8.760  0.00  0.00    -0.002 A 
ENDBRANCH   1   2
BRANCH   1   9
ATOM      9  C   UNL     1       1.096   6.109  -6.037  0.00  0.00    -0.004 A 
ATOM     10  C   UNL     1       0.419   5.270  -6.740  0.00  0.00    -0.003 A 
ATOM     11  C   UNL     1      -0.945   5.142  -6.702  0.00  0.00    -0.000 A 
ATOM     12  C   UNL     1      -1.655   6.046  -5.950  0.00  0.00    -0.000 A 
ATOM     13  C   UNL     1      -0.968   6.934  -5.146  0.00  0.00    -0.000 A 
ATOM     14  C   UNL     1       0.419   6.995  -5.202  0.00  0.00    -0.003 A 
ENDBRANCH   1   9
BRANCH   1  18
ATOM     15  N   UNL     1       3.625   6.234  -2.607  0.00  0.00    -0.268 NA
ATOM     16  C   UNL     1       3.488   7.461  -3.270  0.00  0.00    +0.090 C 
ATOM     17  C   UNL     1       4.068   7.349  -4.678  0.00  0.00    +0.090 C 
ATOM     18  N   UNL     1       3.361   6.285  -5.269  0.00  0.00    -0.264 NA
ATOM     19  C   UNL     1       3.219   5.115  -4.745  0.00  0.00    +0.090 C 
ATOM     20  C   UNL     1       3.350   5.032  -3.266  0.00  0.00    +0.090 C 
BRANCH  15  21
ATOM     21  C   UNL     1       3.749   6.234  -1.208  0.00  0.00    +0.105 C 
BRANCH  21  22
ATOM     22  C   UNL     1       2.611   6.911  -0.487  0.00  0.00    +0.160 C 
BRANCH  22  23
ATOM     23  O   UNL     1       1.691   5.886  -0.213  0.00  0.00    -0.350 OA
BRANCH  23  24
ATOM     24  C   UNL     1       0.469   6.274  -0.785  0.00  0.00    +0.178 C 
BRANCH  24  26
ATOM     25  O   UNL     1       0.100   4.802  -1.648  0.00  0.00    -0.218 OA
ATOM     26  C   UNL     1       0.055   5.063  -1.619  0.00  0.00    +0.214 C 
ENDBRANCH  24  26
ENDBRANCH  23  24
ENDBRANCH  22  23
ENDBRANCH  21  22
ENDBRANCH  15  21
ENDBRANCH   1  18
TORSDOF 8
ENDMDL
MODEL 9
REMARK VINA RESULT:      -7.2      3.787      7.205
REMARK  Name = 
REMARK  8 active torsions:
REMARK  status: ('A' for Active; 'I' for Inactive)
REMARK    1  A    between atoms: C_2  and  C_3
REMARK    2  A    between atoms: C_3  and  O_4
REMARK    3  A    between atoms: O_4  and  C_5
REMARK    4  A    between atoms: C_5  and  C_6
REMARK    5  A    between atoms: C_6  and  N_7
REMARK    6  A    between atoms: N_10  and  C_11
REMARK    7  A    between atoms: C_11  and  C_12
REMARK    8  A    between atoms: C_11  and  C_18
REMARK                            x       y       z     vdW  Elec       q    Type
REMARK                         _______ _______ _______ _____ _____    ______ ____
ROOT
ATOM      1  C   UNL     1       1.367   6.810  -5.596  0.00  0.00    +0.103 C 
ENDROOT
BRANCH   1   2
ATOM      2  C   UNL     1       0.325   5.810  -4.861  0.00  0.00    -0.004 A 
ATOM      3  C   UNL     1      -0.818   5.819  -5.664  0.00  0.00    -0.002 A 
ATOM      4  C   UNL     1      -2.094   5.762  -5.105  0.00  0.00    +0.011 A 
ATOM      5  C   UNL     1      -2.227   5.662  -3.724  0.00  0.00    +0.058 A 
ATOM      6 CL   UNL     1      -3.636   6.317  -2.892  0.00  0.00    -0.082 Cl
ATOM      7  C   UNL     1      -1.066   5.330  -3.037  0.00  0.00    +0.011 A 
ATOM      8  C   UNL     1       0.133   5.788  -3.565  0.00  0.00    -0.002 A 
ENDBRANCH   1   2
BRANCH   1   9
ATOM      9  C   UNL     1       2.683   6.290  -4.819  0.00  0.00    -0.004 A 
ATOM     10  C   UNL     1       2.726   5.629  -3.716  0.00  0.00    -0.003 A 
ATOM     11  C   UNL     1       3.737   5.714  -2.794  0.00  0.00    -0.000 A 
ATOM     12  C   UNL     1       4.718   6.653  -3.001  0.00  0.00    -0.000 A 
ATOM     13  C   UNL     1       4.735   7.353  -4.192  0.00  0.00    -0.000 A 
ATOM     14  C   UNL     1       3.699   7.199  -5.105  0.00  0.00    -0.003 A 
ENDBRANCH   1   9
BRANCH   1  18
ATOM     15  N   UNL     1       3.198   5.355  -8.895  0.00  0.00    -0.268 NA
ATOM     16  C   UNL     1       2.914   6.697  -8.606  0.00  0.00    +0.090 C 
ATOM     17  C   UNL     1       1.510   6.808  -8.019  0.00  0.00    +0.090 C 
ATOM     18  N   UNL     1       1.527   5.960  -6.894  0.00  0.00    -0.264 NA
ATOM     19  C   UNL     1       1.916   4.730  -6.907  0.00  0.00    +0.090 C 
ATOM     20  C   UNL     1       2.851   4.343  -7.995  0.00  0.00    +0.090 C 
BRANCH  15  21
ATOM     21  C   UNL     1       4.089   5.065  -9.942  0.00  0.00    +0.105 C 
BRANCH  21  22
ATOM     22  C   UNL     1       5.509   5.498  -9.682  0.00  0.00    +0.160 C 
BRANCH  22  23
ATOM     23  O   UNL     1       5.992   5.932 -10.928  0.00  0.00    -0.350 OA
BRANCH  23  24
ATOM     24  C   UNL     1       5.329   7.134 -11.222  0.00  0.00    +0.178 C 
BRANCH  24  26
ATOM     25  O   UNL     1       6.722   8.180 -11.343  0.00  0.00    -0.218 OA
ATOM     26  C   UNL     1       6.463   8.144 -11.395  0.00  0.00    +0.214 C 
ENDBRANCH  24  26
ENDBRANCH  23  24
ENDBRANCH  22  23
ENDBRANCH  21  22
ENDBRANCH  15  21
ENDBRANCH   1  18
TORSDOF 8
ENDMDL
