MODEL 1
REMARK VINA RESULT:      -7.1      0.000      0.000
REMARK  Name = 
REMARK  1 active torsions:
REMARK  status: ('A' for Active; 'I' for Inactive)
REMARK    1  A    between atoms: C_6  and  C_8
REMARK                            x       y       z     vdW  Elec       q    Type
REMARK                         _______ _______ _______ _____ _____    ______ ____
ROOT
ATOM      1  C   UNL     1       3.909   7.011  -5.714  0.00  0.00    +0.123 C 
ATOM      2  N   UNL     1       3.046   6.449  -6.310  0.00  0.00    -0.228 N 
ATOM      3  C   UNL     1       2.048   7.014  -7.171  0.00  0.00    +0.235 C 
ATOM      4  O   UNL     1       2.216   8.163  -7.685  0.00  0.00    -0.274 OA
ATOM      5  C   UNL     1       1.062   5.977  -7.554  0.00  0.00    +0.097 C 
ATOM      6  C   UNL     1       0.613   6.166  -8.978  0.00  0.00    +0.014 C 
ATOM      7  C   UNL     1       1.854   4.689  -7.405  0.00  0.00    +0.098 C 
ATOM      8  C   UNL     1       2.753   5.045  -6.262  0.00  0.00    +0.232 C 
ATOM      9  O   UNL     1       3.065   4.310  -5.278  0.00  0.00    -0.274 OA
ENDROOT
BRANCH   5  10
ATOM     10  C   UNL     1      -0.075   5.957  -6.609  0.00  0.00    -0.014 A 
ATOM     11  C   UNL     1      -1.215   5.216  -6.888  0.00  0.00    -0.004 A 
ATOM     12  C   UNL     1      -2.416   5.545  -6.305  0.00  0.00    -0.000 A 
ATOM     13  C   UNL     1      -2.396   6.291  -5.134  0.00  0.00    -0.000 A 
ATOM     14  C   UNL     1      -1.369   7.207  -4.983  0.00  0.00    -0.000 A 
ATOM     15  C   UNL     1      -0.166   6.878  -5.595  0.00  0.00    -0.004 A 
ENDBRANCH   5  10
TORSDOF 1
ENDMDL
MODEL 2
REMARK VINA RESULT:      -7.0      3.509      5.992
REMARK  Name = 
REMARK  1 active torsions:
REMARK  status: ('A' for Active; 'I' for Inactive)
REMARK    1  A    between atoms: C_6  and  C_8
REMARK                            x       y       z     vdW  Elec       q    Type
REMARK                         _______ _______ _______ _____ _____    ______ ____
ROOT
ATOM      1  C   UNL     1       2.858   4.771  -6.223  0.00  0.00    +0.123 C 
ATOM      2  N   UNL     1       2.897   5.363  -7.255  0.00  0.00    -0.228 N 
ATOM      3  C   UNL     1       3.136   4.840  -8.569  0.00  0.00    +0.235 C 
ATOM      4  O   UNL     1       2.962   3.607  -8.814  0.00  0.00    -0.274 OA
ATOM      5  C   UNL     1       3.284   5.953  -9.538  0.00  0.00    +0.097 C 
ATOM      6  C   UNL     1       2.666   5.594 -10.862  0.00  0.00    +0.014 C 
ATOM      7  C   UNL     1       2.516   7.082  -8.871  0.00  0.00    +0.098 C 
ATOM      8  C   UNL     1       2.773   6.782  -7.428  0.00  0.00    +0.232 C 
ATOM      9  O   UNL     1       3.046   7.614  -6.511  0.00  0.00    -0.274 OA
ENDROOT
BRANCH   5  10
ATOM     10  C   UNL     1       4.703   6.347  -9.672  0.00  0.00    -0.014 A 
ATOM     11  C   UNL     1       5.093   7.267 -10.635  0.00  0.00    -0.004 A 
ATOM     12  C   UNL     1       6.391   7.287 -11.090  0.00  0.00    -0.000 A 
ATOM     13  C   UNL     1       7.377   6.725 -10.290  0.00  0.00    -0.000 A 
ATOM     14  C   UNL     1       7.018   5.643  -9.507  0.00  0.00    -0.000 A 
ATOM     15  C   UNL     1       5.699   5.618  -9.071  0.00  0.00    -0.004 A 
ENDBRANCH   5  10
TORSDOF 1
ENDMDL
MODEL 3
REMARK VINA RESULT:      -7.0      1.258      2.931
REMARK  Name = 
REMARK  1 active torsions:
REMARK  status: ('A' for Active; 'I' for Inactive)
REMARK    1  A    between atoms: C_6  and  C_8
REMARK                            x       y       z     vdW  Elec       q    Type
REMARK                         _______ _______ _______ _____ _____    ______ ____
ROOT
ATOM      1  C   UNL     1       2.717   5.748  -9.134  0.00  0.00    +0.123 C 
ATOM      2  N   UNL     1       2.407   5.994  -8.012  0.00  0.00    -0.228 N 
ATOM      3  C   UNL     1       1.890   5.101  -7.017  0.00  0.00    +0.235 C 
ATOM      4  O   UNL     1       2.060   3.847  -7.125  0.00  0.00    -0.274 OA
ATOM      5  C   UNL     1       1.463   5.865  -5.821  0.00  0.00    +0.097 C 
ATOM      6  C   UNL     1       1.768   5.101  -4.561  0.00  0.00    +0.014 C 
ATOM      7  C   UNL     1       2.311   7.123  -5.907  0.00  0.00    +0.098 C 
ATOM      8  C   UNL     1       2.418   7.288  -7.391  0.00  0.00    +0.232 C 
ATOM      9  O   UNL     1       2.329   8.368  -8.048  0.00  0.00    -0.274 OA
ENDROOT
BRANCH   5  10
ATOM     10  C   UNL     1       0.036   6.238  -5.917  0.00  0.00    -0.014 A 
ATOM     11  C   UNL     1      -0.499   7.211  -5.086  0.00  0.00    -0.004 A 
ATOM     12  C   UNL     1      -1.849   7.235  -4.821  0.00  0.00    -0.000 A 
ATOM     13  C   UNL     1      -2.703   6.600  -5.712  0.00  0.00    -0.000 A 
ATOM     14  C   UNL     1      -2.224   5.475  -6.360  0.00  0.00    -0.000 A 
ATOM     15  C   UNL     1      -0.856   5.449  -6.602  0.00  0.00    -0.004 A 
ENDBRANCH   5  10
TORSDOF 1
ENDMDL
MODEL 4
REMARK VINA RESULT:      -6.6      3.351      5.852
REMARK  Name = 
REMARK  1 active torsions:
REMARK  status: ('A' for Active; 'I' for Inactive)
REMARK    1  A    between atoms: C_6  and  C_8
REMARK                            x       y       z     vdW  Elec       q    Type
REMARK                         _______ _______ _______ _____ _____    ______ ____
ROOT
ATOM      1  C   UNL     1       0.439   6.870  -9.869  0.00  0.00    +0.123 C 
ATOM      2  N   UNL     1       1.339   6.379  -9.264  0.00  0.00    -0.228 N 
ATOM      3  C   UNL     1       2.342   7.035  -8.478  0.00  0.00    +0.235 C 
ATOM      4  O   UNL     1       2.150   8.210  -8.038  0.00  0.00    -0.274 OA
ATOM      5  C   UNL     1       3.376   6.060  -8.058  0.00  0.00    +0.097 C 
ATOM      6  C   UNL     1       3.861   6.361  -6.665  0.00  0.00    +0.014 C 
ATOM      7  C   UNL     1       2.624   4.739  -8.093  0.00  0.00    +0.098 C 
ATOM      8  C   UNL     1       1.679   4.985  -9.227  0.00  0.00    +0.232 C 
ATOM      9  O   UNL     1       1.363   4.174 -10.148  0.00  0.00    -0.274 OA
ENDROOT
BRANCH   5  10
ATOM     10  C   UNL     1       4.483   6.011  -9.036  0.00  0.00    -0.014 A 
ATOM     11  C   UNL     1       5.668   5.357  -8.733  0.00  0.00    -0.004 A 
ATOM     12  C   UNL     1       6.832   5.691  -9.384  0.00  0.00    -0.000 A 
ATOM     13  C   UNL     1       6.738   6.328 -10.614  0.00  0.00    -0.000 A 
ATOM     14  C   UNL     1       5.660   7.174 -10.810  0.00  0.00    -0.000 A 
ATOM     15  C   UNL     1       4.495   6.842 -10.130  0.00  0.00    -0.004 A 
ENDBRANCH   5  10
TORSDOF 1
ENDMDL
MODEL 5
REMARK VINA RESULT:      -6.3      2.964      5.090
REMARK  Name = 
REMARK  1 active torsions:
REMARK  status: ('A' for Active; 'I' for Inactive)
REMARK    1  A    between atoms: C_6  and  C_8
REMARK                            x       y       z     vdW  Elec       q    Type
REMARK                         _______ _______ _______ _____ _____    ______ ____
ROOT
ATOM      1  C   UNL     1      -2.117   7.392  -1.950  0.00  0.00    +0.123 C 
ATOM      2  N   UNL     1      -2.220   7.085  -3.095  0.00  0.00    -0.228 N 
ATOM      3  C   UNL     1      -2.282   5.768  -3.660  0.00  0.00    +0.235 C 
ATOM      4  O   UNL     1      -2.609   4.774  -2.942  0.00  0.00    -0.274 OA
ATOM      5  C   UNL     1      -2.219   5.847  -5.138  0.00  0.00    +0.097 C 
ATOM      6  C   UNL     1      -3.105   4.807  -5.767  0.00  0.00    +0.014 C 
ATOM      7  C   UNL     1      -2.742   7.246  -5.422  0.00  0.00    +0.098 C 
ATOM      8  C   UNL     1      -2.246   7.981  -4.216  0.00  0.00    +0.232 C 
ATOM      9  O   UNL     1      -1.731   9.138  -4.186  0.00  0.00    -0.274 OA
ENDROOT
BRANCH   5  10
ATOM     10  C   UNL     1      -0.821   5.750  -5.611  0.00  0.00    -0.014 A 
ATOM     11  C   UNL     1      -0.526   5.818  -6.965  0.00  0.00    -0.004 A 
ATOM     12  C   UNL     1       0.638   5.271  -7.451  0.00  0.00    -0.000 A 
ATOM     13  C   UNL     1       1.689   5.069  -6.566  0.00  0.00    -0.000 A 
ATOM     14  C   UNL     1       1.365   4.762  -5.256  0.00  0.00    -0.000 A 
ATOM     15  C   UNL     1       0.176   5.300  -4.781  0.00  0.00    -0.004 A 
ENDBRANCH   5  10
TORSDOF 1
ENDMDL
MODEL 6
REMARK VINA RESULT:      -6.1      2.677      5.069
REMARK  Name = 
REMARK  1 active torsions:
REMARK  status: ('A' for Active; 'I' for Inactive)
REMARK    1  A    between atoms: C_6  and  C_8
REMARK                            x       y       z     vdW  Elec       q    Type
REMARK                         _______ _______ _______ _____ _____    ______ ____
ROOT
ATOM      1  C   UNL     1       3.827   4.786  -4.401  0.00  0.00    +0.123 C 
ATOM      2  N   UNL     1       3.384   5.376  -5.335  0.00  0.00    -0.228 N 
ATOM      3  C   UNL     1       2.864   4.838  -6.559  0.00  0.00    +0.235 C 
ATOM      4  O   UNL     1       2.478   3.631  -6.621  0.00  0.00    -0.274 OA
ATOM      5  C   UNL     1       2.595   5.934  -7.520  0.00  0.00    +0.097 C 
ATOM      6  C   UNL     1       1.355   5.649  -8.322  0.00  0.00    +0.014 C 
ATOM      7  C   UNL     1       2.385   7.134  -6.610  0.00  0.00    +0.098 C 
ATOM      8  C   UNL     1       3.319   6.801  -5.489  0.00  0.00    +0.232 C 
ATOM      9  O   UNL     1       4.098   7.595  -4.882  0.00  0.00    -0.274 OA
ENDROOT
BRANCH   5  10
ATOM     10  C   UNL     1       3.772   6.181  -8.380  0.00  0.00    -0.014 A 
ATOM     11  C   UNL     1       3.651   6.913  -9.552  0.00  0.00    -0.004 A 
ATOM     12  C   UNL     1       4.565   6.755 -10.568  0.00  0.00    -0.000 A 
ATOM     13  C   UNL     1       5.812   6.233 -10.254  0.00  0.00    -0.000 A 
ATOM     14  C   UNL     1       5.873   5.310  -9.223  0.00  0.00    -0.000 A 
ATOM     15  C   UNL     1       4.931   5.464  -8.214  0.00  0.00    -0.004 A 
ENDBRANCH   5  10
TORSDOF 1
ENDMDL
MODEL 7
REMARK VINA RESULT:      -5.9      2.026      4.581
REMARK  Name = 
REMARK  1 active torsions:
REMARK  status: ('A' for Active; 'I' for Inactive)
REMARK    1  A    between atoms: C_6  and  C_8
REMARK                            x       y       z     vdW  Elec       q    Type
REMARK                         _______ _______ _______ _____ _____    ______ ____
ROOT
ATOM      1  C   UNL     1       0.063   4.699  -6.313  0.00  0.00    +0.123 C 
ATOM      2  N   UNL     1       1.047   5.328  -6.539  0.00  0.00    -0.228 N 
ATOM      3  C   UNL     1       2.342   4.844  -6.920  0.00  0.00    +0.235 C 
ATOM      4  O   UNL     1       2.475   3.687  -7.424  0.00  0.00    -0.274 OA
ATOM      5  C   UNL     1       3.321   5.957  -6.916  0.00  0.00    +0.097 C 
ATOM      6  C   UNL     1       4.308   5.805  -8.042  0.00  0.00    +0.014 C 
ATOM      7  C   UNL     1       2.442   7.178  -7.129  0.00  0.00    +0.098 C 
ATOM      8  C   UNL     1       1.194   6.751  -6.421  0.00  0.00    +0.232 C 
ATOM      9  O   UNL     1       0.467   7.458  -5.661  0.00  0.00    -0.274 OA
ENDROOT
BRANCH   5  10
ATOM     10  C   UNL     1       3.988   6.066  -5.601  0.00  0.00    -0.014 A 
ATOM     11  C   UNL     1       4.006   4.990  -4.724  0.00  0.00    -0.004 A 
ATOM     12  C   UNL     1       4.176   5.195  -3.375  0.00  0.00    -0.000 A 
ATOM     13  C   UNL     1       4.768   6.381  -2.961  0.00  0.00    -0.000 A 
ATOM     14  C   UNL     1       4.537   7.509  -3.730  0.00  0.00    -0.000 A 
ATOM     15  C   UNL     1       4.343   7.289  -5.088  0.00  0.00    -0.004 A 
ENDBRANCH   5  10
TORSDOF 1
ENDMDL
MODEL 8
REMARK VINA RESULT:      -5.9      2.462      4.559
REMARK  Name = 
REMARK  1 active torsions:
REMARK  status: ('A' for Active; 'I' for Inactive)
REMARK    1  A    between atoms: C_6  and  C_8
REMARK                            x       y       z     vdW  Elec       q    Type
REMARK                         _______ _______ _______ _____ _____    ______ ____
ROOT
ATOM      1  C   UNL     1       0.259   6.140  -4.222  0.00  0.00    +0.123 C 
ATOM      2  N   UNL     1       1.349   5.809  -4.567  0.00  0.00    -0.228 N 
ATOM      3  C   UNL     1       2.575   6.546  -4.462  0.00  0.00    +0.235 C 
ATOM      4  O   UNL     1       2.683   7.504  -3.636  0.00  0.00    -0.274 OA
ATOM      5  C   UNL     1       3.656   5.837  -5.185  0.00  0.00    +0.097 C 
ATOM      6  C   UNL     1       4.965   5.971  -4.454  0.00  0.00    +0.014 C 
ATOM      7  C   UNL     1       3.178   4.394  -5.173  0.00  0.00    +0.098 C 
ATOM      8  C   UNL     1       1.695   4.591  -5.241  0.00  0.00    +0.232 C 
ATOM      9  O   UNL     1       0.868   3.931  -5.938  0.00  0.00    -0.274 OA
ENDROOT
BRANCH   5  10
ATOM     10  C   UNL     1       3.748   6.304  -6.585  0.00  0.00    -0.014 A 
ATOM     11  C   UNL     1       2.873   7.265  -7.069  0.00  0.00    -0.004 A 
ATOM     12  C   UNL     1       2.622   7.360  -8.418  0.00  0.00    -0.000 A 
ATOM     13  C   UNL     1       3.555   6.827  -9.298  0.00  0.00    -0.000 A 
ATOM     14  C   UNL     1       4.256   5.709  -8.881  0.00  0.00    -0.000 A 
ATOM     15  C   UNL     1       4.483   5.609  -7.514  0.00  0.00    -0.004 A 
ENDBRANCH   5  10
TORSDOF 1
ENDMDL
MODEL 9
REMARK VINA RESULT:      -5.9      2.353      4.937
REMARK  Name = 
REMARK  1 active torsions:
REMARK  status: ('A' for Active; 'I' for Inactive)
REMARK    1  A    between atoms: C_6  and  C_8
REMARK                            x       y       z     vdW  Elec       q    Type
REMARK                         _______ _______ _______ _____ _____    ______ ____
ROOT
ATOM      1  C   UNL     1      -0.108   5.167  -6.538  0.00  0.00    +0.123 C 
ATOM      2  N   UNL     1       1.062   5.298  -6.365  0.00  0.00    -0.228 N 
ATOM      3  C   UNL     1       1.846   6.495  -6.465  0.00  0.00    +0.235 C 
ATOM      4  O   UNL     1       1.294   7.635  -6.390  0.00  0.00    -0.274 OA
ATOM      5  C   UNL     1       3.287   6.168  -6.352  0.00  0.00    +0.097 C 
ATOM      6  C   UNL     1       4.020   7.238  -5.590  0.00  0.00    +0.014 C 
ATOM      7  C   UNL     1       3.275   4.863  -5.572  0.00  0.00    +0.098 C 
ATOM      8  C   UNL     1       2.000   4.254  -6.066  0.00  0.00    +0.232 C 
ATOM      9  O   UNL     1       1.804   3.042  -6.379  0.00  0.00    -0.274 OA
ENDROOT
BRANCH   5  10
ATOM     10  C   UNL     1       3.878   5.928  -7.686  0.00  0.00    -0.014 A 
ATOM     11  C   UNL     1       5.103   5.289  -7.813  0.00  0.00    -0.004 A 
ATOM     12  C   UNL     1       5.871   5.476  -8.939  0.00  0.00    -0.000 A 
ATOM     13  C   UNL     1       5.243   5.914 -10.097  0.00  0.00    -0.000 A 
ATOM     14  C   UNL     1       4.153   6.755  -9.950  0.00  0.00    -0.000 A 
ATOM     15  C   UNL     1       3.397   6.574  -8.798  0.00  0.00    -0.004 A 
ENDBRANCH   5  10
TORSDOF 1
ENDMDL
