MODEL 1
REMARK VINA RESULT:      -9.4      0.000      0.000
REMARK  Name = 
REMARK  4 active torsions:
REMARK  status: ('A' for Active; 'I' for Inactive)
REMARK    1  A    between atoms: S_2  and  C_5
REMARK    2  A    between atoms: C_10  and  C_11
REMARK    3  A    between atoms: C_16  and  C_17
REMARK    4  A    between atoms: C_17  and  C_18
REMARK                            x       y       z     vdW  Elec       q    Type
REMARK                         _______ _______ _______ _____ _____    ______ ____
ROOT
ATOM      1  C   UNL     1      -0.226   6.328  -3.289  0.00  0.00    +0.130 A 
ATOM      2  C   UNL     1      -0.978   7.136  -4.133  0.00  0.00    +0.091 A 
ATOM      3  C   UNL     1      -0.752   7.146  -5.508  0.00  0.00    +0.023 A 
ATOM      4  C   UNL     1       0.397   6.593  -6.033  0.00  0.00    +0.086 A 
ATOM      5  N   UNL     1       0.426   5.802  -7.234  0.00  0.00    -0.218 NA
ATOM      6  C   UNL     1       1.645   6.215  -8.154  0.00  0.00    +0.193 C 
ATOM      7  N   UNL     1       2.701   5.264  -7.471  0.00  0.00    -0.057 NA
ATOM      8  S   UNL     1       2.313   4.856  -5.936  0.00  0.00    +0.080 S 
ATOM      9  O   UNL     1       3.532   4.676  -5.098  0.00  0.00    -0.152 OA
ATOM     10  O   UNL     1       1.471   3.598  -5.999  0.00  0.00    -0.152 OA
ATOM     11  C   UNL     1       1.356   6.117  -5.136  0.00  0.00    +0.140 A 
ATOM     12  C   UNL     1       1.009   5.965  -3.821  0.00  0.00    +0.041 A 
ENDROOT
BRANCH   1  14
ATOM     13  N   UNL     1      -0.529   4.800  -2.012  0.00  0.00    +0.039 NA
ATOM     14  S   UNL     1      -0.885   5.345  -2.047  0.00  0.00    +0.094 S 
ATOM     15  O   UNL     1      -0.766   5.745  -0.658  0.00  0.00    -0.150 OA
ATOM     16  O   UNL     1      -2.221   4.728  -2.419  0.00  0.00    -0.150 OA
ENDBRANCH   1  14
BRANCH   2  17
ATOM     17  C   UNL     1      -2.095   7.839  -3.482  0.00  0.00    +0.420 C 
ATOM     18  F   UNL     1      -2.162   9.062  -4.153  0.00  0.00    -0.166 F 
ATOM     19  F   UNL     1      -1.855   8.204  -2.181  0.00  0.00    -0.166 F 
ATOM     20  F   UNL     1      -3.319   7.254  -3.685  0.00  0.00    -0.166 F 
ENDBRANCH   2  17
BRANCH   6  21
ATOM     21  C   UNL     1       1.225   5.068  -9.268  0.00  0.00    +0.068 C 
BRANCH  21  22
ATOM     22  C   UNL     1       0.828   5.752 -10.490  0.00  0.00    -0.019 A 
ATOM     23  C   UNL     1       1.769   5.810 -11.512  0.00  0.00    -0.004 A 
ATOM     24  C   UNL     1       1.567   6.557 -12.653  0.00  0.00    -0.000 A 
ATOM     25  C   UNL     1       0.386   7.266 -12.829  0.00  0.00    -0.000 A 
ATOM     26  C   UNL     1      -0.368   7.445 -11.676  0.00  0.00    -0.000 A 
ATOM     27  C   UNL     1      -0.282   6.552 -10.631  0.00  0.00    -0.004 A 
ENDBRANCH  21  22
ENDBRANCH   6  21
TORSDOF 4
ENDMDL
MODEL 2
REMARK VINA RESULT:      -9.4      2.634      3.319
REMARK  Name = 
REMARK  4 active torsions:
REMARK  status: ('A' for Active; 'I' for Inactive)
REMARK    1  A    between atoms: S_2  and  C_5
REMARK    2  A    between atoms: C_10  and  C_11
REMARK    3  A    between atoms: C_16  and  C_17
REMARK    4  A    between atoms: C_17  and  C_18
REMARK                            x       y       z     vdW  Elec       q    Type
REMARK                         _______ _______ _______ _____ _____    ______ ____
ROOT
ATOM      1  C   UNL     1      -0.581   6.313  -3.976  0.00  0.00    +0.130 A 
ATOM      2  C   UNL     1      -1.130   6.206  -5.248  0.00  0.00    +0.091 A 
ATOM      3  C   UNL     1      -0.318   6.090  -6.373  0.00  0.00    +0.023 A 
ATOM      4  C   UNL     1       1.031   6.372  -6.297  0.00  0.00    +0.086 A 
ATOM      5  N   UNL     1       2.048   5.590  -6.946  0.00  0.00    -0.218 NA
ATOM      6  C   UNL     1       3.121   6.523  -7.641  0.00  0.00    +0.193 C 
ATOM      7  N   UNL     1       4.035   6.704  -6.369  0.00  0.00    -0.057 NA
ATOM      8  S   UNL     1       3.243   6.462  -4.958  0.00  0.00    +0.080 S 
ATOM      9  O   UNL     1       3.788   7.329  -3.875  0.00  0.00    -0.152 OA
ATOM     10  O   UNL     1       3.356   4.988  -4.623  0.00  0.00    -0.152 OA
ATOM     11  C   UNL     1       1.522   6.866  -5.086  0.00  0.00    +0.140 A 
ATOM     12  C   UNL     1       0.728   6.787  -3.973  0.00  0.00    +0.041 A 
ENDROOT
BRANCH   1  14
ATOM     13  N   UNL     1      -1.244   5.846  -2.132  0.00  0.00    +0.039 NA
ATOM     14  S   UNL     1      -1.116   5.422  -2.611  0.00  0.00    +0.094 S 
ATOM     15  O   UNL     1      -2.404   4.755  -2.632  0.00  0.00    -0.150 OA
ATOM     16  O   UNL     1      -0.004   4.638  -1.937  0.00  0.00    -0.150 OA
ENDBRANCH   1  14
BRANCH   2  17
ATOM     17  C   UNL     1      -2.596   6.077  -5.279  0.00  0.00    +0.420 C 
ATOM     18  F   UNL     1      -2.949   6.547  -6.547  0.00  0.00    -0.166 F 
ATOM     19  F   UNL     1      -3.259   6.928  -4.430  0.00  0.00    -0.166 F 
ATOM     20  F   UNL     1      -3.045   4.782  -5.242  0.00  0.00    -0.166 F 
ENDBRANCH   2  17
BRANCH   6  21
ATOM     21  C   UNL     1       3.972   5.204  -8.155  0.00  0.00    +0.068 C 
BRANCH  21  22
ATOM     22  C   UNL     1       4.945   5.653  -9.141  0.00  0.00    -0.019 A 
ATOM     23  C   UNL     1       6.283   5.394  -8.868  0.00  0.00    -0.004 A 
ATOM     24  C   UNL     1       7.302   5.901  -9.648  0.00  0.00    -0.000 A 
ATOM     25  C   UNL     1       7.014   6.677 -10.763  0.00  0.00    -0.000 A 
ATOM     26  C   UNL     1       5.717   7.173 -10.813  0.00  0.00    -0.000 A 
ATOM     27  C   UNL     1       4.684   6.517 -10.180  0.00  0.00    -0.004 A 
ENDBRANCH  21  22
ENDBRANCH   6  21
TORSDOF 4
ENDMDL
MODEL 3
REMARK VINA RESULT:      -9.3      5.869      8.811
REMARK  Name = 
REMARK  4 active torsions:
REMARK  status: ('A' for Active; 'I' for Inactive)
REMARK    1  A    between atoms: S_2  and  C_5
REMARK    2  A    between atoms: C_10  and  C_11
REMARK    3  A    between atoms: C_16  and  C_17
REMARK    4  A    between atoms: C_17  and  C_18
REMARK                            x       y       z     vdW  Elec       q    Type
REMARK                         _______ _______ _______ _____ _____    ______ ____
ROOT
ATOM      1  C   UNL     1       5.461   6.158 -11.567  0.00  0.00    +0.130 A 
ATOM      2  C   UNL     1       6.049   6.114 -10.309  0.00  0.00    +0.091 A 
ATOM      3  C   UNL     1       5.272   6.019  -9.157  0.00  0.00    +0.023 A 
ATOM      4  C   UNL     1       3.915   6.262  -9.204  0.00  0.00    +0.086 A 
ATOM      5  N   UNL     1       2.938   5.479  -8.496  0.00  0.00    -0.218 NA
ATOM      6  C   UNL     1       1.860   6.409  -7.806  0.00  0.00    +0.193 C 
ATOM      7  N   UNL     1       0.905   6.516  -9.056  0.00  0.00    -0.057 NA
ATOM      8  S   UNL     1       1.664   6.242 -10.479  0.00  0.00    +0.080 S 
ATOM      9  O   UNL     1       1.065   7.052 -11.577  0.00  0.00    -0.152 OA
ATOM     10  O   UNL     1       1.582   4.754 -10.756  0.00  0.00    -0.152 OA
ATOM     11  C   UNL     1       3.376   6.696 -10.418  0.00  0.00    +0.140 A 
ATOM     12  C   UNL     1       4.139   6.596 -11.549  0.00  0.00    +0.041 A 
ENDROOT
BRANCH   1  14
ATOM     13  N   UNL     1       6.071   5.637 -13.416  0.00  0.00    +0.039 NA
ATOM     14  S   UNL     1       5.981   5.230 -12.913  0.00  0.00    +0.094 S 
ATOM     15  O   UNL     1       7.298   4.622 -12.917  0.00  0.00    -0.150 OA
ATOM     16  O   UNL     1       4.881   4.369 -13.505  0.00  0.00    -0.150 OA
ENDBRANCH   1  14
BRANCH   2  17
ATOM     17  C   UNL     1       7.518   6.026 -10.316  0.00  0.00    +0.420 C 
ATOM     18  F   UNL     1       7.891   6.508  -9.059  0.00  0.00    -0.166 F 
ATOM     19  F   UNL     1       8.135   6.892 -11.184  0.00  0.00    -0.166 F 
ATOM     20  F   UNL     1       8.001   4.743 -10.363  0.00  0.00    -0.166 F 
ENDBRANCH   2  17
BRANCH   6  21
ATOM     21  C   UNL     1       1.060   5.087  -7.218  0.00  0.00    +0.068 C 
BRANCH  21  22
ATOM     22  C   UNL     1      -0.062   5.560  -6.419  0.00  0.00    -0.019 A 
ATOM     23  C   UNL     1      -1.330   5.144  -6.809  0.00  0.00    -0.004 A 
ATOM     24  C   UNL     1      -2.476   5.644  -6.226  0.00  0.00    -0.000 A 
ATOM     25  C   UNL     1      -2.394   6.574  -5.198  0.00  0.00    -0.000 A 
ATOM     26  C   UNL     1      -1.157   7.193  -5.065  0.00  0.00    -0.000 A 
ATOM     27  C   UNL     1      -0.004   6.564  -5.481  0.00  0.00    -0.004 A 
ENDBRANCH  21  22
ENDBRANCH   6  21
TORSDOF 4
ENDMDL
MODEL 4
REMARK VINA RESULT:      -9.0      3.782      4.740
REMARK  Name = 
REMARK  4 active torsions:
REMARK  status: ('A' for Active; 'I' for Inactive)
REMARK    1  A    between atoms: S_2  and  C_5
REMARK    2  A    between atoms: C_10  and  C_11
REMARK    3  A    between atoms: C_16  and  C_17
REMARK    4  A    between atoms: C_17  and  C_18
REMARK                            x       y       z     vdW  Elec       q    Type
REMARK                         _______ _______ _______ _____ _____    ______ ____
ROOT
ATOM      1  C   UNL     1       0.208   5.475  -5.752  0.00  0.00    +0.130 A 
ATOM      2  C   UNL     1       1.468   5.540  -5.170  0.00  0.00    +0.091 A 
ATOM      3  C   UNL     1       2.611   5.710  -5.948  0.00  0.00    +0.023 A 
ATOM      4  C   UNL     1       2.563   5.523  -7.314  0.00  0.00    +0.086 A 
ATOM      5  N   UNL     1       3.236   6.372  -8.260  0.00  0.00    -0.218 NA
ATOM      6  C   UNL     1       3.952   5.514  -9.380  0.00  0.00    +0.193 C 
ATOM      7  N   UNL     1       2.700   5.402 -10.332  0.00  0.00    -0.057 NA
ATOM      8  S   UNL     1       1.274   5.592  -9.556  0.00  0.00    +0.080 S 
ATOM      9  O   UNL     1       0.201   4.768 -10.183  0.00  0.00    -0.152 OA
ATOM     10  O   UNL     1       0.942   7.070  -9.573  0.00  0.00    -0.152 OA
ATOM     11  C   UNL     1       1.363   5.068  -7.865  0.00  0.00    +0.140 A 
ATOM     12  C   UNL     1       0.234   5.095  -7.092  0.00  0.00    +0.041 A 
ENDROOT
BRANCH   1  14
ATOM     13  N   UNL     1      -1.586   6.390  -5.684  0.00  0.00    +0.039 NA
ATOM     14  S   UNL     1      -1.167   6.331  -5.187  0.00  0.00    +0.094 S 
ATOM     15  O   UNL     1      -2.075   5.713  -4.240  0.00  0.00    -0.150 OA
ATOM     16  O   UNL     1      -0.893   7.803  -4.938  0.00  0.00    -0.150 OA
ENDBRANCH   1  14
BRANCH   2  17
ATOM     17  C   UNL     1       1.468   5.567  -3.699  0.00  0.00    +0.420 C 
ATOM     18  F   UNL     1       2.725   5.065  -3.352  0.00  0.00    -0.166 F 
ATOM     19  F   UNL     1       0.600   4.678  -3.115  0.00  0.00    -0.166 F 
ATOM     20  F   UNL     1       1.427   6.828  -3.161  0.00  0.00    -0.166 F 
ENDBRANCH   2  17
BRANCH   6  21
ATOM     21  C   UNL     1       4.487   6.889 -10.126  0.00  0.00    +0.068 C 
BRANCH  21  22
ATOM     22  C   UNL     1       5.852   6.655 -10.576  0.00  0.00    -0.019 A 
ATOM     23  C   UNL     1       6.125   6.906 -11.916  0.00  0.00    -0.004 A 
ATOM     24  C   UNL     1       7.335   6.580 -12.491  0.00  0.00    -0.000 A 
ATOM     25  C   UNL     1       8.343   6.005 -11.729  0.00  0.00    -0.000 A 
ATOM     26  C   UNL     1       7.930   5.481 -10.510  0.00  0.00    -0.000 A 
ATOM     27  C   UNL     1       6.819   5.980  -9.867  0.00  0.00    -0.004 A 
ENDBRANCH  21  22
ENDBRANCH   6  21
TORSDOF 4
ENDMDL
MODEL 5
REMARK VINA RESULT:      -8.4      4.320      7.841
REMARK  Name = 
REMARK  4 active torsions:
REMARK  status: ('A' for Active; 'I' for Inactive)
REMARK    1  A    between atoms: S_2  and  C_5
REMARK    2  A    between atoms: C_10  and  C_11
REMARK    3  A    between atoms: C_16  and  C_17
REMARK    4  A    between atoms: C_17  and  C_18
REMARK                            x       y       z     vdW  Elec       q    Type
REMARK                         _______ _______ _______ _____ _____    ______ ____
ROOT
ATOM      1  C   UNL     1       3.822   5.430  -9.823  0.00  0.00    +0.130 A 
ATOM      2  C   UNL     1       2.563   5.586 -10.389  0.00  0.00    +0.091 A 
ATOM      3  C   UNL     1       1.441   5.812  -9.594  0.00  0.00    +0.023 A 
ATOM      4  C   UNL     1       1.492   5.595  -8.232  0.00  0.00    +0.086 A 
ATOM      5  N   UNL     1       0.884   6.466  -7.262  0.00  0.00    -0.218 NA
ATOM      6  C   UNL     1       0.127   5.633  -6.150  0.00  0.00    +0.193 C 
ATOM      7  N   UNL     1       1.380   5.423  -5.216  0.00  0.00    -0.057 NA
ATOM      8  S   UNL     1       2.807   5.538  -6.006  0.00  0.00    +0.080 S 
ATOM      9  O   UNL     1       3.832   4.637  -5.407  0.00  0.00    -0.152 OA
ATOM     10  O   UNL     1       3.231   6.993  -5.965  0.00  0.00    -0.152 OA
ATOM     11  C   UNL     1       2.667   5.055  -7.705  0.00  0.00    +0.140 A 
ATOM     12  C   UNL     1       3.787   5.026  -8.491  0.00  0.00    +0.041 A 
ENDROOT
BRANCH   1  14
ATOM     13  N   UNL     1       5.648   6.280  -9.882  0.00  0.00    +0.039 NA
ATOM     14  S   UNL     1       5.242   6.209 -10.389  0.00  0.00    +0.094 S 
ATOM     15  O   UNL     1       6.155   5.512 -11.273  0.00  0.00    -0.150 OA
ATOM     16  O   UNL     1       5.027   7.674 -10.722  0.00  0.00    -0.150 OA
ENDBRANCH   1  14
BRANCH   2  17
ATOM     17  C   UNL     1       2.548   5.642 -11.859  0.00  0.00    +0.420 C 
ATOM     18  F   UNL     1       1.367   4.984 -12.211  0.00  0.00    -0.166 F 
ATOM     19  F   UNL     1       3.522   4.888 -12.465  0.00  0.00    -0.166 F 
ATOM     20  F   UNL     1       2.417   6.907 -12.371  0.00  0.00    -0.166 F 
ENDBRANCH   2  17
BRANCH   6  21
ATOM     21  C   UNL     1      -0.311   7.023  -5.372  0.00  0.00    +0.068 C 
BRANCH  21  22
ATOM     22  C   UNL     1      -1.483   6.732  -4.559  0.00  0.00    -0.019 A 
ATOM     23  C   UNL     1      -1.630   7.460  -3.383  0.00  0.00    -0.004 A 
ATOM     24  C   UNL     1      -2.612   7.171  -2.459  0.00  0.00    -0.000 A 
ATOM     25  C   UNL     1      -3.515   6.143  -2.693  0.00  0.00    -0.000 A 
ATOM     26  C   UNL     1      -3.144   5.252  -3.692  0.00  0.00    -0.000 A 
ATOM     27  C   UNL     1      -2.313   5.646  -4.717  0.00  0.00    -0.004 A 
ENDBRANCH  21  22
ENDBRANCH   6  21
TORSDOF 4
ENDMDL
MODEL 6
REMARK VINA RESULT:      -8.3      6.013      9.411
REMARK  Name = 
REMARK  4 active torsions:
REMARK  status: ('A' for Active; 'I' for Inactive)
REMARK    1  A    between atoms: S_2  and  C_5
REMARK    2  A    between atoms: C_10  and  C_11
REMARK    3  A    between atoms: C_16  and  C_17
REMARK    4  A    between atoms: C_17  and  C_18
REMARK                            x       y       z     vdW  Elec       q    Type
REMARK                         _______ _______ _______ _____ _____    ______ ____
ROOT
ATOM      1  C   UNL     1       5.089   6.120 -11.851  0.00  0.00    +0.130 A 
ATOM      2  C   UNL     1       6.076   6.058 -10.875  0.00  0.00    +0.091 A 
ATOM      3  C   UNL     1       5.748   5.886  -9.532  0.00  0.00    +0.023 A 
ATOM      4  C   UNL     1       4.451   6.066  -9.098  0.00  0.00    +0.086 A 
ATOM      5  N   UNL     1       3.804   5.213  -8.138  0.00  0.00    -0.218 NA
ATOM      6  C   UNL     1       3.001   6.067  -7.074  0.00  0.00    +0.193 C 
ATOM      7  N   UNL     1       1.671   6.175  -7.914  0.00  0.00    -0.057 NA
ATOM      8  S   UNL     1       1.900   5.987  -9.522  0.00  0.00    +0.080 S 
ATOM      9  O   UNL     1       0.934   6.808 -10.306  0.00  0.00    -0.152 OA
ATOM     10  O   UNL     1       1.774   4.509  -9.829  0.00  0.00    -0.152 OA
ATOM     11  C   UNL     1       3.513   6.518 -10.030  0.00  0.00    +0.140 A 
ATOM     12  C   UNL     1       3.842   6.495 -11.358  0.00  0.00    +0.041 A 
ENDROOT
BRANCH   1  14
ATOM     13  N   UNL     1       5.623   4.827 -13.301  0.00  0.00    +0.039 NA
ATOM     14  S   UNL     1       5.142   5.267 -13.338  0.00  0.00    +0.094 S 
ATOM     15  O   UNL     1       4.073   4.353 -13.694  0.00  0.00    -0.150 OA
ATOM     16  O   UNL     1       5.675   6.101 -14.488  0.00  0.00    -0.150 OA
ENDBRANCH   1  14
BRANCH   2  17
ATOM     17  C   UNL     1       7.454   6.038 -11.389  0.00  0.00    +0.420 C 
ATOM     18  F   UNL     1       8.220   6.516 -10.323  0.00  0.00    -0.166 F 
ATOM     19  F   UNL     1       7.701   6.947 -12.388  0.00  0.00    -0.166 F 
ATOM     20  F   UNL     1       7.940   4.781 -11.642  0.00  0.00    -0.166 F 
ENDBRANCH   2  17
BRANCH   6  21
ATOM     21  C   UNL     1       2.495   4.689  -6.314  0.00  0.00    +0.068 C 
BRANCH  21  22
ATOM     22  C   UNL     1       2.838   4.802  -4.904  0.00  0.00    -0.019 A 
ATOM     23  C   UNL     1       1.893   5.392  -4.072  0.00  0.00    -0.004 A 
ATOM     24  C   UNL     1       2.163   5.691  -2.753  0.00  0.00    -0.000 A 
ATOM     25  C   UNL     1       3.399   5.381  -2.200  0.00  0.00    -0.000 A 
ATOM     26  C   UNL     1       4.400   5.102  -3.122  0.00  0.00    -0.000 A 
ATOM     27  C   UNL     1       4.092   4.609  -4.372  0.00  0.00    -0.004 A 
ENDBRANCH  21  22
ENDBRANCH   6  21
TORSDOF 4
ENDMDL
MODEL 7
REMARK VINA RESULT:      -8.2      4.069      6.897
REMARK  Name = 
REMARK  4 active torsions:
REMARK  status: ('A' for Active; 'I' for Inactive)
REMARK    1  A    between atoms: S_2  and  C_5
REMARK    2  A    between atoms: C_10  and  C_11
REMARK    3  A    between atoms: C_16  and  C_17
REMARK    4  A    between atoms: C_17  and  C_18
REMARK                            x       y       z     vdW  Elec       q    Type
REMARK                         _______ _______ _______ _____ _____    ______ ____
ROOT
ATOM      1  C   UNL     1      -0.932   5.441  -4.615  0.00  0.00    +0.130 A 
ATOM      2  C   UNL     1      -0.998   5.617  -3.238  0.00  0.00    +0.091 A 
ATOM      3  C   UNL     1       0.144   5.907  -2.495  0.00  0.00    +0.023 A 
ATOM      4  C   UNL     1       1.399   5.737  -3.043  0.00  0.00    +0.086 A 
ATOM      5  N   UNL     1       2.484   6.660  -2.853  0.00  0.00    -0.218 NA
ATOM      6  C   UNL     1       3.833   5.892  -2.549  0.00  0.00    +0.193 C 
ATOM      7  N   UNL     1       4.247   5.675  -4.055  0.00  0.00    -0.057 NA
ATOM      8  S   UNL     1       2.981   5.716  -5.090  0.00  0.00    +0.080 S 
ATOM      9  O   UNL     1       3.198   4.804  -6.248  0.00  0.00    -0.152 OA
ATOM     10  O   UNL     1       2.797   7.157  -5.523  0.00  0.00    -0.152 OA
ATOM     11  C   UNL     1       1.477   5.178  -4.321  0.00  0.00    +0.140 A 
ATOM     12  C   UNL     1       0.335   5.085  -5.070  0.00  0.00    +0.041 A 
ENDROOT
BRANCH   1  14
ATOM     13  N   UNL     1      -1.684   6.284  -6.283  0.00  0.00    +0.039 NA
ATOM     14  S   UNL     1      -2.017   6.154  -5.737  0.00  0.00    +0.094 S 
ATOM     15  O   UNL     1      -3.072   5.361  -6.337  0.00  0.00    -0.150 OA
ATOM     16  O   UNL     1      -2.418   7.569  -5.363  0.00  0.00    -0.150 OA
ENDBRANCH   1  14
BRANCH   2  17
ATOM     17  C   UNL     1      -2.360   5.621  -2.681  0.00  0.00    +0.420 C 
ATOM     18  F   UNL     1      -2.188   5.183  -1.365  0.00  0.00    -0.166 F 
ATOM     19  F   UNL     1      -3.198   4.678  -3.221  0.00  0.00    -0.166 F 
ATOM     20  F   UNL     1      -2.917   6.870  -2.570  0.00  0.00    -0.166 F 
ENDBRANCH   2  17
BRANCH   6  21
ATOM     21  C   UNL     1       4.656   7.322  -2.454  0.00  0.00    +0.068 C 
BRANCH  21  22
ATOM     22  C   UNL     1       4.485   7.850  -1.107  0.00  0.00    -0.019 A 
ATOM     23  C   UNL     1       4.877   7.029  -0.056  0.00  0.00    -0.004 A 
ATOM     24  C   UNL     1       4.626   7.354   1.261  0.00  0.00    -0.000 A 
ATOM     25  C   UNL     1       3.987   8.545   1.581  0.00  0.00    -0.000 A 
ATOM     26  C   UNL     1       3.336   9.164   0.521  0.00  0.00    -0.000 A 
ATOM     27  C   UNL     1       3.753   8.966  -0.777  0.00  0.00    -0.004 A 
ENDBRANCH  21  22
ENDBRANCH   6  21
TORSDOF 4
ENDMDL
MODEL 8
REMARK VINA RESULT:      -8.0      4.137      7.549
REMARK  Name = 
REMARK  4 active torsions:
REMARK  status: ('A' for Active; 'I' for Inactive)
REMARK    1  A    between atoms: S_2  and  C_5
REMARK    2  A    between atoms: C_10  and  C_11
REMARK    3  A    between atoms: C_16  and  C_17
REMARK    4  A    between atoms: C_17  and  C_18
REMARK                            x       y       z     vdW  Elec       q    Type
REMARK                         _______ _______ _______ _____ _____    ______ ____
ROOT
ATOM      1  C   UNL     1       2.239   5.227 -10.104  0.00  0.00    +0.130 A 
ATOM      2  C   UNL     1       0.875   5.029  -9.926  0.00  0.00    +0.091 A 
ATOM      3  C   UNL     1       0.283   5.187  -8.675  0.00  0.00    +0.023 A 
ATOM      4  C   UNL     1       1.059   5.251  -7.535  0.00  0.00    +0.086 A 
ATOM      5  N   UNL     1       0.810   6.161  -6.450  0.00  0.00    -0.218 NA
ATOM      6  C   UNL     1       0.956   5.430  -5.055  0.00  0.00    +0.193 C 
ATOM      7  N   UNL     1       2.512   5.645  -4.913  0.00  0.00    -0.057 NA
ATOM      8  S   UNL     1       3.269   5.875  -6.345  0.00  0.00    +0.080 S 
ATOM      9  O   UNL     1       4.651   5.316  -6.322  0.00  0.00    -0.152 OA
ATOM     10  O   UNL     1       3.259   7.363  -6.629  0.00  0.00    -0.152 OA
ATOM     11  C   UNL     1       2.435   5.055  -7.677  0.00  0.00    +0.140 A 
ATOM     12  C   UNL     1       2.979   5.088  -8.932  0.00  0.00    +0.041 A 
ENDROOT
BRANCH   1  14
ATOM     13  N   UNL     1       3.337   6.573 -11.124  0.00  0.00    +0.039 NA
ATOM     14  S   UNL     1       2.927   6.137 -11.385  0.00  0.00    +0.094 S 
ATOM     15  O   UNL     1       3.863   5.516 -12.302  0.00  0.00    -0.150 OA
ATOM     16  O   UNL     1       1.945   7.097 -12.031  0.00  0.00    -0.150 OA
ENDBRANCH   1  14
BRANCH   2  17
ATOM     17  C   UNL     1       0.118   4.796 -11.166  0.00  0.00    +0.420 C 
ATOM     18  F   UNL     1      -0.783   3.784 -10.827  0.00  0.00    -0.166 F 
ATOM     19  F   UNL     1       0.851   4.239 -12.184  0.00  0.00    -0.166 F 
ATOM     20  F   UNL     1      -0.665   5.855 -11.552  0.00  0.00    -0.166 F 
ENDBRANCH   2  17
BRANCH   6  21
ATOM     21  C   UNL     1       0.616   6.835  -4.255  0.00  0.00    +0.068 C 
BRANCH  21  22
ATOM     22  C   UNL     1      -0.697   6.697  -3.641  0.00  0.00    -0.019 A 
ATOM     23  C   UNL     1      -0.848   5.683  -2.701  0.00  0.00    -0.004 A 
ATOM     24  C   UNL     1      -2.077   5.358  -2.166  0.00  0.00    -0.000 A 
ATOM     25  C   UNL     1      -3.215   6.062  -2.538  0.00  0.00    -0.000 A 
ATOM     26  C   UNL     1      -3.081   6.825  -3.691  0.00  0.00    -0.000 A 
ATOM     27  C   UNL     1      -1.850   7.304  -4.082  0.00  0.00    -0.004 A 
ENDBRANCH  21  22
ENDBRANCH   6  21
TORSDOF 4
ENDMDL
MODEL 9
REMARK VINA RESULT:      -7.7      4.661      8.143
REMARK  Name = 
REMARK  4 active torsions:
REMARK  status: ('A' for Active; 'I' for Inactive)
REMARK    1  A    between atoms: S_2  and  C_5
REMARK    2  A    between atoms: C_10  and  C_11
REMARK    3  A    between atoms: C_16  and  C_17
REMARK    4  A    between atoms: C_17  and  C_18
REMARK                            x       y       z     vdW  Elec       q    Type
REMARK                         _______ _______ _______ _____ _____    ______ ____
ROOT
ATOM      1  C   UNL     1       1.489   6.113 -10.051  0.00  0.00    +0.130 A 
ATOM      2  C   UNL     1       2.862   6.267 -10.194  0.00  0.00    +0.091 A 
ATOM      3  C   UNL     1       3.704   6.271  -9.084  0.00  0.00    +0.023 A 
ATOM      4  C   UNL     1       3.188   6.420  -7.813  0.00  0.00    +0.086 A 
ATOM      5  N   UNL     1       3.646   5.673  -6.673  0.00  0.00    -0.218 NA
ATOM      6  C   UNL     1       3.813   6.614  -5.412  0.00  0.00    +0.193 C 
ATOM      7  N   UNL     1       2.320   6.501  -4.918  0.00  0.00    -0.057 NA
ATOM      8  S   UNL     1       1.271   6.095  -6.106  0.00  0.00    +0.080 S 
ATOM      9  O   UNL     1      -0.064   6.719  -5.886  0.00  0.00    -0.152 OA
ATOM     10  O   UNL     1       1.196   4.582  -6.146  0.00  0.00    -0.152 OA
ATOM     11  C   UNL     1       1.817   6.660  -7.695  0.00  0.00    +0.140 A 
ATOM     12  C   UNL     1       1.018   6.465  -8.789  0.00  0.00    +0.041 A 
ENDROOT
BRANCH   1  14
ATOM     13  N   UNL     1      -0.098   5.159 -10.846  0.00  0.00    +0.039 NA
ATOM     14  S   UNL     1       0.528   5.055 -11.000  0.00  0.00    +0.094 S 
ATOM     15  O   UNL     1       0.411   5.259 -12.431  0.00  0.00    -0.150 OA
ATOM     16  O   UNL     1       0.636   3.603 -10.571  0.00  0.00    -0.150 OA
ENDBRANCH   1  14
BRANCH   2  17
ATOM     17  C   UNL     1       3.342   6.271 -11.585  0.00  0.00    +0.420 C 
ATOM     18  F   UNL     1       4.541   6.987 -11.527  0.00  0.00    -0.166 F 
ATOM     19  F   UNL     1       2.573   7.010 -12.449  0.00  0.00    -0.166 F 
ATOM     20  F   UNL     1       3.689   5.033 -12.062  0.00  0.00    -0.166 F 
ENDBRANCH   2  17
BRANCH   6  21
ATOM     21  C   UNL     1       4.293   5.331  -4.487  0.00  0.00    +0.068 C 
BRANCH  21  22
ATOM     22  C   UNL     1       4.496   5.809  -3.127  0.00  0.00    -0.019 A 
ATOM     23  C   UNL     1       4.049   4.986  -2.098  0.00  0.00    -0.004 A 
ATOM     24  C   UNL     1       4.048   5.395  -0.781  0.00  0.00    -0.000 A 
ATOM     25  C   UNL     1       4.526   6.652  -0.435  0.00  0.00    -0.000 A 
ATOM     26  C   UNL     1       4.653   7.543  -1.493  0.00  0.00    -0.000 A 
ATOM     27  C   UNL     1       4.857   7.090  -2.778  0.00  0.00    -0.004 A 
ENDBRANCH  21  22
ENDBRANCH   6  21
TORSDOF 4
ENDMDL
