MODEL 1
REMARK VINA RESULT:      -8.1      0.000      0.000
REMARK  Name = 
REMARK  4 active torsions:
REMARK  status: ('A' for Active; 'I' for Inactive)
REMARK    1  A    between atoms: C_2  and  C_3
REMARK    2  A    between atoms: C_2  and  C_16
REMARK    3  A    between atoms: C_6  and  C_7
REMARK    4  A    between atoms: C_12  and  N_13
REMARK                            x       y       z     vdW  Elec       q    Type
REMARK                         _______ _______ _______ _____ _____    ______ ____
ROOT
ATOM      1  C   UNL     1       0.207   5.678  -5.733  0.00  0.00    +0.105 A 
ATOM      2  C   UNL     1       0.525   5.528  -4.392  0.00  0.00    +0.293 A 
ATOM      3  C   UNL     1      -0.503   5.664  -3.477  0.00  0.00    +0.079 A 
ATOM      4  C   UNL     1      -1.831   5.786  -3.861  0.00  0.00    +0.078 A 
ATOM      5  C   UNL     1      -2.081   6.160  -5.166  0.00  0.00    +0.004 A 
ATOM      6  C   UNL     1      -1.073   6.003  -6.100  0.00  0.00    +0.009 A 
ENDROOT
BRANCH   4   7
ATOM      7  C   UNL     1      -2.850   5.834  -2.793  0.00  0.00    +0.419 C 
ATOM      8  F   UNL     1      -2.411   5.192  -1.642  0.00  0.00    -0.166 F 
ATOM      9  F   UNL     1      -3.152   7.147  -2.455  0.00  0.00    -0.166 F 
ATOM     10  F   UNL     1      -3.974   5.194  -3.283  0.00  0.00    -0.166 F 
ENDBRANCH   4   7
BRANCH   2  11
ATOM     11  N   UNL     1       1.861   5.901  -4.034  0.00  0.00    +0.081 N 
ATOM     12  O   UNL     1       2.438   5.152  -3.022  0.00  0.00    -0.576 OA
ATOM     13  O   UNL     1       2.039   7.144  -3.962  0.00  0.00    +0.041 OA
ENDBRANCH   2  11
BRANCH   1  15
ATOM     14  O   UNL     1       1.620   3.958  -6.491  0.00  0.00    -0.290 OA
ATOM     15  C   UNL     1       1.117   5.104  -6.704  0.00  0.00    +0.193 C 
BRANCH  15  16
ATOM     16  C   UNL     1       1.550   5.764  -7.949  0.00  0.00    +0.176 C 
ATOM     17  C   UNL     1       1.871   4.775  -9.033  0.00  0.00    +0.165 C 
ATOM     18  O   UNL     1       1.948   5.265 -10.158  0.00  0.00    -0.295 OA
ATOM     19  C   UNL     1       2.982   3.824  -8.692  0.00  0.00    +0.066 C 
ATOM     20  C   UNL     1       4.237   4.685  -8.671  0.00  0.00    +0.016 C 
ATOM     21  C   UNL     1       4.144   5.822  -7.699  0.00  0.00    +0.066 C 
ATOM     22  C   UNL     1       2.830   6.516  -7.727  0.00  0.00    +0.165 C 
ATOM     23  O   UNL     1       2.759   7.562  -7.085  0.00  0.00    -0.295 OA
ENDBRANCH  15  16
ENDBRANCH   1  15
TORSDOF 4
ENDMDL
MODEL 2
REMARK VINA RESULT:      -8.1      4.008      6.158
REMARK  Name = 
REMARK  4 active torsions:
REMARK  status: ('A' for Active; 'I' for Inactive)
REMARK    1  A    between atoms: C_2  and  C_3
REMARK    2  A    between atoms: C_2  and  C_16
REMARK    3  A    between atoms: C_6  and  C_7
REMARK    4  A    between atoms: C_12  and  N_13
REMARK                            x       y       z     vdW  Elec       q    Type
REMARK                         _______ _______ _______ _____ _____    ______ ____
ROOT
ATOM      1  C   UNL     1       1.359   5.050  -4.852  0.00  0.00    +0.105 A 
ATOM      2  C   UNL     1       2.390   5.976  -4.819  0.00  0.00    +0.293 A 
ATOM      3  C   UNL     1       3.254   6.002  -5.898  0.00  0.00    +0.079 A 
ATOM      4  C   UNL     1       3.031   5.260  -7.049  0.00  0.00    +0.078 A 
ATOM      5  C   UNL     1       2.152   4.200  -6.959  0.00  0.00    +0.004 A 
ATOM      6  C   UNL     1       1.261   4.173  -5.901  0.00  0.00    +0.009 A 
ENDROOT
BRANCH   4   7
ATOM      7  C   UNL     1       3.975   5.440  -8.172  0.00  0.00    +0.419 C 
ATOM      8  F   UNL     1       3.928   4.367  -9.052  0.00  0.00    -0.166 F 
ATOM      9  F   UNL     1       3.675   6.590  -8.891  0.00  0.00    -0.166 F 
ATOM     10  F   UNL     1       5.239   5.536  -7.620  0.00  0.00    -0.166 F 
ENDBRANCH   4   7
BRANCH   2  11
ATOM     11  N   UNL     1       2.861   6.319  -3.510  0.00  0.00    +0.081 N 
ATOM     12  O   UNL     1       3.182   7.653  -3.324  0.00  0.00    -0.576 OA
ATOM     13  O   UNL     1       3.677   5.490  -3.031  0.00  0.00    +0.041 OA
ENDBRANCH   2  11
BRANCH   1  15
ATOM     14  O   UNL     1       0.373   5.426  -2.750  0.00  0.00    -0.290 OA
ATOM     15  C   UNL     1       0.211   5.296  -4.003  0.00  0.00    +0.193 C 
BRANCH  15  16
ATOM     16  C   UNL     1      -1.185   5.385  -4.472  0.00  0.00    +0.176 C 
ATOM     17  C   UNL     1      -1.389   6.524  -5.430  0.00  0.00    +0.165 C 
ATOM     18  O   UNL     1      -2.439   6.465  -6.068  0.00  0.00    -0.295 OA
ATOM     19  C   UNL     1      -1.089   7.877  -4.851  0.00  0.00    +0.066 C 
ATOM     20  C   UNL     1      -2.196   8.119  -3.833  0.00  0.00    +0.016 C 
ATOM     21  C   UNL     1      -2.258   7.052  -2.782  0.00  0.00    +0.066 C 
ATOM     22  C   UNL     1      -2.108   5.678  -3.325  0.00  0.00    +0.165 C 
ATOM     23  O   UNL     1      -2.330   4.759  -2.538  0.00  0.00    -0.295 OA
ENDBRANCH  15  16
ENDBRANCH   1  15
TORSDOF 4
ENDMDL
MODEL 3
REMARK VINA RESULT:      -8.1      3.600      6.218
REMARK  Name = 
REMARK  4 active torsions:
REMARK  status: ('A' for Active; 'I' for Inactive)
REMARK    1  A    between atoms: C_2  and  C_3
REMARK    2  A    between atoms: C_2  and  C_16
REMARK    3  A    between atoms: C_6  and  C_7
REMARK    4  A    between atoms: C_12  and  N_13
REMARK                            x       y       z     vdW  Elec       q    Type
REMARK                         _______ _______ _______ _____ _____    ______ ____
ROOT
ATOM      1  C   UNL     1      -0.076   5.370  -5.788  0.00  0.00    +0.105 A 
ATOM      2  C   UNL     1       1.155   5.271  -6.416  0.00  0.00    +0.293 A 
ATOM      3  C   UNL     1       1.165   5.283  -7.799  0.00  0.00    +0.079 A 
ATOM      4  C   UNL     1       0.027   5.543  -8.549  0.00  0.00    +0.078 A 
ATOM      5  C   UNL     1      -1.193   5.406  -7.918  0.00  0.00    +0.004 A 
ATOM      6  C   UNL     1      -1.223   5.420  -6.536  0.00  0.00    +0.009 A 
ENDROOT
BRANCH   4   7
ATOM      7  C   UNL     1       0.178   5.620 -10.017  0.00  0.00    +0.419 C 
ATOM      8  F   UNL     1       1.503   5.824 -10.381  0.00  0.00    -0.166 F 
ATOM      9  F   UNL     1      -0.250   4.444 -10.621  0.00  0.00    -0.166 F 
ATOM     10  F   UNL     1      -0.592   6.686 -10.444  0.00  0.00    -0.166 F 
ENDBRANCH   4   7
BRANCH   2  11
ATOM     11  N   UNL     1       2.152   4.536  -5.696  0.00  0.00    +0.081 N 
ATOM     12  O   UNL     1       3.297   5.245  -5.374  0.00  0.00    -0.576 OA
ATOM     13  O   UNL     1       2.337   3.370  -6.131  0.00  0.00    +0.041 OA
ENDBRANCH   2  11
BRANCH   1  15
ATOM     14  O   UNL     1       0.544   6.865  -4.082  0.00  0.00    -0.290 OA
ATOM     15  C   UNL     1      -0.089   5.814  -4.409  0.00  0.00    +0.193 C 
BRANCH  15  16
ATOM     16  C   UNL     1      -0.771   5.117  -3.302  0.00  0.00    +0.176 C 
ATOM     17  C   UNL     1      -2.209   5.532  -3.172  0.00  0.00    +0.165 C 
ATOM     18  O   UNL     1      -2.890   4.782  -2.474  0.00  0.00    -0.295 OA
ATOM     19  C   UNL     1      -2.406   6.993  -2.889  0.00  0.00    +0.066 C 
ATOM     20  C   UNL     1      -1.894   7.186  -1.468  0.00  0.00    +0.016 C 
ATOM     21  C   UNL     1      -0.465   6.764  -1.306  0.00  0.00    +0.066 C 
ATOM     22  C   UNL     1      -0.147   5.482  -1.987  0.00  0.00    +0.165 C 
ATOM     23  O   UNL     1       0.956   4.998  -1.738  0.00  0.00    -0.295 OA
ENDBRANCH  15  16
ENDBRANCH   1  15
TORSDOF 4
ENDMDL
MODEL 4
REMARK VINA RESULT:      -8.0      2.576      4.064
REMARK  Name = 
REMARK  4 active torsions:
REMARK  status: ('A' for Active; 'I' for Inactive)
REMARK    1  A    between atoms: C_2  and  C_3
REMARK    2  A    between atoms: C_2  and  C_16
REMARK    3  A    between atoms: C_6  and  C_7
REMARK    4  A    between atoms: C_12  and  N_13
REMARK                            x       y       z     vdW  Elec       q    Type
REMARK                         _______ _______ _______ _____ _____    ______ ____
ROOT
ATOM      1  C   UNL     1       1.790   6.289  -5.488  0.00  0.00    +0.105 A 
ATOM      2  C   UNL     1       1.183   5.473  -6.430  0.00  0.00    +0.293 A 
ATOM      3  C   UNL     1      -0.194   5.353  -6.373  0.00  0.00    +0.079 A 
ATOM      4  C   UNL     1      -0.974   6.128  -5.526  0.00  0.00    +0.078 A 
ATOM      5  C   UNL     1      -0.340   6.741  -4.465  0.00  0.00    +0.004 A 
ATOM      6  C   UNL     1       1.034   6.895  -4.519  0.00  0.00    +0.009 A 
ENDROOT
BRANCH   4   7
ATOM      7  C   UNL     1      -2.440   5.976  -5.619  0.00  0.00    +0.419 C 
ATOM      8  F   UNL     1      -2.964   5.387  -4.476  0.00  0.00    -0.166 F 
ATOM      9  F   UNL     1      -3.057   7.212  -5.778  0.00  0.00    -0.166 F 
ATOM     10  F   UNL     1      -2.691   5.172  -6.716  0.00  0.00    -0.166 F 
ENDBRANCH   4   7
BRANCH   2  11
ATOM     11  N   UNL     1       1.982   4.379  -6.898  0.00  0.00    +0.081 N 
ATOM     12  O   UNL     1       2.064   4.248  -8.274  0.00  0.00    -0.576 OA
ATOM     13  O   UNL     1       1.804   3.310  -6.258  0.00  0.00    +0.041 OA
ENDBRANCH   2  11
BRANCH   1  15
ATOM     14  O   UNL     1       3.267   7.646  -6.716  0.00  0.00    -0.290 OA
ATOM     15  C   UNL     1       3.116   6.788  -5.792  0.00  0.00    +0.193 C 
BRANCH  15  16
ATOM     16  C   UNL     1       4.356   6.357  -5.121  0.00  0.00    +0.176 C 
ATOM     17  C   UNL     1       4.184   5.053  -4.395  0.00  0.00    +0.165 C 
ATOM     18  O   UNL     1       5.240   4.509  -4.075  0.00  0.00    -0.295 OA
ATOM     19  C   UNL     1       3.148   5.084  -3.309  0.00  0.00    +0.066 C 
ATOM     20  C   UNL     1       3.747   5.971  -2.225  0.00  0.00    +0.016 C 
ATOM     21  C   UNL     1       4.089   7.342  -2.723  0.00  0.00    +0.066 C 
ATOM     22  C   UNL     1       4.747   7.340  -4.055  0.00  0.00    +0.165 C 
ATOM     23  O   UNL     1       5.211   8.415  -4.430  0.00  0.00    -0.295 OA
ENDBRANCH  15  16
ENDBRANCH   1  15
TORSDOF 4
ENDMDL
MODEL 5
REMARK VINA RESULT:      -8.0      3.320      4.338
REMARK  Name = 
REMARK  4 active torsions:
REMARK  status: ('A' for Active; 'I' for Inactive)
REMARK    1  A    between atoms: C_2  and  C_3
REMARK    2  A    between atoms: C_2  and  C_16
REMARK    3  A    between atoms: C_6  and  C_7
REMARK    4  A    between atoms: C_12  and  N_13
REMARK                            x       y       z     vdW  Elec       q    Type
REMARK                         _______ _______ _______ _____ _____    ______ ____
ROOT
ATOM      1  C   UNL     1       2.855   6.823  -5.920  0.00  0.00    +0.105 A 
ATOM      2  C   UNL     1       1.901   6.713  -4.920  0.00  0.00    +0.293 A 
ATOM      3  C   UNL     1       2.303   6.992  -3.626  0.00  0.00    +0.079 A 
ATOM      4  C   UNL     1       3.554   7.516  -3.332  0.00  0.00    +0.078 A 
ATOM      5  C   UNL     1       4.535   7.394  -4.295  0.00  0.00    +0.004 A 
ATOM      6  C   UNL     1       4.148   7.143  -5.599  0.00  0.00    +0.009 A 
ENDROOT
BRANCH   4   7
ATOM      7  C   UNL     1       3.836   7.859  -1.923  0.00  0.00    +0.419 C 
ATOM      8  F   UNL     1       5.080   7.387  -1.524  0.00  0.00    -0.166 F 
ATOM      9  F   UNL     1       3.829   9.236  -1.738  0.00  0.00    -0.166 F 
ATOM     10  F   UNL     1       2.846   7.267  -1.161  0.00  0.00    -0.166 F 
ENDBRANCH   4   7
BRANCH   2  11
ATOM     11  N   UNL     1       0.870   5.748  -5.161  0.00  0.00    +0.081 N 
ATOM     12  O   UNL     1      -0.374   6.065  -4.645  0.00  0.00    -0.576 OA
ATOM     13  O   UNL     1       1.241   4.557  -4.997  0.00  0.00    +0.041 OA
ENDBRANCH   2  11
BRANCH   1  15
ATOM     14  O   UNL     1       2.258   8.157  -7.762  0.00  0.00    -0.290 OA
ATOM     15  C   UNL     1       2.383   6.989  -7.280  0.00  0.00    +0.193 C 
BRANCH  15  16
ATOM     16  C   UNL     1       1.991   5.888  -8.180  0.00  0.00    +0.176 C 
ATOM     17  C   UNL     1       2.970   4.750  -8.141  0.00  0.00    +0.165 C 
ATOM     18  O   UNL     1       2.549   3.704  -8.634  0.00  0.00    -0.295 OA
ATOM     19  C   UNL     1       4.363   5.119  -8.564  0.00  0.00    +0.066 C 
ATOM     20  C   UNL     1       4.256   5.391 -10.059  0.00  0.00    +0.016 C 
ATOM     21  C   UNL     1       3.260   6.464 -10.382  0.00  0.00    +0.066 C 
ATOM     22  C   UNL     1       1.997   6.350  -9.608  0.00  0.00    +0.165 C 
ATOM     23  O   UNL     1       1.081   7.091  -9.959  0.00  0.00    -0.295 OA
ENDBRANCH  15  16
ENDBRANCH   1  15
TORSDOF 4
ENDMDL
MODEL 6
REMARK VINA RESULT:      -8.0      5.395      7.524
REMARK  Name = 
REMARK  4 active torsions:
REMARK  status: ('A' for Active; 'I' for Inactive)
REMARK    1  A    between atoms: C_2  and  C_3
REMARK    2  A    between atoms: C_2  and  C_16
REMARK    3  A    between atoms: C_6  and  C_7
REMARK    4  A    between atoms: C_12  and  N_13
REMARK                            x       y       z     vdW  Elec       q    Type
REMARK                         _______ _______ _______ _____ _____    ______ ____
ROOT
ATOM      1  C   UNL     1       3.922   5.455  -8.465  0.00  0.00    +0.105 A 
ATOM      2  C   UNL     1       3.484   6.425  -9.353  0.00  0.00    +0.293 A 
ATOM      3  C   UNL     1       4.432   7.009 -10.174  0.00  0.00    +0.079 A 
ATOM      4  C   UNL     1       5.741   6.553 -10.241  0.00  0.00    +0.078 A 
ATOM      5  C   UNL     1       6.192   5.765  -9.201  0.00  0.00    +0.004 A 
ATOM      6  C   UNL     1       5.256   5.150  -8.389  0.00  0.00    +0.009 A 
ENDROOT
BRANCH   4   7
ATOM      7  C   UNL     1       6.639   7.197 -11.221  0.00  0.00    +0.419 C 
ATOM      8  F   UNL     1       6.611   6.542 -12.445  0.00  0.00    -0.166 F 
ATOM      9  F   UNL     1       6.266   8.518 -11.441  0.00  0.00    -0.166 F 
ATOM     10  F   UNL     1       7.915   7.142 -10.691  0.00  0.00    -0.166 F 
ENDBRANCH   4   7
BRANCH   2  11
ATOM     11  N   UNL     1       2.342   7.176  -8.924  0.00  0.00    +0.081 N 
ATOM     12  O   UNL     1       1.258   7.155  -9.786  0.00  0.00    -0.576 OA
ATOM     13  O   UNL     1       2.627   8.299  -8.434  0.00  0.00    +0.041 OA
ENDBRANCH   2  11
BRANCH   1  15
ATOM     14  O   UNL     1       2.260   3.816  -8.749  0.00  0.00    -0.290 OA
ATOM     15  C   UNL     1       2.936   4.530  -7.945  0.00  0.00    +0.193 C 
BRANCH  15  16
ATOM     16  C   UNL     1       2.612   4.353  -6.517  0.00  0.00    +0.176 C 
ATOM     17  C   UNL     1       1.154   4.577  -6.235  0.00  0.00    +0.165 C 
ATOM     18  O   UNL     1       0.782   4.161  -5.139  0.00  0.00    -0.295 OA
ATOM     19  C   UNL     1       0.665   5.956  -6.575  0.00  0.00    +0.066 C 
ATOM     20  C   UNL     1       1.327   6.867  -5.550  0.00  0.00    +0.016 C 
ATOM     21  C   UNL     1       2.823   6.773  -5.573  0.00  0.00    +0.066 C 
ATOM     22  C   UNL     1       3.326   5.379  -5.685  0.00  0.00    +0.165 C 
ATOM     23  O   UNL     1       4.535   5.228  -5.528  0.00  0.00    -0.295 OA
ENDBRANCH  15  16
ENDBRANCH   1  15
TORSDOF 4
ENDMDL
MODEL 7
REMARK VINA RESULT:      -7.8      4.304      6.168
REMARK  Name = 
REMARK  4 active torsions:
REMARK  status: ('A' for Active; 'I' for Inactive)
REMARK    1  A    between atoms: C_2  and  C_3
REMARK    2  A    between atoms: C_2  and  C_16
REMARK    3  A    between atoms: C_6  and  C_7
REMARK    4  A    between atoms: C_12  and  N_13
REMARK                            x       y       z     vdW  Elec       q    Type
REMARK                         _______ _______ _______ _____ _____    ______ ____
ROOT
ATOM      1  C   UNL     1       3.426   5.209 -10.259  0.00  0.00    +0.105 A 
ATOM      2  C   UNL     1       2.254   5.914 -10.482  0.00  0.00    +0.293 A 
ATOM      3  C   UNL     1       1.285   5.862  -9.498  0.00  0.00    +0.079 A 
ATOM      4  C   UNL     1       1.510   5.271  -8.262  0.00  0.00    +0.078 A 
ATOM      5  C   UNL     1       2.572   4.396  -8.163  0.00  0.00    +0.004 A 
ATOM      6  C   UNL     1       3.565   4.455  -9.124  0.00  0.00    +0.009 A 
ENDROOT
BRANCH   4   7
ATOM      7  C   UNL     1       0.430   5.356  -7.257  0.00  0.00    +0.419 C 
ATOM      8  F   UNL     1       0.425   6.590  -6.619  0.00  0.00    -0.166 F 
ATOM      9  F   UNL     1      -0.814   5.183  -7.852  0.00  0.00    -0.166 F 
ATOM     10  F   UNL     1       0.663   4.354  -6.334  0.00  0.00    -0.166 F 
ENDBRANCH   4   7
BRANCH   2  11
ATOM     11  N   UNL     1       1.877   6.055 -11.858  0.00  0.00    +0.081 N 
ATOM     12  O   UNL     1       1.213   7.227 -12.176  0.00  0.00    -0.576 OA
ATOM     13  O   UNL     1       1.402   5.005 -12.363  0.00  0.00    +0.041 OA
ENDBRANCH   2  11
BRANCH   1  15
ATOM     14  O   UNL     1       4.865   5.012 -12.110  0.00  0.00    -0.290 OA
ATOM     15  C   UNL     1       4.598   5.602 -11.017  0.00  0.00    +0.193 C 
BRANCH  15  16
ATOM     16  C   UNL     1       5.560   6.642 -10.608  0.00  0.00    +0.176 C 
ATOM     17  C   UNL     1       5.983   7.507 -11.760  0.00  0.00    +0.165 C 
ATOM     18  O   UNL     1       6.540   8.553 -11.429  0.00  0.00    -0.295 OA
ATOM     19  C   UNL     1       6.666   6.764 -12.872  0.00  0.00    +0.066 C 
ATOM     20  C   UNL     1       8.007   6.339 -12.288  0.00  0.00    +0.016 C 
ATOM     21  C   UNL     1       7.862   5.505 -11.052  0.00  0.00    +0.066 C 
ATOM     22  C   UNL     1       6.831   6.016 -10.112  0.00  0.00    +0.165 C 
ATOM     23  O   UNL     1       6.795   5.479  -9.007  0.00  0.00    -0.295 OA
ENDBRANCH  15  16
ENDBRANCH   1  15
TORSDOF 4
ENDMDL
MODEL 8
REMARK VINA RESULT:      -7.7      4.602      6.698
REMARK  Name = 
REMARK  4 active torsions:
REMARK  status: ('A' for Active; 'I' for Inactive)
REMARK    1  A    between atoms: C_2  and  C_3
REMARK    2  A    between atoms: C_2  and  C_16
REMARK    3  A    between atoms: C_6  and  C_7
REMARK    4  A    between atoms: C_12  and  N_13
REMARK                            x       y       z     vdW  Elec       q    Type
REMARK                         _______ _______ _______ _____ _____    ______ ____
ROOT
ATOM      1  C   UNL     1       4.471   5.602  -9.801  0.00  0.00    +0.105 A 
ATOM      2  C   UNL     1       3.189   5.934  -9.393  0.00  0.00    +0.293 A 
ATOM      3  C   UNL     1       2.955   6.007  -8.033  0.00  0.00    +0.079 A 
ATOM      4  C   UNL     1       3.974   5.915  -7.096  0.00  0.00    +0.078 A 
ATOM      5  C   UNL     1       5.169   5.363  -7.511  0.00  0.00    +0.004 A 
ATOM      6  C   UNL     1       5.431   5.309  -8.868  0.00  0.00    +0.009 A 
ENDROOT
BRANCH   4   7
ATOM      7  C   UNL     1       3.615   6.098  -5.674  0.00  0.00    +0.419 C 
ATOM      8  F   UNL     1       2.500   5.345  -5.331  0.00  0.00    -0.166 F 
ATOM      9  F   UNL     1       4.660   5.708  -4.845  0.00  0.00    -0.166 F 
ATOM     10  F   UNL     1       3.342   7.442  -5.501  0.00  0.00    -0.166 F 
ENDBRANCH   4   7
BRANCH   2  11
ATOM     11  N   UNL     1       2.141   5.533 -10.284  0.00  0.00    +0.081 N 
ATOM     12  O   UNL     1       1.370   6.563 -10.797  0.00  0.00    -0.576 OA
ATOM     13  O   UNL     1       1.507   4.518  -9.898  0.00  0.00    +0.041 OA
ENDBRANCH   2  11
BRANCH   1  15
ATOM     14  O   UNL     1       4.585   7.117 -11.596  0.00  0.00    -0.290 OA
ATOM     15  C   UNL     1       4.857   5.959 -11.152  0.00  0.00    +0.193 C 
BRANCH  15  16
ATOM     16  C   UNL     1       5.537   5.060 -12.103  0.00  0.00    +0.176 C 
ATOM     17  C   UNL     1       7.006   5.357 -12.212  0.00  0.00    +0.165 C 
ATOM     18  O   UNL     1       7.663   4.468 -12.752  0.00  0.00    -0.295 OA
ATOM     19  C   UNL     1       7.321   6.743 -12.697  0.00  0.00    +0.066 C 
ATOM     20  C   UNL     1       6.889   6.752 -14.157  0.00  0.00    +0.016 C 
ATOM     21  C   UNL     1       5.443   6.403 -14.335  0.00  0.00    +0.066 C 
ATOM     22  C   UNL     1       5.002   5.262 -13.491  0.00  0.00    +0.165 C 
ATOM     23  O   UNL     1       3.880   4.818 -13.726  0.00  0.00    -0.295 OA
ENDBRANCH  15  16
ENDBRANCH   1  15
TORSDOF 4
ENDMDL
MODEL 9
REMARK VINA RESULT:      -7.6      6.315      8.775
REMARK  Name = 
REMARK  4 active torsions:
REMARK  status: ('A' for Active; 'I' for Inactive)
REMARK    1  A    between atoms: C_2  and  C_3
REMARK    2  A    between atoms: C_2  and  C_16
REMARK    3  A    between atoms: C_6  and  C_7
REMARK    4  A    between atoms: C_12  and  N_13
REMARK                            x       y       z     vdW  Elec       q    Type
REMARK                         _______ _______ _______ _____ _____    ______ ____
ROOT
ATOM      1  C   UNL     1       3.803   5.995 -10.535  0.00  0.00    +0.105 A 
ATOM      2  C   UNL     1       3.685   5.591 -11.856  0.00  0.00    +0.293 A 
ATOM      3  C   UNL     1       4.847   5.508 -12.601  0.00  0.00    +0.079 A 
ATOM      4  C   UNL     1       6.106   5.659 -12.036  0.00  0.00    +0.078 A 
ATOM      5  C   UNL     1       6.177   6.278 -10.804  0.00  0.00    +0.004 A 
ATOM      6  C   UNL     1       5.030   6.344 -10.034  0.00  0.00    +0.009 A 
ENDROOT
BRANCH   4   7
ATOM      7  C   UNL     1       7.277   5.459 -12.914  0.00  0.00    +0.419 C 
ATOM      8  F   UNL     1       6.895   5.067 -14.190  0.00  0.00    -0.166 F 
ATOM      9  F   UNL     1       8.012   6.632 -13.034  0.00  0.00    -0.166 F 
ATOM     10  F   UNL     1       8.047   4.468 -12.333  0.00  0.00    -0.166 F 
ENDBRANCH   4   7
BRANCH   2  11
ATOM     11  N   UNL     1       2.446   5.930 -12.491  0.00  0.00    +0.081 N 
ATOM     12  O   UNL     1       1.478   4.940 -12.474  0.00  0.00    -0.576 OA
ATOM     13  O   UNL     1       2.584   6.538 -13.583  0.00  0.00    +0.041 OA
ENDBRANCH   2  11
BRANCH   1  15
ATOM     14  O   UNL     1       2.482   4.439  -9.368  0.00  0.00    -0.290 OA
ATOM     15  C   UNL     1       2.720   5.658  -9.633  0.00  0.00    +0.193 C 
BRANCH  15  16
ATOM     16  C   UNL     1       1.818   6.632  -8.993  0.00  0.00    +0.176 C 
ATOM     17  C   UNL     1       2.534   7.497  -7.995  0.00  0.00    +0.165 C 
ATOM     18  O   UNL     1       1.910   8.502  -7.657  0.00  0.00    -0.295 OA
ATOM     19  C   UNL     1       3.154   6.739  -6.856  0.00  0.00    +0.066 C 
ATOM     20  C   UNL     1       1.975   6.227  -6.041  0.00  0.00    +0.016 C 
ATOM     21  C   UNL     1       1.040   5.377  -6.846  0.00  0.00    +0.066 C 
ATOM     22  C   UNL     1       0.759   5.925  -8.198  0.00  0.00    +0.165 C 
ATOM     23  O   UNL     1      -0.136   5.368  -8.831  0.00  0.00    -0.295 OA
ENDBRANCH  15  16
ENDBRANCH   1  15
TORSDOF 4
ENDMDL
