MODEL 1
REMARK VINA RESULT:     -10.6      0.000      0.000
REMARK  Name = 
REMARK  6 active torsions:
REMARK  status: ('A' for Active; 'I' for Inactive)
REMARK    1  A    between atoms: C_5  and  N_6
REMARK    2  A    between atoms: C_7  and  C_9
REMARK    3  A    between atoms: C_12  and  C_13
REMARK    4  A    between atoms: C_13  and  N_14
REMARK    5  A    between atoms: C_24  and  N_25
REMARK    6  A    between atoms: C_30  and  C_31
REMARK                            x       y       z     vdW  Elec       q    Type
REMARK                         _______ _______ _______ _____ _____    ______ ____
ROOT
ATOM      1  C   UNL     1      -2.065   8.168  -4.056  0.00  0.00    +0.032 C 
ATOM      2  C   UNL     1      -1.725   6.779  -4.499  0.00  0.00    -0.006 A 
ATOM      3  C   UNL     1      -0.664   6.072  -3.948  0.00  0.00    +0.071 A 
ATOM      4  C   UNL     1       0.216   5.367  -4.759  0.00  0.00    +0.033 A 
ATOM      5  C   UNL     1      -0.029   5.212  -6.118  0.00  0.00    +0.075 A 
ATOM      6  C   UNL     1      -1.321   5.533  -6.520  0.00  0.00    +0.016 A 
ATOM      7  C   UNL     1      -2.147   6.343  -5.748  0.00  0.00    -0.002 A 
ENDROOT
BRANCH   3   8
ATOM      8  N   UNL     1      -0.390   6.332  -2.572  0.00  0.00    -0.178 NA
ATOM      9  C   UNL     1       0.827   5.974  -1.938  0.00  0.00    +0.241 A 
ATOM     10  N   UNL     1       1.834   6.854  -1.721  0.00  0.00    -0.212 NA
ATOM     11  C   UNL     1       3.055   6.454  -1.290  0.00  0.00    +0.087 A 
ATOM     12  C   UNL     1       3.198   5.080  -1.137  0.00  0.00    +0.040 A 
ATOM     13  C   UNL     1       2.062   4.294  -0.976  0.00  0.00    +0.103 A 
ATOM     14  N   UNL     1       0.848   4.870  -1.149  0.00  0.00    -0.211 NA
BRANCH  11  15
ATOM     15  C   UNL     1       3.961   7.401  -0.625  0.00  0.00    +0.037 A 
ATOM     16  C   UNL     1       4.666   6.933   0.466  0.00  0.00    +0.100 A 
ATOM     17  N   UNL     1       5.146   7.779   1.409  0.00  0.00    -0.242 NA
ATOM     18  C   UNL     1       4.449   8.915   1.653  0.00  0.00    +0.099 A 
ATOM     19  C   UNL     1       3.852   9.514   0.551  0.00  0.00    +0.021 A 
ATOM     20  C   UNL     1       3.600   8.743  -0.576  0.00  0.00    +0.005 A 
ENDBRANCH  11  15
ENDBRANCH   3   8
BRANCH   5  21
ATOM     21  N   UNL     1       1.014   5.178  -7.085  0.00  0.00    -0.175 NA
ATOM     22  C   UNL     1       2.201   4.406  -6.921  0.00  0.00    +0.269 C 
ATOM     23  O   UNL     1       2.067   3.324  -6.274  0.00  0.00    -0.268 OA
BRANCH  22  24
ATOM     24  C   UNL     1       3.319   4.479  -7.870  0.00  0.00    +0.055 A 
ATOM     25  C   UNL     1       4.502   5.108  -7.505  0.00  0.00    +0.004 A 
ATOM     26  C   UNL     1       5.254   5.784  -8.456  0.00  0.00    -0.003 A 
ATOM     27  C   UNL     1       4.848   5.882  -9.781  0.00  0.00    -0.006 A 
ATOM     28  C   UNL     1       3.848   4.999 -10.165  0.00  0.00    -0.003 A 
ATOM     29  C   UNL     1       3.153   4.251  -9.226  0.00  0.00    +0.004 A 
BRANCH  27  30
ATOM     30  C   UNL     1       5.076   7.129 -10.535  0.00  0.00    +0.099 C 
BRANCH  30  31
ATOM     31  N   UNL     1       6.234   7.112 -11.373  0.00  0.00    -0.267 NA
ATOM     32  C   UNL     1       7.448   6.728 -10.724  0.00  0.00    +0.090 C 
ATOM     33  C   UNL     1       7.814   5.282 -10.896  0.00  0.00    +0.090 C 
ATOM     34  N   UNL     1       7.943   5.050 -12.333  0.00  0.00    -0.269 NA
ATOM     35  C   UNL     1       8.820   6.110 -12.823  0.00  0.00    +0.090 C 
ATOM     36  C   UNL     1       6.614   5.201 -12.882  0.00  0.00    +0.090 C 
ATOM     37  C   UNL     1       6.036   6.569 -12.678  0.00  0.00    +0.090 C 
ENDBRANCH  30  31
ENDBRANCH  27  30
ENDBRANCH  22  24
ENDBRANCH   5  21
TORSDOF 6
ENDMDL
MODEL 2
REMARK VINA RESULT:     -10.5      1.723      2.273
REMARK  Name = 
REMARK  6 active torsions:
REMARK  status: ('A' for Active; 'I' for Inactive)
REMARK    1  A    between atoms: C_5  and  N_6
REMARK    2  A    between atoms: C_7  and  C_9
REMARK    3  A    between atoms: C_12  and  C_13
REMARK    4  A    between atoms: C_13  and  N_14
REMARK    5  A    between atoms: C_24  and  N_25
REMARK    6  A    between atoms: C_30  and  C_31
REMARK                            x       y       z     vdW  Elec       q    Type
REMARK                         _______ _______ _______ _____ _____    ______ ____
ROOT
ATOM      1  C   UNL     1      -2.368   7.411  -0.720  0.00  0.00    +0.032 C 
ATOM      2  C   UNL     1      -2.139   6.292  -1.687  0.00  0.00    -0.006 A 
ATOM      3  C   UNL     1      -0.879   5.744  -1.890  0.00  0.00    +0.071 A 
ATOM      4  C   UNL     1      -0.416   5.486  -3.175  0.00  0.00    +0.033 A 
ATOM      5  C   UNL     1      -1.255   5.610  -4.276  0.00  0.00    +0.075 A 
ATOM      6  C   UNL     1      -2.609   5.703  -3.975  0.00  0.00    +0.016 A 
ATOM      7  C   UNL     1      -3.052   6.083  -2.713  0.00  0.00    -0.002 A 
ENDROOT
BRANCH   3   8
ATOM      8  N   UNL     1      -0.018   5.722  -0.753  0.00  0.00    -0.178 NA
ATOM      9  C   UNL     1       1.384   5.919  -0.831  0.00  0.00    +0.241 A 
ATOM     10  N   UNL     1       1.980   7.103  -0.551  0.00  0.00    -0.212 NA
ATOM     11  C   UNL     1       3.291   7.325  -0.814  0.00  0.00    +0.087 A 
ATOM     12  C   UNL     1       3.950   6.267  -1.429  0.00  0.00    +0.040 A 
ATOM     13  C   UNL     1       3.425   4.985  -1.316  0.00  0.00    +0.103 A 
ATOM     14  N   UNL     1       2.197   4.835  -0.762  0.00  0.00    -0.211 NA
BRANCH  11  15
ATOM     15  C   UNL     1       4.025   8.386  -0.110  0.00  0.00    +0.037 A 
ATOM     16  C   UNL     1       4.482   8.093   1.160  0.00  0.00    +0.100 A 
ATOM     17  N   UNL     1       4.742   9.074   2.057  0.00  0.00    -0.242 NA
ATOM     18  C   UNL     1       4.001  10.206   1.989  0.00  0.00    +0.099 A 
ATOM     19  C   UNL     1       3.651  10.630   0.714  0.00  0.00    +0.021 A 
ATOM     20  C   UNL     1       3.652   9.707  -0.324  0.00  0.00    +0.005 A 
ENDBRANCH  11  15
ENDBRANCH   3   8
BRANCH   5  21
ATOM     21  N   UNL     1      -0.790   6.059  -5.545  0.00  0.00    -0.175 NA
ATOM     22  C   UNL     1       0.358   5.513  -6.190  0.00  0.00    +0.269 C 
ATOM     23  O   UNL     1       0.579   4.284  -5.968  0.00  0.00    -0.268 OA
BRANCH  22  24
ATOM     24  C   UNL     1       0.894   6.070  -7.437  0.00  0.00    +0.055 A 
ATOM     25  C   UNL     1       0.579   5.481  -8.654  0.00  0.00    +0.004 A 
ATOM     26  C   UNL     1       1.503   5.487  -9.691  0.00  0.00    -0.003 A 
ATOM     27  C   UNL     1       2.766   6.047  -9.547  0.00  0.00    -0.006 A 
ATOM     28  C   UNL     1       2.927   6.881  -8.450  0.00  0.00    -0.003 A 
ATOM     29  C   UNL     1       1.965   6.949  -7.454  0.00  0.00    +0.004 A 
BRANCH  27  30
ATOM     30  C   UNL     1       3.936   5.408 -10.180  0.00  0.00    +0.099 C 
BRANCH  30  31
ATOM     31  N   UNL     1       4.470   6.123 -11.297  0.00  0.00    -0.267 NA
ATOM     32  C   UNL     1       5.892   6.261 -11.307  0.00  0.00    +0.090 C 
ATOM     33  C   UNL     1       6.608   5.242 -12.146  0.00  0.00    +0.090 C 
ATOM     34  N   UNL     1       6.102   5.391 -13.509  0.00  0.00    -0.269 NA
ATOM     35  C   UNL     1       6.202   6.817 -13.810  0.00  0.00    +0.090 C 
ATOM     36  C   UNL     1       4.717   4.980 -13.466  0.00  0.00    +0.090 C 
ATOM     37  C   UNL     1       3.872   5.822 -12.557  0.00  0.00    +0.090 C 
ENDBRANCH  30  31
ENDBRANCH  27  30
ENDBRANCH  22  24
ENDBRANCH   5  21
TORSDOF 6
ENDMDL
MODEL 3
REMARK VINA RESULT:     -10.1      3.962     11.869
REMARK  Name = 
REMARK  6 active torsions:
REMARK  status: ('A' for Active; 'I' for Inactive)
REMARK    1  A    between atoms: C_5  and  N_6
REMARK    2  A    between atoms: C_7  and  C_9
REMARK    3  A    between atoms: C_12  and  C_13
REMARK    4  A    between atoms: C_13  and  N_14
REMARK    5  A    between atoms: C_24  and  N_25
REMARK    6  A    between atoms: C_30  and  C_31
REMARK                            x       y       z     vdW  Elec       q    Type
REMARK                         _______ _______ _______ _____ _____    ______ ____
ROOT
ATOM      1  C   UNL     1       6.625   7.346 -14.328  0.00  0.00    +0.032 C 
ATOM      2  C   UNL     1       6.475   6.275 -13.292  0.00  0.00    -0.006 A 
ATOM      3  C   UNL     1       5.278   5.598 -13.104  0.00  0.00    +0.071 A 
ATOM      4  C   UNL     1       4.782   5.374 -11.825  0.00  0.00    +0.033 A 
ATOM      5  C   UNL     1       5.542   5.671 -10.700  0.00  0.00    +0.075 A 
ATOM      6  C   UNL     1       6.891   5.903 -10.949  0.00  0.00    +0.016 A 
ATOM      7  C   UNL     1       7.352   6.246 -12.215  0.00  0.00    -0.002 A 
ENDROOT
BRANCH   3   8
ATOM      8  N   UNL     1       4.485   5.397 -14.273  0.00  0.00    -0.178 NA
ATOM      9  C   UNL     1       3.075   5.546 -14.295  0.00  0.00    +0.241 A 
ATOM     10  N   UNL     1       2.458   6.660 -14.756  0.00  0.00    -0.212 NA
ATOM     11  C   UNL     1       1.127   6.861 -14.594  0.00  0.00    +0.087 A 
ATOM     12  C   UNL     1       0.469   5.863 -13.884  0.00  0.00    +0.040 A 
ATOM     13  C   UNL     1       1.042   4.600 -13.803  0.00  0.00    +0.103 A 
ATOM     14  N   UNL     1       2.304   4.430 -14.268  0.00  0.00    -0.211 NA
BRANCH  11  15
ATOM     15  C   UNL     1       0.400   7.793 -15.467  0.00  0.00    +0.037 A 
ATOM     16  C   UNL     1      -0.088   7.286 -16.655  0.00  0.00    +0.100 A 
ATOM     17  N   UNL     1      -0.345   8.095 -17.712  0.00  0.00    -0.242 NA
ATOM     18  C   UNL     1       0.419   9.204 -17.861  0.00  0.00    +0.099 A 
ATOM     19  C   UNL     1       0.802   9.843 -16.690  0.00  0.00    +0.021 A 
ATOM     20  C   UNL     1       0.803   9.123 -15.502  0.00  0.00    +0.005 A 
ENDBRANCH  11  15
ENDBRANCH   3   8
BRANCH   5  21
ATOM     21  N   UNL     1       4.964   6.147  -9.490  0.00  0.00    -0.175 NA
ATOM     22  C   UNL     1       4.011   5.401  -8.738  0.00  0.00    +0.269 C 
ATOM     23  O   UNL     1       4.142   4.141  -8.782  0.00  0.00    -0.268 OA
BRANCH  22  24
ATOM     24  C   UNL     1       3.335   5.957  -7.560  0.00  0.00    +0.055 A 
ATOM     25  C   UNL     1       3.485   5.351  -6.320  0.00  0.00    +0.004 A 
ATOM     26  C   UNL     1       2.441   5.366  -5.406  0.00  0.00    -0.003 A 
ATOM     27  C   UNL     1       1.215   5.951  -5.698  0.00  0.00    -0.006 A 
ATOM     28  C   UNL     1       1.206   6.798  -6.798  0.00  0.00    -0.003 A 
ATOM     29  C   UNL     1       2.285   6.856  -7.666  0.00  0.00    +0.004 A 
BRANCH  27  30
ATOM     30  C   UNL     1      -0.035   5.329  -5.222  0.00  0.00    +0.099 C 
BRANCH  30  31
ATOM     31  N   UNL     1      -0.741   6.092  -4.242  0.00  0.00    -0.267 NA
ATOM     32  C   UNL     1      -2.166   6.038  -4.338  0.00  0.00    +0.090 C 
ATOM     33  C   UNL     1      -2.812   5.038  -3.422  0.00  0.00    +0.090 C 
ATOM     34  N   UNL     1      -2.437   5.413  -2.061  0.00  0.00    -0.269 NA
ATOM     35  C   UNL     1      -2.739   6.838  -1.951  0.00  0.00    +0.090 C 
ATOM     36  C   UNL     1      -1.012   5.190  -1.964  0.00  0.00    +0.090 C 
ATOM     37  C   UNL     1      -0.212   6.025  -2.918  0.00  0.00    +0.090 C 
ENDBRANCH  30  31
ENDBRANCH  27  30
ENDBRANCH  22  24
ENDBRANCH   5  21
TORSDOF 6
ENDMDL
MODEL 4
REMARK VINA RESULT:     -10.1      3.678     11.877
REMARK  Name = 
REMARK  6 active torsions:
REMARK  status: ('A' for Active; 'I' for Inactive)
REMARK    1  A    between atoms: C_5  and  N_6
REMARK    2  A    between atoms: C_7  and  C_9
REMARK    3  A    between atoms: C_12  and  C_13
REMARK    4  A    between atoms: C_13  and  N_14
REMARK    5  A    between atoms: C_24  and  N_25
REMARK    6  A    between atoms: C_30  and  C_31
REMARK                            x       y       z     vdW  Elec       q    Type
REMARK                         _______ _______ _______ _____ _____    ______ ____
ROOT
ATOM      1  C   UNL     1       6.618   7.229 -12.497  0.00  0.00    +0.032 C 
ATOM      2  C   UNL     1       6.035   6.156 -11.632  0.00  0.00    -0.006 A 
ATOM      3  C   UNL     1       4.842   5.521 -11.953  0.00  0.00    +0.071 A 
ATOM      4  C   UNL     1       3.869   5.305 -10.985  0.00  0.00    +0.033 A 
ATOM      5  C   UNL     1       4.125   5.563  -9.643  0.00  0.00    +0.075 A 
ATOM      6  C   UNL     1       5.467   5.747  -9.327  0.00  0.00    +0.016 A 
ATOM      7  C   UNL     1       6.406   6.084 -10.295  0.00  0.00    -0.002 A 
ENDROOT
BRANCH   3   8
ATOM      8  N   UNL     1       4.577   5.360 -13.346  0.00  0.00    -0.178 NA
ATOM      9  C   UNL     1       3.307   5.594 -13.931  0.00  0.00    +0.241 A 
ATOM     10  N   UNL     1       2.994   6.741 -14.582  0.00  0.00    -0.212 NA
ATOM     11  C   UNL     1       1.724   7.023 -14.966  0.00  0.00    +0.087 A 
ATOM     12  C   UNL     1       0.780   6.072 -14.599  0.00  0.00    +0.040 A 
ATOM     13  C   UNL     1       1.196   4.777 -14.316  0.00  0.00    +0.103 A 
ATOM     14  N   UNL     1       2.526   4.528 -14.237  0.00  0.00    -0.211 NA
BRANCH  11  15
ATOM     15  C   UNL     1       1.467   7.991 -16.041  0.00  0.00    +0.037 A 
ATOM     16  C   UNL     1       2.401   8.064 -17.055  0.00  0.00    +0.100 A 
ATOM     17  N   UNL     1       2.529   9.178 -17.815  0.00  0.00    -0.242 NA
ATOM     18  C   UNL     1       2.251  10.373 -17.238  0.00  0.00    +0.099 A 
ATOM     19  C   UNL     1       1.206  10.381 -16.324  0.00  0.00    +0.021 A 
ATOM     20  C   UNL     1       0.833   9.187 -15.721  0.00  0.00    +0.005 A 
ENDBRANCH  11  15
ENDBRANCH   3   8
BRANCH   5  21
ATOM     21  N   UNL     1       3.126   6.050  -8.754  0.00  0.00    -0.175 NA
ATOM     22  C   UNL     1       1.865   5.409  -8.576  0.00  0.00    +0.269 C 
ATOM     23  O   UNL     1       1.867   4.148  -8.703  0.00  0.00    -0.268 OA
BRANCH  22  24
ATOM     24  C   UNL     1       0.801   5.991  -7.749  0.00  0.00    +0.055 A 
ATOM     25  C   UNL     1       1.116   6.903  -6.751  0.00  0.00    +0.004 A 
ATOM     26  C   UNL     1       0.362   6.948  -5.586  0.00  0.00    -0.003 A 
ATOM     27  C   UNL     1      -0.700   6.081  -5.362  0.00  0.00    -0.006 A 
ATOM     28  C   UNL     1      -1.169   5.411  -6.483  0.00  0.00    -0.003 A 
ATOM     29  C   UNL     1      -0.467   5.437  -7.679  0.00  0.00    +0.004 A 
BRANCH  27  30
ATOM     30  C   UNL     1      -0.942   5.540  -4.011  0.00  0.00    +0.099 C 
BRANCH  30  31
ATOM     31  N   UNL     1      -0.834   6.502  -2.959  0.00  0.00    -0.267 NA
ATOM     32  C   UNL     1      -2.009   7.279  -2.722  0.00  0.00    +0.090 C 
ATOM     33  C   UNL     1      -2.876   6.770  -1.606  0.00  0.00    +0.090 C 
ATOM     34  N   UNL     1      -2.049   6.770  -0.401  0.00  0.00    -0.269 NA
ATOM     35  C   UNL     1      -1.448   8.099  -0.339  0.00  0.00    +0.090 C 
ATOM     36  C   UNL     1      -1.033   5.765  -0.616  0.00  0.00    +0.090 C 
ATOM     37  C   UNL     1      -0.148   6.053  -1.791  0.00  0.00    +0.090 C 
ENDBRANCH  30  31
ENDBRANCH  27  30
ENDBRANCH  22  24
ENDBRANCH   5  21
TORSDOF 6
ENDMDL
MODEL 5
REMARK VINA RESULT:      -9.9      3.795     11.325
REMARK  Name = 
REMARK  6 active torsions:
REMARK  status: ('A' for Active; 'I' for Inactive)
REMARK    1  A    between atoms: C_5  and  N_6
REMARK    2  A    between atoms: C_7  and  C_9
REMARK    3  A    between atoms: C_12  and  C_13
REMARK    4  A    between atoms: C_13  and  N_14
REMARK    5  A    between atoms: C_24  and  N_25
REMARK    6  A    between atoms: C_30  and  C_31
REMARK                            x       y       z     vdW  Elec       q    Type
REMARK                         _______ _______ _______ _____ _____    ______ ____
ROOT
ATOM      1  C   UNL     1       6.786   7.434 -12.785  0.00  0.00    +0.032 C 
ATOM      2  C   UNL     1       6.297   6.284 -11.960  0.00  0.00    -0.006 A 
ATOM      3  C   UNL     1       5.048   5.712 -12.165  0.00  0.00    +0.071 A 
ATOM      4  C   UNL     1       4.221   5.409 -11.091  0.00  0.00    +0.033 A 
ATOM      5  C   UNL     1       4.679   5.514  -9.783  0.00  0.00    +0.075 A 
ATOM      6  C   UNL     1       6.058   5.636  -9.653  0.00  0.00    +0.016 A 
ATOM      7  C   UNL     1       6.857   6.059 -10.709  0.00  0.00    -0.002 A 
ENDROOT
BRANCH   3   8
ATOM      8  N   UNL     1       4.578   5.709 -13.512  0.00  0.00    -0.178 NA
ATOM      9  C   UNL     1       3.210   5.570 -13.861  0.00  0.00    +0.241 A 
ATOM     10  N   UNL     1       2.420   6.622 -14.183  0.00  0.00    -0.212 NA
ATOM     11  C   UNL     1       1.078   6.492 -14.327  0.00  0.00    +0.087 A 
ATOM     12  C   UNL     1       0.585   5.218 -14.072  0.00  0.00    +0.040 A 
ATOM     13  C   UNL     1       1.446   4.129 -14.152  0.00  0.00    +0.103 A 
ATOM     14  N   UNL     1       2.772   4.364 -14.302  0.00  0.00    -0.211 NA
BRANCH  11  15
ATOM     15  C   UNL     1       0.311   7.473 -15.107  0.00  0.00    +0.037 A 
ATOM     16  C   UNL     1      -0.407   6.992 -16.184  0.00  0.00    +0.100 A 
ATOM     17  N   UNL     1      -0.754   7.800 -17.215  0.00  0.00    -0.242 NA
ATOM     18  C   UNL     1       0.078   8.824 -17.524  0.00  0.00    +0.099 A 
ATOM     19  C   UNL     1       0.704   9.447 -16.452  0.00  0.00    +0.021 A 
ATOM     20  C   UNL     1       0.828   8.755 -15.254  0.00  0.00    +0.005 A 
ENDBRANCH  11  15
ENDBRANCH   3   8
BRANCH   5  21
ATOM     21  N   UNL     1       3.838   5.920  -8.708  0.00  0.00    -0.175 NA
ATOM     22  C   UNL     1       2.767   5.119  -8.215  0.00  0.00    +0.269 C 
ATOM     23  O   UNL     1       2.941   3.866  -8.284  0.00  0.00    -0.268 OA
BRANCH  22  24
ATOM     24  C   UNL     1       1.835   5.604  -7.190  0.00  0.00    +0.055 A 
ATOM     25  C   UNL     1       2.114   6.772  -6.492  0.00  0.00    +0.004 A 
ATOM     26  C   UNL     1       1.716   6.905  -5.169  0.00  0.00    -0.003 A 
ATOM     27  C   UNL     1       1.060   5.884  -4.492  0.00  0.00    -0.006 A 
ATOM     28  C   UNL     1       0.534   4.879  -5.292  0.00  0.00    -0.003 A 
ATOM     29  C   UNL     1       0.856   4.794  -6.638  0.00  0.00    +0.004 A 
BRANCH  27  30
ATOM     30  C   UNL     1       1.355   5.630  -3.069  0.00  0.00    +0.099 C 
BRANCH  30  31
ATOM     31  N   UNL     1       2.605   6.158  -2.619  0.00  0.00    -0.267 NA
ATOM     32  C   UNL     1       2.514   7.137  -1.582  0.00  0.00    +0.090 C 
ATOM     33  C   UNL     1       2.717   6.594  -0.196  0.00  0.00    +0.090 C 
ATOM     34  N   UNL     1       4.048   5.992  -0.173  0.00  0.00    -0.269 NA
ATOM     35  C   UNL     1       4.946   7.005  -0.722  0.00  0.00    +0.090 C 
ATOM     36  C   UNL     1       3.982   4.846  -1.052  0.00  0.00    +0.090 C 
ATOM     37  C   UNL     1       3.653   5.201  -2.471  0.00  0.00    +0.090 C 
ENDBRANCH  30  31
ENDBRANCH  27  30
ENDBRANCH  22  24
ENDBRANCH   5  21
TORSDOF 6
ENDMDL
MODEL 6
REMARK VINA RESULT:      -9.9      3.756      6.856
REMARK  Name = 
REMARK  6 active torsions:
REMARK  status: ('A' for Active; 'I' for Inactive)
REMARK    1  A    between atoms: C_5  and  N_6
REMARK    2  A    between atoms: C_7  and  C_9
REMARK    3  A    between atoms: C_12  and  C_13
REMARK    4  A    between atoms: C_13  and  N_14
REMARK    5  A    between atoms: C_24  and  N_25
REMARK    6  A    between atoms: C_30  and  C_31
REMARK                            x       y       z     vdW  Elec       q    Type
REMARK                         _______ _______ _______ _____ _____    ______ ____
ROOT
ATOM      1  C   UNL     1      -1.009  10.625   3.213  0.00  0.00    +0.032 C 
ATOM      2  C   UNL     1      -1.138   9.234   2.676  0.00  0.00    -0.006 A 
ATOM      3  C   UNL     1      -0.140   8.648   1.908  0.00  0.00    +0.071 A 
ATOM      4  C   UNL     1      -0.455   7.947   0.750  0.00  0.00    +0.033 A 
ATOM      5  C   UNL     1      -1.776   7.670   0.418  0.00  0.00    +0.075 A 
ATOM      6  C   UNL     1      -2.692   7.867   1.445  0.00  0.00    +0.016 A 
ATOM      7  C   UNL     1      -2.401   8.672   2.540  0.00  0.00    -0.002 A 
ENDROOT
BRANCH   3   8
ATOM      8  N   UNL     1       1.197   9.033   2.224  0.00  0.00    -0.178 NA
ATOM      9  C   UNL     1       2.152   9.413   1.246  0.00  0.00    +0.241 A 
ATOM     10  N   UNL     1       2.448  10.705   0.966  0.00  0.00    -0.212 NA
ATOM     11  C   UNL     1       3.217  11.049  -0.097  0.00  0.00    +0.087 A 
ATOM     12  C   UNL     1       3.630   9.983  -0.887  0.00  0.00    +0.040 A 
ATOM     13  C   UNL     1       3.649   8.704  -0.344  0.00  0.00    +0.103 A 
ATOM     14  N   UNL     1       3.099   8.513   0.880  0.00  0.00    -0.211 NA
BRANCH  11  15
ATOM     15  C   UNL     1       3.905  12.347  -0.131  0.00  0.00    +0.037 A 
ATOM     16  C   UNL     1       4.011  12.966  -1.361  0.00  0.00    +0.100 A 
ATOM     17  N   UNL     1       4.980  13.882  -1.606  0.00  0.00    -0.242 NA
ATOM     18  C   UNL     1       6.162  13.740  -0.960  0.00  0.00    +0.099 A 
ATOM     19  C   UNL     1       6.093  13.268   0.344  0.00  0.00    +0.021 A 
ATOM     20  C   UNL     1       4.966  12.560   0.742  0.00  0.00    +0.005 A 
ENDBRANCH  11  15
ENDBRANCH   3   8
BRANCH   5  21
ATOM     21  N   UNL     1      -2.235   7.636  -0.929  0.00  0.00    -0.175 NA
ATOM     22  C   UNL     1      -2.146   6.474  -1.751  0.00  0.00    +0.269 C 
ATOM     23  O   UNL     1      -2.249   5.365  -1.146  0.00  0.00    -0.268 OA
BRANCH  22  24
ATOM     24  C   UNL     1      -2.511   6.492  -3.172  0.00  0.00    +0.055 A 
ATOM     25  C   UNL     1      -2.993   5.342  -3.782  0.00  0.00    +0.004 A 
ATOM     26  C   UNL     1      -2.711   5.090  -5.117  0.00  0.00    -0.003 A 
ATOM     27  C   UNL     1      -1.926   5.947  -5.878  0.00  0.00    -0.006 A 
ATOM     28  C   UNL     1      -1.727   7.210  -5.338  0.00  0.00    -0.003 A 
ATOM     29  C   UNL     1      -2.091   7.496  -4.031  0.00  0.00    +0.004 A 
BRANCH  27  30
ATOM     30  C   UNL     1      -0.983   5.401  -6.872  0.00  0.00    +0.099 C 
BRANCH  30  31
ATOM     31  N   UNL     1       0.387   5.728  -6.632  0.00  0.00    -0.267 NA
ATOM     32  C   UNL     1       1.076   4.848  -5.742  0.00  0.00    +0.090 C 
ATOM     33  C   UNL     1       1.882   3.780  -6.424  0.00  0.00    +0.090 C 
ATOM     34  N   UNL     1       2.856   4.466  -7.270  0.00  0.00    -0.269 NA
ATOM     35  C   UNL     1       3.497   5.454  -6.406  0.00  0.00    +0.090 C 
ATOM     36  C   UNL     1       2.092   5.122  -8.306  0.00  0.00    +0.090 C 
ATOM     37  C   UNL     1       1.126   6.142  -7.781  0.00  0.00    +0.090 C 
ENDBRANCH  30  31
ENDBRANCH  27  30
ENDBRANCH  22  24
ENDBRANCH   5  21
TORSDOF 6
ENDMDL
MODEL 7
REMARK VINA RESULT:      -9.7      2.965      4.669
REMARK  Name = 
REMARK  6 active torsions:
REMARK  status: ('A' for Active; 'I' for Inactive)
REMARK    1  A    between atoms: C_5  and  N_6
REMARK    2  A    between atoms: C_7  and  C_9
REMARK    3  A    between atoms: C_12  and  C_13
REMARK    4  A    between atoms: C_13  and  N_14
REMARK    5  A    between atoms: C_24  and  N_25
REMARK    6  A    between atoms: C_30  and  C_31
REMARK                            x       y       z     vdW  Elec       q    Type
REMARK                         _______ _______ _______ _____ _____    ______ ____
ROOT
ATOM      1  C   UNL     1       0.385   5.892  -7.772  0.00  0.00    +0.032 C 
ATOM      2  C   UNL     1       1.693   5.231  -7.468  0.00  0.00    -0.006 A 
ATOM      3  C   UNL     1       2.689   5.872  -6.742  0.00  0.00    +0.071 A 
ATOM      4  C   UNL     1       4.013   5.824  -7.159  0.00  0.00    +0.033 A 
ATOM      5  C   UNL     1       4.404   5.003  -8.210  0.00  0.00    +0.075 A 
ATOM      6  C   UNL     1       3.468   4.046  -8.586  0.00  0.00    +0.016 A 
ATOM      7  C   UNL     1       2.122   4.174  -8.262  0.00  0.00    -0.002 A 
ENDROOT
BRANCH   3   8
ATOM      8  N   UNL     1       2.241   6.777  -5.735  0.00  0.00    -0.178 NA
ATOM      9  C   UNL     1       1.763   6.359  -4.466  0.00  0.00    +0.241 A 
ATOM     10  N   UNL     1       2.527   6.379  -3.347  0.00  0.00    -0.212 NA
ATOM     11  C   UNL     1       2.118   5.800  -2.191  0.00  0.00    +0.087 A 
ATOM     12  C   UNL     1       0.889   5.155  -2.265  0.00  0.00    +0.040 A 
ATOM     13  C   UNL     1      -0.003   5.508  -3.271  0.00  0.00    +0.103 A 
ATOM     14  N   UNL     1       0.424   6.343  -4.250  0.00  0.00    -0.211 NA
BRANCH  11  15
ATOM     15  C   UNL     1       2.696   6.211  -0.904  0.00  0.00    +0.037 A 
ATOM     16  C   UNL     1       2.117   7.295  -0.275  0.00  0.00    +0.100 A 
ATOM     17  N   UNL     1       2.806   8.036   0.626  0.00  0.00    -0.242 NA
ATOM     18  C   UNL     1       4.146   8.150   0.460  0.00  0.00    +0.099 A 
ATOM     19  C   UNL     1       4.799   7.024  -0.023  0.00  0.00    +0.021 A 
ATOM     20  C   UNL     1       4.066   6.069  -0.716  0.00  0.00    +0.005 A 
ENDBRANCH  11  15
ENDBRANCH   3   8
BRANCH   5  21
ATOM     21  N   UNL     1       5.435   5.366  -9.122  0.00  0.00    -0.175 NA
ATOM     22  C   UNL     1       5.185   6.065 -10.339  0.00  0.00    +0.269 C 
ATOM     23  O   UNL     1       4.212   6.877 -10.315  0.00  0.00    -0.268 OA
BRANCH  22  24
ATOM     24  C   UNL     1       6.242   6.323 -11.324  0.00  0.00    +0.055 A 
ATOM     25  C   UNL     1       6.313   7.554 -11.962  0.00  0.00    +0.004 A 
ATOM     26  C   UNL     1       6.768   7.635 -13.271  0.00  0.00    -0.003 A 
ATOM     27  C   UNL     1       7.136   6.506 -13.994  0.00  0.00    -0.006 A 
ATOM     28  C   UNL     1       7.343   5.359 -13.241  0.00  0.00    -0.003 A 
ATOM     29  C   UNL     1       6.975   5.301 -11.906  0.00  0.00    +0.004 A 
BRANCH  27  30
ATOM     30  C   UNL     1       6.821   6.412 -15.432  0.00  0.00    +0.099 C 
BRANCH  30  31
ATOM     31  N   UNL     1       6.335   7.624 -16.013  0.00  0.00    -0.267 NA
ATOM     32  C   UNL     1       7.244   8.282 -16.899  0.00  0.00    +0.090 C 
ATOM     33  C   UNL     1       7.020   7.982 -18.353  0.00  0.00    +0.090 C 
ATOM     34  N   UNL     1       5.657   8.406 -18.663  0.00  0.00    -0.269 NA
ATOM     35  C   UNL     1       5.545   9.770 -18.151  0.00  0.00    +0.090 C 
ATOM     36  C   UNL     1       4.786   7.518 -17.927  0.00  0.00    +0.090 C 
ATOM     37  C   UNL     1       4.974   7.593 -16.441  0.00  0.00    +0.090 C 
ENDBRANCH  30  31
ENDBRANCH  27  30
ENDBRANCH  22  24
ENDBRANCH   5  21
TORSDOF 6
ENDMDL
MODEL 8
REMARK VINA RESULT:      -9.5      3.860      5.939
REMARK  Name = 
REMARK  6 active torsions:
REMARK  status: ('A' for Active; 'I' for Inactive)
REMARK    1  A    between atoms: C_5  and  N_6
REMARK    2  A    between atoms: C_7  and  C_9
REMARK    3  A    between atoms: C_12  and  C_13
REMARK    4  A    between atoms: C_13  and  N_14
REMARK    5  A    between atoms: C_24  and  N_25
REMARK    6  A    between atoms: C_30  and  C_31
REMARK                            x       y       z     vdW  Elec       q    Type
REMARK                         _______ _______ _______ _____ _____    ______ ____
ROOT
ATOM      1  C   UNL     1       2.071   8.198   1.489  0.00  0.00    +0.032 C 
ATOM      2  C   UNL     1       3.233   8.149   0.548  0.00  0.00    -0.006 A 
ATOM      3  C   UNL     1       3.380   9.064  -0.486  0.00  0.00    +0.071 A 
ATOM      4  C   UNL     1       3.739   8.643  -1.760  0.00  0.00    +0.033 A 
ATOM      5  C   UNL     1       4.121   7.328  -1.999  0.00  0.00    +0.075 A 
ATOM      6  C   UNL     1       4.403   6.583  -0.860  0.00  0.00    +0.016 A 
ATOM      7  C   UNL     1       3.932   6.957   0.393  0.00  0.00    -0.002 A 
ENDROOT
BRANCH   3   8
ATOM      8  N   UNL     1       2.890  10.378  -0.229  0.00  0.00    -0.178 NA
ATOM      9  C   UNL     1       3.732  11.507  -0.062  0.00  0.00    +0.241 A 
ATOM     10  N   UNL     1       3.973  12.402  -1.051  0.00  0.00    -0.212 NA
ATOM     11  C   UNL     1       4.924  13.361  -0.933  0.00  0.00    +0.087 A 
ATOM     12  C   UNL     1       5.651  13.319   0.251  0.00  0.00    +0.040 A 
ATOM     13  C   UNL     1       5.108  12.676   1.357  0.00  0.00    +0.103 A 
ATOM     14  N   UNL     1       3.969  11.961   1.195  0.00  0.00    -0.211 NA
BRANCH  11  15
ATOM     15  C   UNL     1       4.869  14.573  -1.761  0.00  0.00    +0.037 A 
ATOM     16  C   UNL     1       5.649  14.589  -2.900  0.00  0.00    +0.100 A 
ATOM     17  N   UNL     1       6.040  15.756  -3.468  0.00  0.00    -0.242 NA
ATOM     18  C   UNL     1       6.236  16.821  -2.655  0.00  0.00    +0.099 A 
ATOM     19  C   UNL     1       5.367  16.935  -1.578  0.00  0.00    +0.021 A 
ATOM     20  C   UNL     1       4.701  15.801  -1.131  0.00  0.00    +0.005 A 
ENDBRANCH  11  15
ENDBRANCH   3   8
BRANCH   5  21
ATOM     21  N   UNL     1       3.821   6.654  -3.217  0.00  0.00    -0.175 NA
ATOM     22  C   UNL     1       4.091   7.211  -4.501  0.00  0.00    +0.269 C 
ATOM     23  O   UNL     1       5.108   7.964  -4.569  0.00  0.00    -0.268 OA
BRANCH  22  24
ATOM     24  C   UNL     1       3.664   6.556  -5.743  0.00  0.00    +0.055 A 
ATOM     25  C   UNL     1       4.484   5.615  -6.351  0.00  0.00    +0.004 A 
ATOM     26  C   UNL     1       4.498   5.493  -7.734  0.00  0.00    -0.003 A 
ATOM     27  C   UNL     1       3.730   6.311  -8.553  0.00  0.00    -0.006 A 
ATOM     28  C   UNL     1       2.715   7.010  -7.914  0.00  0.00    -0.003 A 
ATOM     29  C   UNL     1       2.641   7.060  -6.530  0.00  0.00    +0.004 A 
BRANCH  27  30
ATOM     30  C   UNL     1       4.268   6.786  -9.841  0.00  0.00    +0.099 C 
BRANCH  30  31
ATOM     31  N   UNL     1       5.326   5.985 -10.373  0.00  0.00    -0.267 NA
ATOM     32  C   UNL     1       5.257   5.741 -11.780  0.00  0.00    +0.090 C 
ATOM     33  C   UNL     1       6.098   6.666 -12.612  0.00  0.00    +0.090 C 
ATOM     34  N   UNL     1       7.478   6.496 -12.163  0.00  0.00    -0.269 NA
ATOM     35  C   UNL     1       7.716   5.055 -12.168  0.00  0.00    +0.090 C 
ATOM     36  C   UNL     1       7.523   7.010 -10.813  0.00  0.00    +0.090 C 
ATOM     37  C   UNL     1       6.627   6.275  -9.863  0.00  0.00    +0.090 C 
ENDBRANCH  30  31
ENDBRANCH  27  30
ENDBRANCH  22  24
ENDBRANCH   5  21
TORSDOF 6
ENDMDL
MODEL 9
REMARK VINA RESULT:      -9.4      4.480      9.604
REMARK  Name = 
REMARK  6 active torsions:
REMARK  status: ('A' for Active; 'I' for Inactive)
REMARK    1  A    between atoms: C_5  and  N_6
REMARK    2  A    between atoms: C_7  and  C_9
REMARK    3  A    between atoms: C_12  and  C_13
REMARK    4  A    between atoms: C_13  and  N_14
REMARK    5  A    between atoms: C_24  and  N_25
REMARK    6  A    between atoms: C_30  and  C_31
REMARK                            x       y       z     vdW  Elec       q    Type
REMARK                         _______ _______ _______ _____ _____    ______ ____
ROOT
ATOM      1  C   UNL     1       3.919   4.874  -2.735  0.00  0.00    +0.032 C 
ATOM      2  C   UNL     1       3.489   5.328  -1.375  0.00  0.00    -0.006 A 
ATOM      3  C   UNL     1       2.182   5.712  -1.109  0.00  0.00    +0.071 A 
ATOM      4  C   UNL     1       1.915   6.859  -0.372  0.00  0.00    +0.033 A 
ATOM      5  C   UNL     1       2.937   7.560   0.257  0.00  0.00    +0.075 A 
ATOM      6  C   UNL     1       4.146   6.878   0.347  0.00  0.00    +0.016 A 
ATOM      7  C   UNL     1       4.443   5.805  -0.485  0.00  0.00    -0.002 A 
ENDROOT
BRANCH   3   8
ATOM      8  N   UNL     1       1.169   5.029  -1.846  0.00  0.00    -0.178 NA
ATOM      9  C   UNL     1       0.591   5.540  -3.036  0.00  0.00    +0.241 A 
ATOM     10  N   UNL     1       0.969   5.137  -4.273  0.00  0.00    -0.212 NA
ATOM     11  C   UNL     1       0.544   5.771  -5.394  0.00  0.00    +0.087 A 
ATOM     12  C   UNL     1      -0.263   6.879  -5.167  0.00  0.00    +0.040 A 
ATOM     13  C   UNL     1      -0.932   6.993  -3.954  0.00  0.00    +0.103 A 
ATOM     14  N   UNL     1      -0.638   6.111  -2.967  0.00  0.00    -0.211 NA
BRANCH  11  15
ATOM     15  C   UNL     1       0.561   5.083  -6.693  0.00  0.00    +0.037 A 
ATOM     16  C   UNL     1       1.788   4.646  -7.153  0.00  0.00    +0.100 A 
ATOM     17  N   UNL     1       2.009   4.435  -8.473  0.00  0.00    -0.242 NA
ATOM     18  C   UNL     1       1.335   5.207  -9.359  0.00  0.00    +0.099 A 
ATOM     19  C   UNL     1       0.033   5.542  -9.010  0.00  0.00    +0.021 A 
ATOM     20  C   UNL     1      -0.337   5.491  -7.672  0.00  0.00    +0.005 A 
ENDBRANCH  11  15
ENDBRANCH   3   8
BRANCH   5  21
ATOM     21  N   UNL     1       2.924   8.977   0.391  0.00  0.00    -0.175 NA
ATOM     22  C   UNL     1       3.637   9.847  -0.485  0.00  0.00    +0.269 C 
ATOM     23  O   UNL     1       3.755   9.446  -1.681  0.00  0.00    -0.268 OA
BRANCH  22  24
ATOM     24  C   UNL     1       3.712  11.295  -0.259  0.00  0.00    +0.055 A 
ATOM     25  C   UNL     1       3.420  12.176  -1.292  0.00  0.00    +0.004 A 
ATOM     26  C   UNL     1       4.084  13.393  -1.378  0.00  0.00    -0.003 A 
ATOM     27  C   UNL     1       5.069  13.760  -0.470  0.00  0.00    -0.006 A 
ATOM     28  C   UNL     1       5.111  13.011   0.698  0.00  0.00    -0.003 A 
ATOM     29  C   UNL     1       4.379  11.841   0.826  0.00  0.00    +0.004 A 
BRANCH  27  30
ATOM     30  C   UNL     1       6.258  14.502  -0.927  0.00  0.00    +0.099 C 
BRANCH  30  31
ATOM     31  N   UNL     1       6.245  14.848  -2.314  0.00  0.00    -0.267 NA
ATOM     32  C   UNL     1       5.824  16.183  -2.604  0.00  0.00    +0.090 C 
ATOM     33  C   UNL     1       6.948  17.160  -2.797  0.00  0.00    +0.090 C 
ATOM     34  N   UNL     1       7.752  16.658  -3.909  0.00  0.00    -0.269 NA
ATOM     35  C   UNL     1       6.804  16.381  -4.985  0.00  0.00    +0.090 C 
ATOM     36  C   UNL     1       8.357  15.431  -3.441  0.00  0.00    +0.090 C 
ATOM     37  C   UNL     1       7.358  14.376  -3.072  0.00  0.00    +0.090 C 
ENDBRANCH  30  31
ENDBRANCH  27  30
ENDBRANCH  22  24
ENDBRANCH   5  21
TORSDOF 6
ENDMDL
