MODEL 1
REMARK VINA RESULT:      -7.0      0.000      0.000
REMARK  Name = 
REMARK  1 active torsions:
REMARK  status: ('A' for Active; 'I' for Inactive)
REMARK    1  A    between atoms: N_2  and  C_4
REMARK                            x       y       z     vdW  Elec       q    Type
REMARK                         _______ _______ _______ _____ _____    ______ ____
ROOT
ATOM      1  C   UNL     1      -0.329   5.877  -4.910  0.00  0.00    +0.049 A 
ATOM      2  C   UNL     1       0.204   6.928  -5.650  0.00  0.00    +0.023 A 
ATOM      3  C   UNL     1       1.509   6.901  -6.131  0.00  0.00    +0.048 A 
ATOM      4  C   UNL     1       2.316   5.817  -5.798  0.00  0.00    +0.087 A 
ATOM      5  N   UNL     1       3.483   5.558  -6.396  0.00  0.00    -0.244 NA
ATOM      6  C   UNL     1       3.732   5.712  -7.704  0.00  0.00    +0.088 A 
ATOM      7  C   UNL     1       3.279   6.914  -8.419  0.00  0.00    +0.053 A 
ATOM      8  C   UNL     1       3.439   6.957  -9.793  0.00  0.00    +0.077 A 
ATOM      9  C   UNL     1       3.948   5.891 -10.524  0.00  0.00    +0.222 A 
ATOM     10  N   UNL     1       3.508   5.603 -11.703  0.00  0.00    -0.177 N 
ATOM     11  C   UNL     1       2.246   6.112 -12.216  0.00  0.00    +0.403 C 
ATOM     12  C   UNL     1       4.530   5.277 -12.693  0.00  0.00    +0.403 C 
ATOM     13  C   UNL     1       4.443   4.826  -9.787  0.00  0.00    +0.070 A 
ATOM     14  C   UNL     1       4.583   4.871  -8.414  0.00  0.00    +0.026 A 
ATOM     15  C   UNL     1       1.962   5.173  -4.616  0.00  0.00    +0.021 A 
ATOM     16  S   UNL     1       2.042   7.722  -7.542  0.00  0.00    -0.084 S 
ATOM     17  C   UNL     1       0.625   5.125  -4.235  0.00  0.00    +0.016 A 
ENDROOT
BRANCH   1  19
ATOM     18  C   UNL     1      -2.283   5.745  -6.399  0.00  0.00    +0.112 C 
ATOM     19  N   UNL     1      -1.670   5.412  -5.116  0.00  0.00    -0.304 N 
ATOM     20  C   UNL     1      -2.542   5.588  -3.956  0.00  0.00    +0.112 C 
ENDBRANCH   1  19
TORSDOF 1
ENDMDL
MODEL 2
REMARK VINA RESULT:      -6.8      2.195      3.232
REMARK  Name = 
REMARK  1 active torsions:
REMARK  status: ('A' for Active; 'I' for Inactive)
REMARK    1  A    between atoms: N_2  and  C_4
REMARK                            x       y       z     vdW  Elec       q    Type
REMARK                         _______ _______ _______ _____ _____    ______ ____
ROOT
ATOM      1  C   UNL     1       0.696   5.998  -3.658  0.00  0.00    +0.049 A 
ATOM      2  C   UNL     1       1.206   4.880  -4.310  0.00  0.00    +0.023 A 
ATOM      3  C   UNL     1       1.071   4.705  -5.684  0.00  0.00    +0.048 A 
ATOM      4  C   UNL     1       0.344   5.648  -6.404  0.00  0.00    +0.087 A 
ATOM      5  N   UNL     1       0.356   5.725  -7.739  0.00  0.00    -0.244 NA
ATOM      6  C   UNL     1       1.435   5.541  -8.512  0.00  0.00    +0.088 A 
ATOM      7  C   UNL     1       2.361   4.427  -8.258  0.00  0.00    +0.053 A 
ATOM      8  C   UNL     1       3.528   4.365  -8.998  0.00  0.00    +0.077 A 
ATOM      9  C   UNL     1       3.888   5.342  -9.918  0.00  0.00    +0.222 A 
ATOM     10  N   UNL     1       5.117   5.701 -10.085  0.00  0.00    -0.177 N 
ATOM     11  C   UNL     1       6.161   5.398  -9.119  0.00  0.00    +0.403 C 
ATOM     12  C   UNL     1       5.540   5.868 -11.472  0.00  0.00    +0.403 C 
ATOM     13  C   UNL     1       2.935   6.314 -10.181  0.00  0.00    +0.070 A 
ATOM     14  C   UNL     1       1.643   6.242  -9.695  0.00  0.00    +0.026 A 
ATOM     15  C   UNL     1      -0.612   6.334  -5.660  0.00  0.00    +0.021 A 
ATOM     16  S   UNL     1       2.167   3.818  -6.663  0.00  0.00    -0.084 S 
ATOM     17  C   UNL     1      -0.378   6.588  -4.312  0.00  0.00    +0.016 A 
ENDROOT
BRANCH   1  19
ATOM     18  C   UNL     1       2.821   6.993  -2.918  0.00  0.00    +0.112 C 
ATOM     19  N   UNL     1       1.427   6.667  -2.622  0.00  0.00    -0.304 N 
ATOM     20  C   UNL     1       1.197   6.121  -1.286  0.00  0.00    +0.112 C 
ENDBRANCH   1  19
TORSDOF 1
ENDMDL
MODEL 3
REMARK VINA RESULT:      -6.8      1.501      6.602
REMARK  Name = 
REMARK  1 active torsions:
REMARK  status: ('A' for Active; 'I' for Inactive)
REMARK    1  A    between atoms: N_2  and  C_4
REMARK                            x       y       z     vdW  Elec       q    Type
REMARK                         _______ _______ _______ _____ _____    ______ ____
ROOT
ATOM      1  C   UNL     1       4.346   5.501 -10.556  0.00  0.00    +0.049 A 
ATOM      2  C   UNL     1       3.613   4.534  -9.878  0.00  0.00    +0.023 A 
ATOM      3  C   UNL     1       3.605   4.457  -8.488  0.00  0.00    +0.048 A 
ATOM      4  C   UNL     1       4.412   5.335  -7.771  0.00  0.00    +0.087 A 
ATOM      5  N   UNL     1       4.303   5.526  -6.453  0.00  0.00    -0.244 NA
ATOM      6  C   UNL     1       3.149   5.574  -5.773  0.00  0.00    +0.088 A 
ATOM      7  C   UNL     1       2.081   4.598  -6.034  0.00  0.00    +0.053 A 
ATOM      8  C   UNL     1       0.862   4.778  -5.405  0.00  0.00    +0.077 A 
ATOM      9  C   UNL     1       0.589   5.873  -4.594  0.00  0.00    +0.222 A 
ATOM     10  N   UNL     1      -0.577   6.428  -4.569  0.00  0.00    -0.177 N 
ATOM     11  C   UNL     1      -1.573   6.208  -5.605  0.00  0.00    +0.403 C 
ATOM     12  C   UNL     1      -1.080   6.774  -3.243  0.00  0.00    +0.403 C 
ATOM     13  C   UNL     1       1.661   6.707  -4.312  0.00  0.00    +0.070 A 
ATOM     14  C   UNL     1       2.959   6.397  -4.667  0.00  0.00    +0.026 A 
ATOM     15  C   UNL     1       5.523   5.802  -8.469  0.00  0.00    +0.021 A 
ATOM     16  S   UNL     1       2.305   3.833  -7.557  0.00  0.00    -0.084 S 
ATOM     17  C   UNL     1       5.444   5.974  -9.847  0.00  0.00    +0.016 A 
ENDROOT
BRANCH   1  19
ATOM     18  C   UNL     1       2.363   6.268 -11.793  0.00  0.00    +0.112 C 
ATOM     19  N   UNL     1       3.819   6.185 -11.701  0.00  0.00    -0.304 N 
ATOM     20  C   UNL     1       4.493   5.850 -12.954  0.00  0.00    +0.112 C 
ENDBRANCH   1  19
TORSDOF 1
ENDMDL
MODEL 4
REMARK VINA RESULT:      -6.7      2.224      6.286
REMARK  Name = 
REMARK  1 active torsions:
REMARK  status: ('A' for Active; 'I' for Inactive)
REMARK    1  A    between atoms: N_2  and  C_4
REMARK                            x       y       z     vdW  Elec       q    Type
REMARK                         _______ _______ _______ _____ _____    ______ ____
ROOT
ATOM      1  C   UNL     1       2.214   6.018 -11.027  0.00  0.00    +0.049 A 
ATOM      2  C   UNL     1       1.979   4.991 -10.118  0.00  0.00    +0.023 A 
ATOM      3  C   UNL     1       2.790   4.795  -9.005  0.00  0.00    +0.048 A 
ATOM      4  C   UNL     1       3.905   5.613  -8.844  0.00  0.00    +0.087 A 
ATOM      5  N   UNL     1       4.604   5.689  -7.707  0.00  0.00    -0.244 NA
ATOM      6  C   UNL     1       4.079   5.672  -6.475  0.00  0.00    +0.088 A 
ATOM      7  C   UNL     1       3.019   4.715  -6.122  0.00  0.00    +0.053 A 
ATOM      8  C   UNL     1       2.416   4.834  -4.882  0.00  0.00    +0.077 A 
ATOM      9  C   UNL     1       2.727   5.854  -3.990  0.00  0.00    +0.222 A 
ATOM     10  N   UNL     1       1.828   6.398  -3.240  0.00  0.00    -0.177 N 
ATOM     11  C   UNL     1       0.403   6.262  -3.497  0.00  0.00    +0.403 C 
ATOM     12  C   UNL     1       2.222   6.626  -1.853  0.00  0.00    +0.403 C 
ATOM     13  C   UNL     1       3.795   6.666  -4.339  0.00  0.00    +0.070 A 
ATOM     14  C   UNL     1       4.617   6.395  -5.415  0.00  0.00    +0.026 A 
ATOM     15  C   UNL     1       4.409   6.144 -10.027  0.00  0.00    +0.021 A 
ATOM     16  S   UNL     1       2.264   4.086  -7.532  0.00  0.00    -0.084 S 
ATOM     17  C   UNL     1       3.539   6.433 -11.074  0.00  0.00    +0.016 A 
ENDROOT
BRANCH   1  19
ATOM     18  C   UNL     1      -0.138   6.724 -10.888  0.00  0.00    +0.112 C 
ATOM     19  N   UNL     1       1.145   6.794 -11.584  0.00  0.00    -0.304 N 
ATOM     20  C   UNL     1       1.056   6.722 -13.041  0.00  0.00    +0.112 C 
ENDBRANCH   1  19
TORSDOF 1
ENDMDL
MODEL 5
REMARK VINA RESULT:      -6.7      5.146      8.195
REMARK  Name = 
REMARK  1 active torsions:
REMARK  status: ('A' for Active; 'I' for Inactive)
REMARK    1  A    between atoms: N_2  and  C_4
REMARK                            x       y       z     vdW  Elec       q    Type
REMARK                         _______ _______ _______ _____ _____    ______ ____
ROOT
ATOM      1  C   UNL     1       1.400   9.367   1.113  0.00  0.00    +0.049 A 
ATOM      2  C   UNL     1       1.514   8.041   0.709  0.00  0.00    +0.023 A 
ATOM      3  C   UNL     1       0.412   7.302   0.292  0.00  0.00    +0.048 A 
ATOM      4  C   UNL     1      -0.846   7.897   0.350  0.00  0.00    +0.087 A 
ATOM      5  N   UNL     1      -1.928   7.389  -0.248  0.00  0.00    -0.244 NA
ATOM      6  C   UNL     1      -1.941   6.804  -1.454  0.00  0.00    +0.088 A 
ATOM      7  C   UNL     1      -0.897   5.839  -1.833  0.00  0.00    +0.053 A 
ATOM      8  C   UNL     1      -0.880   5.373  -3.135  0.00  0.00    +0.077 A 
ATOM      9  C   UNL     1      -1.763   5.825  -4.108  0.00  0.00    +0.222 A 
ATOM     10  N   UNL     1      -1.400   5.979  -5.338  0.00  0.00    -0.177 N 
ATOM     11  C   UNL     1      -0.005   6.040  -5.743  0.00  0.00    +0.403 C 
ATOM     12  C   UNL     1      -2.349   5.497  -6.337  0.00  0.00    +0.403 C 
ATOM     13  C   UNL     1      -2.779   6.661  -3.670  0.00  0.00    +0.070 A 
ATOM     14  C   UNL     1      -3.015   6.907  -2.331  0.00  0.00    +0.026 A 
ATOM     15  C   UNL     1      -0.964   8.910   1.297  0.00  0.00    +0.021 A 
ATOM     16  S   UNL     1       0.482   5.995  -0.819  0.00  0.00    -0.084 S 
ATOM     17  C   UNL     1       0.141   9.701   1.596  0.00  0.00    +0.016 A 
ENDROOT
BRANCH   1  19
ATOM     18  C   UNL     1       3.275   9.998  -0.350  0.00  0.00    +0.112 C 
ATOM     19  N   UNL     1       2.365  10.358   0.735  0.00  0.00    -0.304 N 
ATOM     20  C   UNL     1       3.000  11.030   1.868  0.00  0.00    +0.112 C 
ENDBRANCH   1  19
TORSDOF 1
ENDMDL
MODEL 6
REMARK VINA RESULT:      -6.6      2.403      3.740
REMARK  Name = 
REMARK  1 active torsions:
REMARK  status: ('A' for Active; 'I' for Inactive)
REMARK    1  A    between atoms: N_2  and  C_4
REMARK                            x       y       z     vdW  Elec       q    Type
REMARK                         _______ _______ _______ _____ _____    ______ ____
ROOT
ATOM      1  C   UNL     1       2.645   6.511  -3.607  0.00  0.00    +0.049 A 
ATOM      2  C   UNL     1       3.101   5.504  -4.450  0.00  0.00    +0.023 A 
ATOM      3  C   UNL     1       2.316   4.995  -5.481  0.00  0.00    +0.048 A 
ATOM      4  C   UNL     1       1.015   5.470  -5.618  0.00  0.00    +0.087 A 
ATOM      5  N   UNL     1       0.262   5.250  -6.701  0.00  0.00    -0.244 NA
ATOM      6  C   UNL     1       0.707   5.257  -7.965  0.00  0.00    +0.088 A 
ATOM      7  C   UNL     1       1.966   4.587  -8.323  0.00  0.00    +0.053 A 
ATOM      8  C   UNL     1       2.448   4.745  -9.611  0.00  0.00    +0.077 A 
ATOM      9  C   UNL     1       1.826   5.557 -10.552  0.00  0.00    +0.222 A 
ATOM     10  N   UNL     1       2.503   6.247 -11.408  0.00  0.00    -0.177 N 
ATOM     11  C   UNL     1       3.923   6.519 -11.250  0.00  0.00    +0.403 C 
ATOM     12  C   UNL     1       1.990   6.231 -12.774  0.00  0.00    +0.403 C 
ATOM     13  C   UNL     1       0.598   6.086 -10.186  0.00  0.00    +0.070 A 
ATOM     14  C   UNL     1      -0.062   5.709  -9.032  0.00  0.00    +0.026 A 
ATOM     15  C   UNL     1       0.449   5.957  -4.444  0.00  0.00    +0.021 A 
ATOM     16  S   UNL     1       2.936   4.317  -6.931  0.00  0.00    -0.084 S 
ATOM     17  C   UNL     1       1.262   6.563  -3.491  0.00  0.00    +0.016 A 
ENDROOT
BRANCH   1  19
ATOM     18  C   UNL     1       4.745   7.753  -3.930  0.00  0.00    +0.112 C 
ATOM     19  N   UNL     1       3.492   7.592  -3.195  0.00  0.00    -0.304 N 
ATOM     20  C   UNL     1       3.612   7.731  -1.744  0.00  0.00    +0.112 C 
ENDBRANCH   1  19
TORSDOF 1
ENDMDL
MODEL 7
REMARK VINA RESULT:      -6.6      4.353      6.706
REMARK  Name = 
REMARK  1 active torsions:
REMARK  status: ('A' for Active; 'I' for Inactive)
REMARK    1  A    between atoms: N_2  and  C_4
REMARK                            x       y       z     vdW  Elec       q    Type
REMARK                         _______ _______ _______ _____ _____    ______ ____
ROOT
ATOM      1  C   UNL     1      -0.178   8.308   0.845  0.00  0.00    +0.049 A 
ATOM      2  C   UNL     1       0.480   7.188   0.347  0.00  0.00    +0.023 A 
ATOM      3  C   UNL     1      -0.089   6.373  -0.626  0.00  0.00    +0.048 A 
ATOM      4  C   UNL     1      -1.382   6.658  -1.056  0.00  0.00    +0.087 A 
ATOM      5  N   UNL     1      -1.933   6.114  -2.146  0.00  0.00    -0.244 NA
ATOM      6  C   UNL     1      -1.291   5.877  -3.299  0.00  0.00    +0.088 A 
ATOM      7  C   UNL     1       0.054   5.283  -3.302  0.00  0.00    +0.053 A 
ATOM      8  C   UNL     1       0.725   5.190  -4.509  0.00  0.00    +0.077 A 
ATOM      9  C   UNL     1       0.207   5.690  -5.697  0.00  0.00    +0.222 A 
ATOM     10  N   UNL     1       0.962   6.233  -6.594  0.00  0.00    -0.177 N 
ATOM     11  C   UNL     1       2.314   6.686  -6.311  0.00  0.00    +0.403 C 
ATOM     12  C   UNL     1       0.678   5.846  -7.972  0.00  0.00    +0.403 C 
ATOM     13  C   UNL     1      -1.099   6.152  -5.648  0.00  0.00    +0.070 A 
ATOM     14  C   UNL     1      -1.908   5.983  -4.540  0.00  0.00    +0.026 A 
ATOM     15  C   UNL     1      -2.164   7.339  -0.128  0.00  0.00    +0.021 A 
ATOM     16  S   UNL     1       0.804   5.449  -1.764  0.00  0.00    -0.084 S 
ATOM     17  C   UNL     1      -1.562   8.235   0.751  0.00  0.00    +0.016 A 
ENDROOT
BRANCH   1  19
ATOM     18  C   UNL     1       1.924   9.581   0.723  0.00  0.00    +0.112 C 
ATOM     19  N   UNL     1       0.511   9.541   1.094  0.00  0.00    -0.304 N 
ATOM     20  C   UNL     1       0.202  10.142   2.390  0.00  0.00    +0.112 C 
ENDBRANCH   1  19
TORSDOF 1
ENDMDL
MODEL 8
REMARK VINA RESULT:      -6.5      2.236      3.295
REMARK  Name = 
REMARK  1 active torsions:
REMARK  status: ('A' for Active; 'I' for Inactive)
REMARK    1  A    between atoms: N_2  and  C_4
REMARK                            x       y       z     vdW  Elec       q    Type
REMARK                         _______ _______ _______ _____ _____    ______ ____
ROOT
ATOM      1  C   UNL     1       0.854   5.105  -5.098  0.00  0.00    +0.049 A 
ATOM      2  C   UNL     1       1.446   4.203  -5.977  0.00  0.00    +0.023 A 
ATOM      3  C   UNL     1       1.608   4.492  -7.329  0.00  0.00    +0.048 A 
ATOM      4  C   UNL     1       1.098   5.692  -7.815  0.00  0.00    +0.087 A 
ATOM      5  N   UNL     1       1.406   6.188  -9.018  0.00  0.00    -0.244 NA
ATOM      6  C   UNL     1       2.619   6.139  -9.586  0.00  0.00    +0.088 A 
ATOM      7  C   UNL     1       3.417   4.904  -9.547  0.00  0.00    +0.053 A 
ATOM      8  C   UNL     1       4.715   4.949 -10.025  0.00  0.00    +0.077 A 
ATOM      9  C   UNL     1       5.309   6.121 -10.477  0.00  0.00    +0.222 A 
ATOM     10  N   UNL     1       6.560   6.372 -10.273  0.00  0.00    -0.177 N 
ATOM     11  C   UNL     1       7.352   5.660  -9.284  0.00  0.00    +0.403 C 
ATOM     12  C   UNL     1       7.284   6.923 -11.415  0.00  0.00    +0.403 C 
ATOM     13  C   UNL     1       4.480   7.228 -10.576  0.00  0.00    +0.070 A 
ATOM     14  C   UNL     1       3.112   7.152 -10.401  0.00  0.00    +0.026 A 
ATOM     15  C   UNL     1       0.033   6.209  -7.083  0.00  0.00    +0.021 A 
ATOM     16  S   UNL     1       2.852   3.844  -8.318  0.00  0.00    -0.084 S 
ATOM     17  C   UNL     1      -0.023   5.991  -5.710  0.00  0.00    +0.016 A 
ENDROOT
BRANCH   1  19
ATOM     18  C   UNL     1       0.403   5.246  -2.684  0.00  0.00    +0.112 C 
ATOM     19  N   UNL     1       1.369   5.321  -3.777  0.00  0.00    -0.304 N 
ATOM     20  C   UNL     1       2.313   6.433  -3.684  0.00  0.00    +0.112 C 
ENDBRANCH   1  19
TORSDOF 1
ENDMDL
MODEL 9
REMARK VINA RESULT:      -6.4      2.033      6.533
REMARK  Name = 
REMARK  1 active torsions:
REMARK  status: ('A' for Active; 'I' for Inactive)
REMARK    1  A    between atoms: N_2  and  C_4
REMARK                            x       y       z     vdW  Elec       q    Type
REMARK                         _______ _______ _______ _____ _____    ______ ____
ROOT
ATOM      1  C   UNL     1       2.126   5.730 -11.588  0.00  0.00    +0.049 A 
ATOM      2  C   UNL     1       2.255   6.779 -10.684  0.00  0.00    +0.023 A 
ATOM      3  C   UNL     1       1.564   6.799  -9.476  0.00  0.00    +0.048 A 
ATOM      4  C   UNL     1       0.668   5.767  -9.209  0.00  0.00    +0.087 A 
ATOM      5  N   UNL     1       0.143   5.544  -8.000  0.00  0.00    -0.244 NA
ATOM      6  C   UNL     1       0.802   5.664  -6.838  0.00  0.00    +0.088 A 
ATOM      7  C   UNL     1       1.678   6.817  -6.586  0.00  0.00    +0.053 A 
ATOM      8  C   UNL     1       2.439   6.820  -5.431  0.00  0.00    +0.077 A 
ATOM      9  C   UNL     1       2.456   5.755  -4.538  0.00  0.00    +0.222 A 
ATOM     10  N   UNL     1       3.532   5.405  -3.916  0.00  0.00    -0.177 N 
ATOM     11  C   UNL     1       4.856   5.834  -4.336  0.00  0.00    +0.403 C 
ATOM     12  C   UNL     1       3.366   5.095  -2.499  0.00  0.00    +0.403 C 
ATOM     13  C   UNL     1       1.542   4.741  -4.781  0.00  0.00    +0.070 A 
ATOM     14  C   UNL     1       0.556   4.841  -5.744  0.00  0.00    +0.026 A 
ATOM     15  C   UNL     1       0.143   5.148 -10.339  0.00  0.00    +0.021 A 
ATOM     16  S   UNL     1       2.110   7.595  -8.057  0.00  0.00    -0.084 S 
ATOM     17  C   UNL     1       0.919   5.049 -11.490  0.00  0.00    +0.016 A 
ENDROOT
BRANCH   1  19
ATOM     18  C   UNL     1       4.573   5.546 -11.765  0.00  0.00    +0.112 C 
ATOM     19  N   UNL     1       3.255   5.193 -12.290  0.00  0.00    -0.304 N 
ATOM     20  C   UNL     1       3.137   5.264 -13.745  0.00  0.00    +0.112 C 
ENDBRANCH   1  19
TORSDOF 1
ENDMDL
