MODEL 1
REMARK VINA RESULT:      -9.7      0.000      0.000
REMARK  Name = 
REMARK  0 active torsions:
REMARK  status: ('A' for Active; 'I' for Inactive)
REMARK                            x       y       z     vdW  Elec       q    Type
REMARK                         _______ _______ _______ _____ _____    ______ ____
ROOT
ATOM      1  C   UNL     1      -0.848   5.276  -2.084  0.00  0.00    +0.033 C 
ATOM      2  C   UNL     1      -1.447   6.275  -2.910  0.00  0.00    +0.127 C 
ATOM      3  C   UNL     1      -0.691   6.738  -4.040  0.00  0.00    +0.028 C 
ATOM      4  C   UNL     1      -0.913   5.403  -4.930  0.00  0.00    +0.005 C 
ATOM      5  C   UNL     1      -0.323   6.267  -6.262  0.00  0.00    +0.033 C 
ATOM      6  C   UNL     1       1.097   5.554  -6.109  0.00  0.00    +0.164 C 
ATOM      7  C   UNL     1       1.538   5.645  -4.546  0.00  0.00    +0.182 C 
ATOM      8  O   UNL     1       2.794   6.457  -4.827  0.00  0.00    -0.220 OA
ATOM      9  F   UNL     1       0.912   4.180  -6.165  0.00  0.00    -0.237 F 
ATOM     10  C   UNL     1       2.047   5.970  -7.068  0.00  0.00    +0.046 C 
ATOM     11  C   UNL     1       1.385   5.627  -8.370  0.00  0.00    -0.039 C 
ATOM     12  C   UNL     1       2.173   5.441  -9.429  0.00  0.00    +0.029 C 
ATOM     13  C   UNL     1       3.597   5.199  -9.342  0.00  0.00    +0.173 C 
ATOM     14  C   UNL     1       4.279   5.392  -8.024  0.00  0.00    +0.070 C 
ATOM     15  O   UNL     1       4.320   4.839 -10.300  0.00  0.00    -0.291 OA
ATOM     16  C   UNL     1      -0.055   5.502  -8.573  0.00  0.00    +0.022 C 
ATOM     17  C   UNL     1       2.472   7.399  -7.137  0.00  0.00    +0.007 C 
ATOM     18  C   UNL     1       3.261   5.078  -6.965  0.00  0.00    +0.014 C 
ATOM     19  C   UNL     1      -0.880   5.212  -7.360  0.00  0.00    +0.007 C 
ATOM     20  C   UNL     1      -2.475   5.789  -5.082  0.00  0.00    +0.003 C 
ATOM     21  C   UNL     1      -1.461   7.867  -4.721  0.00  0.00    +0.003 C 
ATOM     22  C   UNL     1       0.700   7.011  -4.147  0.00  0.00    +0.038 C 
ATOM     23  C   UNL     1      -2.733   5.772  -3.573  0.00  0.00    +0.030 C 
ATOM     24  O   UNL     1      -1.862   7.310  -2.055  0.00  0.00    -0.226 OA
ENDROOT
TORSDOF 0
ENDMDL
MODEL 2
REMARK VINA RESULT:      -9.3      2.695      7.737
REMARK  Name = 
REMARK  0 active torsions:
REMARK  status: ('A' for Active; 'I' for Inactive)
REMARK                            x       y       z     vdW  Elec       q    Type
REMARK                         _______ _______ _______ _____ _____    ______ ____
ROOT
ATOM      1  C   UNL     1       5.135   5.043 -13.488  0.00  0.00    +0.033 C 
ATOM      2  C   UNL     1       5.790   6.065 -12.735  0.00  0.00    +0.127 C 
ATOM      3  C   UNL     1       5.103   6.580 -11.583  0.00  0.00    +0.028 C 
ATOM      4  C   UNL     1       5.362   5.277 -10.657  0.00  0.00    +0.005 C 
ATOM      5  C   UNL     1       4.856   6.197  -9.328  0.00  0.00    +0.033 C 
ATOM      6  C   UNL     1       3.423   5.495  -9.374  0.00  0.00    +0.164 C 
ATOM      7  C   UNL     1       2.896   5.533 -10.913  0.00  0.00    +0.182 C 
ATOM      8  O   UNL     1       1.665   6.370 -10.594  0.00  0.00    -0.220 OA
ATOM      9  F   UNL     1       3.596   4.122  -9.276  0.00  0.00    -0.237 F 
ATOM     10  C   UNL     1       2.532   5.959  -8.380  0.00  0.00    +0.046 C 
ATOM     11  C   UNL     1       3.263   5.657  -7.105  0.00  0.00    -0.039 C 
ATOM     12  C   UNL     1       2.534   5.520  -5.998  0.00  0.00    +0.029 C 
ATOM     13  C   UNL     1       1.105   5.292  -5.996  0.00  0.00    +0.173 C 
ATOM     14  C   UNL     1       0.352   5.444  -7.280  0.00  0.00    +0.070 C 
ATOM     15  O   UNL     1       0.433   4.978  -4.986  0.00  0.00    -0.291 OA
ATOM     16  C   UNL     1       4.711   5.522  -6.979  0.00  0.00    +0.022 C 
ATOM     17  C   UNL     1       2.126   7.394  -8.343  0.00  0.00    +0.007 C 
ATOM     18  C   UNL     1       1.306   5.078  -8.382  0.00  0.00    +0.014 C 
ATOM     19  C   UNL     1       5.464   5.177  -8.224  0.00  0.00    +0.007 C 
ATOM     20  C   UNL     1       6.934   5.649 -10.607  0.00  0.00    +0.003 C 
ATOM     21  C   UNL     1       5.921   7.724 -10.990  0.00  0.00    +0.003 C 
ATOM     22  C   UNL     1       3.723   6.873 -11.410  0.00  0.00    +0.038 C 
ATOM     23  C   UNL     1       7.106   5.573 -12.127  0.00  0.00    +0.030 C 
ATOM     24  O   UNL     1       6.166   7.062 -13.652  0.00  0.00    -0.226 OA
ENDROOT
TORSDOF 0
ENDMDL
MODEL 3
REMARK VINA RESULT:      -9.0      2.691      5.891
REMARK  Name = 
REMARK  0 active torsions:
REMARK  status: ('A' for Active; 'I' for Inactive)
REMARK                            x       y       z     vdW  Elec       q    Type
REMARK                         _______ _______ _______ _____ _____    ______ ____
ROOT
ATOM      1  C   UNL     1       2.283   7.244  -8.725  0.00  0.00    +0.033 C 
ATOM      2  C   UNL     1       1.996   5.882  -8.408  0.00  0.00    +0.127 C 
ATOM      3  C   UNL     1       2.486   5.378  -7.155  0.00  0.00    +0.028 C 
ATOM      4  C   UNL     1       1.401   6.161  -6.241  0.00  0.00    +0.005 C 
ATOM      5  C   UNL     1       1.877   5.180  -4.945  0.00  0.00    +0.033 C 
ATOM      6  C   UNL     1       2.767   6.370  -4.359  0.00  0.00    +0.164 C 
ATOM      7  C   UNL     1       3.662   6.972  -5.577  0.00  0.00    +0.182 C 
ATOM      8  O   UNL     1       4.994   6.630  -4.922  0.00  0.00    -0.220 OA
ATOM      9  F   UNL     1       1.956   7.478  -4.165  0.00  0.00    -0.237 F 
ATOM     10  C   UNL     1       3.449   6.034  -3.168  0.00  0.00    +0.046 C 
ATOM     11  C   UNL     1       2.335   5.658  -2.236  0.00  0.00    -0.039 C 
ATOM     12  C   UNL     1       2.569   5.753  -0.928  0.00  0.00    +0.029 C 
ATOM     13  C   UNL     1       3.662   6.512  -0.358  0.00  0.00    +0.173 C 
ATOM     14  C   UNL     1       4.728   7.031  -1.271  0.00  0.00    +0.070 C 
ATOM     15  O   UNL     1       3.794   6.768   0.861  0.00  0.00    -0.291 OA
ATOM     16  C   UNL     1       1.021   5.174  -2.650  0.00  0.00    +0.022 C 
ATOM     17  C   UNL     1       4.446   4.924  -3.158  0.00  0.00    +0.007 C 
ATOM     18  C   UNL     1       4.069   7.287  -2.597  0.00  0.00    +0.014 C 
ATOM     19  C   UNL     1       0.581   5.529  -4.034  0.00  0.00    +0.007 C 
ATOM     20  C   UNL     1       0.241   5.205  -6.835  0.00  0.00    +0.003 C 
ATOM     21  C   UNL     1       2.163   3.889  -7.061  0.00  0.00    +0.003 C 
ATOM     22  C   UNL     1       3.731   5.612  -6.510  0.00  0.00    +0.038 C 
ATOM     23  C   UNL     1       0.490   5.629  -8.286  0.00  0.00    +0.030 C 
ATOM     24  O   UNL     1       2.402   5.116  -9.514  0.00  0.00    -0.226 OA
ENDROOT
TORSDOF 0
ENDMDL
MODEL 4
REMARK VINA RESULT:      -8.7      2.780      4.481
REMARK  Name = 
REMARK  0 active torsions:
REMARK  status: ('A' for Active; 'I' for Inactive)
REMARK                            x       y       z     vdW  Elec       q    Type
REMARK                         _______ _______ _______ _____ _____    ______ ____
ROOT
ATOM      1  C   UNL     1       2.384   7.454  -0.600  0.00  0.00    +0.033 C 
ATOM      2  C   UNL     1       3.432   6.616  -1.090  0.00  0.00    +0.127 C 
ATOM      3  C   UNL     1       3.174   5.868  -2.289  0.00  0.00    +0.028 C 
ATOM      4  C   UNL     1       3.281   7.140  -3.287  0.00  0.00    +0.005 C 
ATOM      5  C   UNL     1       3.338   6.044  -4.578  0.00  0.00    +0.033 C 
ATOM      6  C   UNL     1       1.797   6.319  -4.893  0.00  0.00    +0.164 C 
ATOM      7  C   UNL     1       0.974   6.219  -3.494  0.00  0.00    +0.182 C 
ATOM      8  O   UNL     1       0.106   5.055  -3.953  0.00  0.00    -0.220 OA
ATOM      9  F   UNL     1       1.623   7.678  -5.109  0.00  0.00    -0.237 F 
ATOM     10  C   UNL     1       1.300   5.572  -5.985  0.00  0.00    +0.046 C 
ATOM     11  C   UNL     1       2.188   5.997  -7.117  0.00  0.00    -0.039 C 
ATOM     12  C   UNL     1       1.711   5.865  -8.354  0.00  0.00    +0.029 C 
ATOM     13  C   UNL     1       0.309   5.683  -8.662  0.00  0.00    +0.173 C 
ATOM     14  C   UNL     1      -0.641   5.397  -7.543  0.00  0.00    +0.070 C 
ATOM     15  O   UNL     1      -0.183   5.743  -9.814  0.00  0.00    -0.291 OA
ATOM     16  C   UNL     1       3.541   6.524  -6.970  0.00  0.00    +0.022 C 
ATOM     17  C   UNL     1       1.302   4.080  -5.939  0.00  0.00    +0.007 C 
ATOM     18  C   UNL     1      -0.083   6.074  -6.323  0.00  0.00    +0.014 C 
ATOM     19  C   UNL     1       3.885   7.133  -5.649  0.00  0.00    +0.007 C 
ATOM     20  C   UNL     1       4.866   7.219  -2.985  0.00  0.00    +0.003 C 
ATOM     21  C   UNL     1       4.373   4.968  -2.578  0.00  0.00    +0.003 C 
ATOM     22  C   UNL     1       1.992   5.192  -2.697  0.00  0.00    +0.038 C 
ATOM     23  C   UNL     1       4.674   7.423  -1.479  0.00  0.00    +0.030 C 
ATOM     24  O   UNL     1       3.845   5.815  -0.012  0.00  0.00    -0.226 OA
ENDROOT
TORSDOF 0
ENDMDL
MODEL 5
REMARK VINA RESULT:      -8.5      2.765      6.305
REMARK  Name = 
REMARK  0 active torsions:
REMARK  status: ('A' for Active; 'I' for Inactive)
REMARK                            x       y       z     vdW  Elec       q    Type
REMARK                         _______ _______ _______ _____ _____    ______ ____
ROOT
ATOM      1  C   UNL     1       2.518   3.626  -8.598  0.00  0.00    +0.033 C 
ATOM      2  C   UNL     1       2.611   5.048  -8.692  0.00  0.00    +0.127 C 
ATOM      3  C   UNL     1       2.482   5.800  -7.475  0.00  0.00    +0.028 C 
ATOM      4  C   UNL     1       3.947   5.415  -6.902  0.00  0.00    +0.005 C 
ATOM      5  C   UNL     1       3.748   6.636  -5.745  0.00  0.00    +0.033 C 
ATOM      6  C   UNL     1       3.371   5.545  -4.642  0.00  0.00    +0.164 C 
ATOM      7  C   UNL     1       2.260   4.545  -5.285  0.00  0.00    +0.182 C 
ATOM      8  O   UNL     1       1.188   4.888  -4.260  0.00  0.00    -0.220 OA
ATOM      9  F   UNL     1       4.408   4.628  -4.551  0.00  0.00    -0.237 F 
ATOM     10  C   UNL     1       3.079   6.097  -3.375  0.00  0.00    +0.046 C 
ATOM     11  C   UNL     1       4.341   6.832  -3.028  0.00  0.00    -0.039 C 
ATOM     12  C   UNL     1       4.587   7.053  -1.737  0.00  0.00    +0.029 C 
ATOM     13  C   UNL     1       3.930   6.347  -0.658  0.00  0.00    +0.173 C 
ATOM     14  C   UNL     1       2.749   5.486  -0.978  0.00  0.00    +0.070 C 
ATOM     15  O   UNL     1       4.274   6.403   0.546  0.00  0.00    -0.291 OA
ATOM     16  C   UNL     1       5.309   7.341  -3.995  0.00  0.00    +0.022 C 
ATOM     17  C   UNL     1       1.940   7.047  -3.211  0.00  0.00    +0.007 C 
ATOM     18  C   UNL     1       2.958   4.973  -2.374  0.00  0.00    +0.014 C 
ATOM     19  C   UNL     1       5.318   6.691  -5.341  0.00  0.00    +0.007 C 
ATOM     20  C   UNL     1       4.617   6.311  -8.067  0.00  0.00    +0.003 C 
ATOM     21  C   UNL     1       2.506   7.289  -7.809  0.00  0.00    +0.003 C 
ATOM     22  C   UNL     1       1.603   5.597  -6.375  0.00  0.00    +0.038 C 
ATOM     23  C   UNL     1       3.984   5.498  -9.200  0.00  0.00    +0.030 C 
ATOM     24  O   UNL     1       1.707   5.445  -9.691  0.00  0.00    -0.226 OA
ENDROOT
TORSDOF 0
ENDMDL
MODEL 6
REMARK VINA RESULT:      -8.3      2.032      3.686
REMARK  Name = 
REMARK  0 active torsions:
REMARK  status: ('A' for Active; 'I' for Inactive)
REMARK                            x       y       z     vdW  Elec       q    Type
REMARK                         _______ _______ _______ _____ _____    ______ ____
ROOT
ATOM      1  C   UNL     1      -0.687   7.629  -5.242  0.00  0.00    +0.033 C 
ATOM      2  C   UNL     1      -0.332   6.258  -5.058  0.00  0.00    +0.127 C 
ATOM      3  C   UNL     1       0.502   5.652  -6.059  0.00  0.00    +0.028 C 
ATOM      4  C   UNL     1       1.861   6.405  -5.601  0.00  0.00    +0.005 C 
ATOM      5  C   UNL     1       2.718   5.321  -6.581  0.00  0.00    +0.033 C 
ATOM      6  C   UNL     1       2.851   6.436  -7.716  0.00  0.00    +0.164 C 
ATOM      7  C   UNL     1       1.380   7.092  -7.948  0.00  0.00    +0.182 C 
ATOM      8  O   UNL     1       1.289   6.661  -9.406  0.00  0.00    -0.220 OA
ATOM      9  F   UNL     1       3.464   7.555  -7.171  0.00  0.00    -0.237 F 
ATOM     10  C   UNL     1       3.544   5.996  -8.865  0.00  0.00    +0.046 C 
ATOM     11  C   UNL     1       4.882   5.592  -8.318  0.00  0.00    -0.039 C 
ATOM     12  C   UNL     1       5.914   5.589  -9.160  0.00  0.00    +0.029 C 
ATOM     13  C   UNL     1       5.915   6.269 -10.437  0.00  0.00    +0.173 C 
ATOM     14  C   UNL     1       4.624   6.815 -10.961  0.00  0.00    +0.070 C 
ATOM     15  O   UNL     1       6.927   6.435 -11.157  0.00  0.00    -0.291 OA
ATOM     16  C   UNL     1       5.136   5.183  -6.940  0.00  0.00    +0.022 C 
ATOM     17  C   UNL     1       3.019   4.855  -9.671  0.00  0.00    +0.007 C 
ATOM     18  C   UNL     1       3.798   7.185  -9.761  0.00  0.00    +0.014 C 
ATOM     19  C   UNL     1       4.157   5.648  -5.910  0.00  0.00    +0.007 C 
ATOM     20  C   UNL     1       1.862   5.532  -4.241  0.00  0.00    +0.003 C 
ATOM     21  C   UNL     1       0.673   4.171  -5.728  0.00  0.00    +0.003 C 
ATOM     22  C   UNL     1       0.470   5.799  -7.472  0.00  0.00    +0.038 C 
ATOM     23  C   UNL     1       0.494   6.048  -3.786  0.00  0.00    +0.030 C 
ATOM     24  O   UNL     1      -1.529   5.559  -4.831  0.00  0.00    -0.226 OA
ENDROOT
TORSDOF 0
ENDMDL
MODEL 7
REMARK VINA RESULT:      -8.3      3.415      5.935
REMARK  Name = 
REMARK  0 active torsions:
REMARK  status: ('A' for Active; 'I' for Inactive)
REMARK                            x       y       z     vdW  Elec       q    Type
REMARK                         _______ _______ _______ _____ _____    ______ ____
ROOT
ATOM      1  C   UNL     1       2.057   6.894  -6.317  0.00  0.00    +0.033 C 
ATOM      2  C   UNL     1       2.498   5.587  -6.688  0.00  0.00    +0.127 C 
ATOM      3  C   UNL     1       2.192   5.139  -8.017  0.00  0.00    +0.028 C 
ATOM      4  C   UNL     1       3.292   6.075  -8.751  0.00  0.00    +0.005 C 
ATOM      5  C   UNL     1       3.047   5.157 -10.153  0.00  0.00    +0.033 C 
ATOM      6  C   UNL     1       2.120   6.309 -10.757  0.00  0.00    +0.164 C 
ATOM      7  C   UNL     1       1.050   6.743  -9.611  0.00  0.00    +0.182 C 
ATOM      8  O   UNL     1      -0.168   6.341 -10.431  0.00  0.00    -0.220 OA
ATOM      9  F   UNL     1       2.843   7.492 -10.787  0.00  0.00    -0.237 F 
ATOM     10  C   UNL     1       1.601   6.007 -12.036  0.00  0.00    +0.046 C 
ATOM     11  C   UNL     1       2.837   5.794 -12.860  0.00  0.00    -0.039 C 
ATOM     12  C   UNL     1       2.735   5.967 -14.177  0.00  0.00    +0.029 C 
ATOM     13  C   UNL     1       1.644   6.672 -14.815  0.00  0.00    +0.173 C 
ATOM     14  C   UNL     1       0.445   7.032 -13.996  0.00  0.00    +0.070 C 
ATOM     15  O   UNL     1       1.620   7.007 -16.023  0.00  0.00    -0.291 OA
ATOM     16  C   UNL     1       4.138   5.392 -12.333  0.00  0.00    +0.022 C 
ATOM     17  C   UNL     1       0.716   4.821 -12.230  0.00  0.00    +0.007 C 
ATOM     18  C   UNL     1       0.934   7.243 -12.591  0.00  0.00    +0.014 C 
ATOM     19  C   UNL     1       4.395   5.679 -10.888  0.00  0.00    +0.007 C 
ATOM     20  C   UNL     1       4.464   5.178  -8.094  0.00  0.00    +0.003 C 
ATOM     21  C   UNL     1       2.657   3.693  -8.171  0.00  0.00    +0.003 C 
ATOM     22  C   UNL     1       1.006   5.316  -8.781  0.00  0.00    +0.038 C 
ATOM     23  C   UNL     1       4.025   5.470  -6.656  0.00  0.00    +0.030 C 
ATOM     24  O   UNL     1       2.048   4.711  -5.686  0.00  0.00    -0.226 OA
ENDROOT
TORSDOF 0
ENDMDL
MODEL 8
REMARK VINA RESULT:      -8.2      1.849      6.099
REMARK  Name = 
REMARK  0 active torsions:
REMARK  status: ('A' for Active; 'I' for Inactive)
REMARK                            x       y       z     vdW  Elec       q    Type
REMARK                         _______ _______ _______ _____ _____    ______ ____
ROOT
ATOM      1  C   UNL     1       4.272   7.238 -10.125  0.00  0.00    +0.033 C 
ATOM      2  C   UNL     1       3.876   5.868 -10.051  0.00  0.00    +0.127 C 
ATOM      3  C   UNL     1       3.646   5.316  -8.745  0.00  0.00    +0.028 C 
ATOM      4  C   UNL     1       2.236   6.076  -8.504  0.00  0.00    +0.005 C 
ATOM      5  C   UNL     1       1.978   5.047  -7.184  0.00  0.00    +0.033 C 
ATOM      6  C   UNL     1       2.420   6.207  -6.179  0.00  0.00    +0.164 C 
ATOM      7  C   UNL     1       3.812   6.843  -6.731  0.00  0.00    +0.182 C 
ATOM      8  O   UNL     1       4.611   6.466  -5.491  0.00  0.00    -0.220 OA
ATOM      9  F   UNL     1       1.615   7.315  -6.398  0.00  0.00    -0.237 F 
ATOM     10  C   UNL     1       2.385   5.823  -4.819  0.00  0.00    +0.046 C 
ATOM     11  C   UNL     1       0.952   5.424  -4.619  0.00  0.00    -0.039 C 
ATOM     12  C   UNL     1       0.470   5.472  -3.377  0.00  0.00    +0.029 C 
ATOM     13  C   UNL     1       1.099   6.200  -2.296  0.00  0.00    +0.173 C 
ATOM     14  C   UNL     1       2.478   6.741  -2.501  0.00  0.00    +0.070 C 
ATOM     15  O   UNL     1       0.573   6.412  -1.178  0.00  0.00    -0.291 OA
ATOM     16  C   UNL     1       0.052   4.968  -5.673  0.00  0.00    +0.022 C 
ATOM     17  C   UNL     1       3.242   4.704  -4.330  0.00  0.00    +0.007 C 
ATOM     18  C   UNL     1       2.604   7.050  -3.966  0.00  0.00    +0.014 C 
ATOM     19  C   UNL     1       0.393   5.376  -7.070  0.00  0.00    +0.007 C 
ATOM     20  C   UNL     1       1.566   5.153  -9.648  0.00  0.00    +0.003 C 
ATOM     21  C   UNL     1       3.337   3.828  -8.885  0.00  0.00    +0.003 C 
ATOM     22  C   UNL     1       4.371   5.516  -7.538  0.00  0.00    +0.038 C 
ATOM     23  C   UNL     1       2.530   5.625 -10.740  0.00  0.00    +0.030 C 
ATOM     24  O   UNL     1       4.807   5.138 -10.809  0.00  0.00    -0.226 OA
ENDROOT
TORSDOF 0
ENDMDL
MODEL 9
REMARK VINA RESULT:      -8.2      1.446      6.169
REMARK  Name = 
REMARK  0 active torsions:
REMARK  status: ('A' for Active; 'I' for Inactive)
REMARK                            x       y       z     vdW  Elec       q    Type
REMARK                         _______ _______ _______ _____ _____    ______ ____
ROOT
ATOM      1  C   UNL     1       1.854   4.455  -9.684  0.00  0.00    +0.033 C 
ATOM      2  C   UNL     1       2.458   5.658  -9.208  0.00  0.00    +0.127 C 
ATOM      3  C   UNL     1       1.818   6.330  -8.112  0.00  0.00    +0.028 C 
ATOM      4  C   UNL     1       2.284   5.264  -6.986  0.00  0.00    +0.005 C 
ATOM      5  C   UNL     1       1.795   6.383  -5.812  0.00  0.00    +0.033 C 
ATOM      6  C   UNL     1       0.443   5.566  -5.581  0.00  0.00    +0.164 C 
ATOM      7  C   UNL     1      -0.208   5.253  -7.039  0.00  0.00    +0.182 C 
ATOM      8  O   UNL     1      -1.489   6.029  -6.764  0.00  0.00    -0.220 OA
ATOM      9  F   UNL     1       0.764   4.260  -5.243  0.00  0.00    -0.237 F 
ATOM     10  C   UNL     1      -0.408   6.140  -4.610  0.00  0.00    +0.046 C 
ATOM     11  C   UNL     1       0.451   6.160  -3.380  0.00  0.00    -0.039 C 
ATOM     12  C   UNL     1      -0.167   6.184  -2.199  0.00  0.00    +0.029 C 
ATOM     13  C   UNL     1      -1.561   5.840  -2.012  0.00  0.00    +0.173 C 
ATOM     14  C   UNL     1      -2.427   5.670  -3.220  0.00  0.00    +0.070 C 
ATOM     15  O   UNL     1      -2.113   5.676  -0.899  0.00  0.00    -0.291 OA
ATOM     16  C   UNL     1       1.911   6.177  -3.374  0.00  0.00    +0.022 C 
ATOM     17  C   UNL     1      -0.955   7.514  -4.805  0.00  0.00    +0.007 C 
ATOM     18  C   UNL     1      -1.533   5.175  -4.322  0.00  0.00    +0.014 C 
ATOM     19  C   UNL     1       2.592   5.657  -4.600  0.00  0.00    +0.007 C 
ATOM     20  C   UNL     1       3.807   5.771  -7.164  0.00  0.00    +0.003 C 
ATOM     21  C   UNL     1       2.559   7.635  -7.831  0.00  0.00    +0.003 C 
ATOM     22  C   UNL     1       0.433   6.533  -7.861  0.00  0.00    +0.038 C 
ATOM     23  C   UNL     1       3.864   5.410  -8.651  0.00  0.00    +0.030 C 
ATOM     24  O   UNL     1       2.655   6.482 -10.329  0.00  0.00    -0.226 OA
ENDROOT
TORSDOF 0
ENDMDL
