MODEL 1
REMARK VINA RESULT:      -6.2      0.000      0.000
REMARK  Name = 
REMARK  7 active torsions:
REMARK  status: ('A' for Active; 'I' for Inactive)
REMARK    1  A    between atoms: C_2  and  O_4
REMARK    2  A    between atoms: O_4  and  C_5
REMARK    3  A    between atoms: C_5  and  C_6
REMARK    4  A    between atoms: C_6  and  C_7
REMARK    5  A    between atoms: C_6  and  C_12
REMARK    6  A    between atoms: C_7  and  O_8
REMARK    7  A    between atoms: O_8  and  C_9
REMARK                            x       y       z     vdW  Elec       q    Type
REMARK                         _______ _______ _______ _____ _____    ______ ____
ROOT
ATOM      1  C   UNL     1       4.024   5.544 -11.291  0.00  0.00    +0.110 C 
ENDROOT
BRANCH   1   2
ATOM      2  C   UNL     1       5.095   6.316 -10.627  0.00  0.00    -0.015 A 
ATOM      3  C   UNL     1       5.898   5.691  -9.679  0.00  0.00    -0.004 A 
ATOM      4  C   UNL     1       7.263   5.947  -9.600  0.00  0.00    -0.000 A 
ATOM      5  C   UNL     1       7.810   6.994 -10.333  0.00  0.00    -0.000 A 
ATOM      6  C   UNL     1       6.894   7.883 -10.883  0.00  0.00    -0.000 A 
ATOM      7  C   UNL     1       5.566   7.532 -11.078  0.00  0.00    -0.004 A 
ENDBRANCH   1   2
BRANCH   1   8
ATOM      8  C   UNL     1       4.120   5.632 -12.782  0.00  0.00    +0.218 C 
BRANCH   8   9
ATOM      9  O   UNL     1       5.149   4.733 -13.193  0.00  0.00    -0.432 OA
BRANCH   9  11
ATOM     10  N   UNL     1       6.327   6.452 -14.520  0.00  0.00    -0.048 NA
ATOM     11  C   UNL     1       6.326   5.266 -13.715  0.00  0.00    +0.441 C 
ATOM     12  O   UNL     1       7.424   4.797 -13.288  0.00  0.00    -0.223 OA
ENDBRANCH   9  11
ENDBRANCH   8   9
ENDBRANCH   1   8
BRANCH   1  13
ATOM     13  C   UNL     1       2.707   6.080 -10.786  0.00  0.00    +0.218 C 
BRANCH  13  14
ATOM     14  O   UNL     1       1.931   5.082 -10.137  0.00  0.00    -0.432 OA
BRANCH  14  15
ATOM     15  C   UNL     1       2.261   4.700  -8.834  0.00  0.00    +0.441 C 
ATOM     16  O   UNL     1       2.685   3.521  -8.670  0.00  0.00    -0.223 OA
ATOM     17  N   UNL     1       2.638   5.642  -7.838  0.00  0.00    -0.048 NA
ENDBRANCH  14  15
ENDBRANCH  13  14
ENDBRANCH   1  13
TORSDOF 7
ENDMDL
MODEL 2
REMARK VINA RESULT:      -6.0      1.650      1.933
REMARK  Name = 
REMARK  7 active torsions:
REMARK  status: ('A' for Active; 'I' for Inactive)
REMARK    1  A    between atoms: C_2  and  O_4
REMARK    2  A    between atoms: O_4  and  C_5
REMARK    3  A    between atoms: C_5  and  C_6
REMARK    4  A    between atoms: C_6  and  C_7
REMARK    5  A    between atoms: C_6  and  C_12
REMARK    6  A    between atoms: C_7  and  O_8
REMARK    7  A    between atoms: O_8  and  C_9
REMARK                            x       y       z     vdW  Elec       q    Type
REMARK                         _______ _______ _______ _____ _____    ______ ____
ROOT
ATOM      1  C   UNL     1       3.887   5.458 -10.651  0.00  0.00    +0.110 C 
ENDROOT
BRANCH   1   2
ATOM      2  C   UNL     1       5.070   6.263 -10.282  0.00  0.00    -0.015 A 
ATOM      3  C   UNL     1       6.017   5.727  -9.416  0.00  0.00    -0.004 A 
ATOM      4  C   UNL     1       7.378   5.940  -9.606  0.00  0.00    -0.000 A 
ATOM      5  C   UNL     1       7.804   6.871 -10.546  0.00  0.00    -0.000 A 
ATOM      6  C   UNL     1       6.820   7.720 -11.037  0.00  0.00    -0.000 A 
ATOM      7  C   UNL     1       5.474   7.398 -10.955  0.00  0.00    -0.004 A 
ENDBRANCH   1   2
BRANCH   1   8
ATOM      8  C   UNL     1       2.992   6.190 -11.601  0.00  0.00    +0.218 C 
BRANCH   8   9
ATOM      9  O   UNL     1       2.728   5.312 -12.694  0.00  0.00    -0.432 OA
BRANCH   9  11
ATOM     10  N   UNL     1       3.528   6.148 -14.878  0.00  0.00    -0.048 NA
ATOM     11  C   UNL     1       3.640   5.273 -13.748  0.00  0.00    +0.441 C 
ATOM     12  O   UNL     1       4.694   4.587 -13.588  0.00  0.00    -0.223 OA
ENDBRANCH   9  11
ENDBRANCH   8   9
ENDBRANCH   1   8
BRANCH   1  13
ATOM     13  C   UNL     1       3.169   5.104  -9.372  0.00  0.00    +0.218 C 
BRANCH  13  14
ATOM     14  O   UNL     1       2.212   6.086  -9.000  0.00  0.00    -0.432 OA
BRANCH  14  15
ATOM     15  C   UNL     1       2.458   6.892  -7.886  0.00  0.00    +0.441 C 
ATOM     16  O   UNL     1       3.365   6.515  -7.092  0.00  0.00    -0.223 OA
ATOM     17  N   UNL     1       2.154   8.280  -7.869  0.00  0.00    -0.048 NA
ENDBRANCH  14  15
ENDBRANCH  13  14
ENDBRANCH   1  13
TORSDOF 7
ENDMDL
MODEL 3
REMARK VINA RESULT:      -6.0      6.926      9.164
REMARK  Name = 
REMARK  7 active torsions:
REMARK  status: ('A' for Active; 'I' for Inactive)
REMARK    1  A    between atoms: C_2  and  O_4
REMARK    2  A    between atoms: O_4  and  C_5
REMARK    3  A    between atoms: C_5  and  C_6
REMARK    4  A    between atoms: C_6  and  C_7
REMARK    5  A    between atoms: C_6  and  C_12
REMARK    6  A    between atoms: C_7  and  O_8
REMARK    7  A    between atoms: O_8  and  C_9
REMARK                            x       y       z     vdW  Elec       q    Type
REMARK                         _______ _______ _______ _____ _____    ______ ____
ROOT
ATOM      1  C   UNL     1       0.687   6.278  -3.637  0.00  0.00    +0.110 C 
ENDROOT
BRANCH   1   2
ATOM      2  C   UNL     1      -0.227   6.555  -4.764  0.00  0.00    -0.015 A 
ATOM      3  C   UNL     1      -0.151   5.773  -5.912  0.00  0.00    -0.004 A 
ATOM      4  C   UNL     1      -1.294   5.381  -6.600  0.00  0.00    -0.000 A 
ATOM      5  C   UNL     1      -2.522   5.942  -6.271  0.00  0.00    -0.000 A 
ATOM      6  C   UNL     1      -2.468   7.064  -5.453  0.00  0.00    -0.000 A 
ATOM      7  C   UNL     1      -1.358   7.340  -4.669  0.00  0.00    -0.004 A 
ENDBRANCH   1   2
BRANCH   1   8
ATOM      8  C   UNL     1       2.053   5.890  -4.112  0.00  0.00    +0.218 C 
BRANCH   8   9
ATOM      9  O   UNL     1       2.942   6.945  -3.745  0.00  0.00    -0.432 OA
BRANCH   9  11
ATOM     10  N   UNL     1       5.246   7.599  -4.352  0.00  0.00    -0.048 NA
ATOM     11  C   UNL     1       3.869   7.388  -4.687  0.00  0.00    +0.441 C 
ATOM     12  O   UNL     1       3.510   7.402  -5.903  0.00  0.00    -0.223 OA
ENDBRANCH   9  11
ENDBRANCH   8   9
ENDBRANCH   1   8
BRANCH   1  13
ATOM     13  C   UNL     1       0.058   5.186  -2.807  0.00  0.00    +0.218 C 
BRANCH  13  14
ATOM     14  O   UNL     1      -0.547   5.688  -1.623  0.00  0.00    -0.432 OA
BRANCH  14  15
ATOM     15  C   UNL     1      -1.941   5.736  -1.536  0.00  0.00    +0.441 C 
ATOM     16  O   UNL     1      -2.455   6.812  -1.121  0.00  0.00    -0.223 OA
ATOM     17  N   UNL     1      -2.781   4.911  -2.332  0.00  0.00    -0.048 NA
ENDBRANCH  14  15
ENDBRANCH  13  14
ENDBRANCH   1  13
TORSDOF 7
ENDMDL
MODEL 4
REMARK VINA RESULT:      -5.9      2.994      3.734
REMARK  Name = 
REMARK  7 active torsions:
REMARK  status: ('A' for Active; 'I' for Inactive)
REMARK    1  A    between atoms: C_2  and  O_4
REMARK    2  A    between atoms: O_4  and  C_5
REMARK    3  A    between atoms: C_5  and  C_6
REMARK    4  A    between atoms: C_6  and  C_7
REMARK    5  A    between atoms: C_6  and  C_12
REMARK    6  A    between atoms: C_7  and  O_8
REMARK    7  A    between atoms: O_8  and  C_9
REMARK                            x       y       z     vdW  Elec       q    Type
REMARK                         _______ _______ _______ _____ _____    ______ ____
ROOT
ATOM      1  C   UNL     1       3.977   5.260  -9.823  0.00  0.00    +0.110 C 
ENDROOT
BRANCH   1   2
ATOM      2  C   UNL     1       5.143   6.161  -9.924  0.00  0.00    -0.015 A 
ATOM      3  C   UNL     1       6.381   5.730  -9.458  0.00  0.00    -0.004 A 
ATOM      4  C   UNL     1       7.557   6.031 -10.135  0.00  0.00    -0.000 A 
ATOM      5  C   UNL     1       7.535   6.951 -11.178  0.00  0.00    -0.000 A 
ATOM      6  C   UNL     1       6.374   7.707 -11.284  0.00  0.00    -0.000 A 
ATOM      7  C   UNL     1       5.181   7.294 -10.711  0.00  0.00    -0.004 A 
ENDBRANCH   1   2
BRANCH   1   8
ATOM      8  C   UNL     1       2.896   5.641 -10.787  0.00  0.00    +0.218 C 
BRANCH   8   9
ATOM      9  O   UNL     1       1.689   5.033 -10.329  0.00  0.00    -0.432 OA
BRANCH   9  11
ATOM     10  N   UNL     1      -0.256   6.517 -10.681  0.00  0.00    -0.048 NA
ATOM     11  C   UNL     1       0.501   5.339 -10.991  0.00  0.00    +0.441 C 
ATOM     12  O   UNL     1       0.210   4.660 -12.021  0.00  0.00    -0.223 OA
ENDBRANCH   9  11
ENDBRANCH   8   9
ENDBRANCH   1   8
BRANCH   1  13
ATOM     13  C   UNL     1       3.491   5.311  -8.396  0.00  0.00    +0.218 C 
BRANCH  13  14
ATOM     14  O   UNL     1       3.479   6.634  -7.876  0.00  0.00    -0.432 OA
BRANCH  14  15
ATOM     15  C   UNL     1       2.260   7.217  -7.523  0.00  0.00    +0.441 C 
ATOM     16  O   UNL     1       2.064   8.409  -7.891  0.00  0.00    -0.223 OA
ATOM     17  N   UNL     1       1.094   6.445  -7.265  0.00  0.00    -0.048 NA
ENDBRANCH  14  15
ENDBRANCH  13  14
ENDBRANCH   1  13
TORSDOF 7
ENDMDL
MODEL 5
REMARK VINA RESULT:      -5.9      3.121      4.620
REMARK  Name = 
REMARK  7 active torsions:
REMARK  status: ('A' for Active; 'I' for Inactive)
REMARK    1  A    between atoms: C_2  and  O_4
REMARK    2  A    between atoms: O_4  and  C_5
REMARK    3  A    between atoms: C_5  and  C_6
REMARK    4  A    between atoms: C_6  and  C_7
REMARK    5  A    between atoms: C_6  and  C_12
REMARK    6  A    between atoms: C_7  and  O_8
REMARK    7  A    between atoms: O_8  and  C_9
REMARK                            x       y       z     vdW  Elec       q    Type
REMARK                         _______ _______ _______ _____ _____    ______ ____
ROOT
ATOM      1  C   UNL     1       3.811   5.746  -8.824  0.00  0.00    +0.110 C 
ENDROOT
BRANCH   1   2
ATOM      2  C   UNL     1       5.024   5.894  -9.656  0.00  0.00    -0.015 A 
ATOM      3  C   UNL     1       4.996   6.740 -10.759  0.00  0.00    -0.004 A 
ATOM      4  C   UNL     1       6.083   7.541 -11.089  0.00  0.00    -0.000 A 
ATOM      5  C   UNL     1       7.299   7.351 -10.442  0.00  0.00    -0.000 A 
ATOM      6  C   UNL     1       7.406   6.181  -9.699  0.00  0.00    -0.000 A 
ATOM      7  C   UNL     1       6.284   5.489  -9.265  0.00  0.00    -0.004 A 
ENDBRANCH   1   2
BRANCH   1   8
ATOM      8  C   UNL     1       4.134   5.779  -7.362  0.00  0.00    +0.218 C 
BRANCH   8   9
ATOM      9  O   UNL     1       3.610   7.000  -6.842  0.00  0.00    -0.432 OA
BRANCH   9  11
ATOM     10  N   UNL     1       1.176   6.705  -6.534  0.00  0.00    -0.048 NA
ATOM     11  C   UNL     1       2.297   7.346  -7.157  0.00  0.00    +0.441 C 
ATOM     12  O   UNL     1       2.114   8.388  -7.856  0.00  0.00    -0.223 OA
ENDBRANCH   9  11
ENDBRANCH   8   9
ENDBRANCH   1   8
BRANCH   1  13
ATOM     13  C   UNL     1       3.152   4.448  -9.218  0.00  0.00    +0.218 C 
BRANCH  13  14
ATOM     14  O   UNL     1       1.737   4.504  -9.104  0.00  0.00    -0.432 OA
BRANCH  14  15
ATOM     15  C   UNL     1       0.985   5.011 -10.168  0.00  0.00    +0.441 C 
ATOM     16  O   UNL     1       0.226   4.202 -10.772  0.00  0.00    -0.223 OA
ATOM     17  N   UNL     1       0.636   6.385 -10.265  0.00  0.00    -0.048 NA
ENDBRANCH  14  15
ENDBRANCH  13  14
ENDBRANCH   1  13
TORSDOF 7
ENDMDL
MODEL 6
REMARK VINA RESULT:      -5.9      2.716      3.361
REMARK  Name = 
REMARK  7 active torsions:
REMARK  status: ('A' for Active; 'I' for Inactive)
REMARK    1  A    between atoms: C_2  and  O_4
REMARK    2  A    between atoms: O_4  and  C_5
REMARK    3  A    between atoms: C_5  and  C_6
REMARK    4  A    between atoms: C_6  and  C_7
REMARK    5  A    between atoms: C_6  and  C_12
REMARK    6  A    between atoms: C_7  and  O_8
REMARK    7  A    between atoms: O_8  and  C_9
REMARK                            x       y       z     vdW  Elec       q    Type
REMARK                         _______ _______ _______ _____ _____    ______ ____
ROOT
ATOM      1  C   UNL     1       3.749   5.191 -10.089  0.00  0.00    +0.110 C 
ENDROOT
BRANCH   1   2
ATOM      2  C   UNL     1       4.923   6.075  -9.939  0.00  0.00    -0.015 A 
ATOM      3  C   UNL     1       6.010   5.643  -9.188  0.00  0.00    -0.004 A 
ATOM      4  C   UNL     1       7.317   5.910  -9.581  0.00  0.00    -0.000 A 
ATOM      5  C   UNL     1       7.554   6.800 -10.623  0.00  0.00    -0.000 A 
ATOM      6  C   UNL     1       6.464   7.567 -11.015  0.00  0.00    -0.000 A 
ATOM      7  C   UNL     1       5.162   7.184 -10.724  0.00  0.00    -0.004 A 
ENDBRANCH   1   2
BRANCH   1   8
ATOM      8  C   UNL     1       2.469   5.969 -10.125  0.00  0.00    +0.218 C 
BRANCH   8   9
ATOM      9  O   UNL     1       1.961   5.883 -11.455  0.00  0.00    -0.432 OA
BRANCH   9  11
ATOM     10  N   UNL     1       0.556   4.564 -13.003  0.00  0.00    -0.048 NA
ATOM     11  C   UNL     1       0.862   5.059 -11.693  0.00  0.00    +0.441 C 
ATOM     12  O   UNL     1       0.255   4.583 -10.686  0.00  0.00    -0.223 OA
ENDBRANCH   9  11
ENDBRANCH   8   9
ENDBRANCH   1   8
BRANCH   1  13
ATOM     13  C   UNL     1       3.773   4.214  -8.940  0.00  0.00    +0.218 C 
BRANCH  13  14
ATOM     14  O   UNL     1       2.520   4.134  -8.272  0.00  0.00    -0.432 OA
BRANCH  14  15
ATOM     15  C   UNL     1       2.482   4.228  -6.879  0.00  0.00    +0.441 C 
ATOM     16  O   UNL     1       3.247   5.075  -6.338  0.00  0.00    -0.223 OA
ATOM     17  N   UNL     1       1.342   3.845  -6.122  0.00  0.00    -0.048 NA
ENDBRANCH  14  15
ENDBRANCH  13  14
ENDBRANCH   1  13
TORSDOF 7
ENDMDL
MODEL 7
REMARK VINA RESULT:      -5.8      2.824      4.257
REMARK  Name = 
REMARK  7 active torsions:
REMARK  status: ('A' for Active; 'I' for Inactive)
REMARK    1  A    between atoms: C_2  and  O_4
REMARK    2  A    between atoms: O_4  and  C_5
REMARK    3  A    between atoms: C_5  and  C_6
REMARK    4  A    between atoms: C_6  and  C_7
REMARK    5  A    between atoms: C_6  and  C_12
REMARK    6  A    between atoms: C_7  and  O_8
REMARK    7  A    between atoms: O_8  and  C_9
REMARK                            x       y       z     vdW  Elec       q    Type
REMARK                         _______ _______ _______ _____ _____    ______ ____
ROOT
ATOM      1  C   UNL     1       4.200   6.340  -9.666  0.00  0.00    +0.110 C 
ENDROOT
BRANCH   1   2
ATOM      2  C   UNL     1       5.595   6.643 -10.049  0.00  0.00    -0.015 A 
ATOM      3  C   UNL     1       6.626   5.852  -9.554  0.00  0.00    -0.004 A 
ATOM      4  C   UNL     1       7.713   5.497 -10.345  0.00  0.00    -0.000 A 
ATOM      5  C   UNL     1       7.892   6.105 -11.582  0.00  0.00    -0.000 A 
ATOM      6  C   UNL     1       7.109   7.229 -11.816  0.00  0.00    -0.000 A 
ATOM      7  C   UNL     1       5.948   7.469 -11.097  0.00  0.00    -0.004 A 
ENDBRANCH   1   2
BRANCH   1   8
ATOM      8  C   UNL     1       4.136   5.496  -8.431  0.00  0.00    +0.218 C 
BRANCH   8   9
ATOM      9  O   UNL     1       2.958   5.877  -7.721  0.00  0.00    -0.432 OA
BRANCH   9  11
ATOM     10  N   UNL     1       2.081   8.184  -7.853  0.00  0.00    -0.048 NA
ATOM     11  C   UNL     1       2.878   7.175  -7.219  0.00  0.00    +0.441 C 
ATOM     12  O   UNL     1       3.361   7.390  -6.066  0.00  0.00    -0.223 OA
ENDBRANCH   9  11
ENDBRANCH   8   9
ENDBRANCH   1   8
BRANCH   1  13
ATOM     13  C   UNL     1       3.551   5.653 -10.842  0.00  0.00    +0.218 C 
BRANCH  13  14
ATOM     14  O   UNL     1       2.432   6.374 -11.339  0.00  0.00    -0.432 OA
BRANCH  14  15
ATOM     15  C   UNL     1       1.183   6.196 -10.736  0.00  0.00    +0.441 C 
ATOM     16  O   UNL     1       0.286   7.042 -11.011  0.00  0.00    -0.223 OA
ATOM     17  N   UNL     1       0.727   4.925 -10.294  0.00  0.00    -0.048 NA
ENDBRANCH  14  15
ENDBRANCH  13  14
ENDBRANCH   1  13
TORSDOF 7
ENDMDL
MODEL 8
REMARK VINA RESULT:      -5.8      2.026      4.631
REMARK  Name = 
REMARK  7 active torsions:
REMARK  status: ('A' for Active; 'I' for Inactive)
REMARK    1  A    between atoms: C_2  and  O_4
REMARK    2  A    between atoms: O_4  and  C_5
REMARK    3  A    between atoms: C_5  and  C_6
REMARK    4  A    between atoms: C_6  and  C_7
REMARK    5  A    between atoms: C_6  and  C_12
REMARK    6  A    between atoms: C_7  and  O_8
REMARK    7  A    between atoms: O_8  and  C_9
REMARK                            x       y       z     vdW  Elec       q    Type
REMARK                         _______ _______ _______ _____ _____    ______ ____
ROOT
ATOM      1  C   UNL     1       4.130   6.271  -9.886  0.00  0.00    +0.110 C 
ENDROOT
BRANCH   1   2
ATOM      2  C   UNL     1       5.516   6.659 -10.217  0.00  0.00    -0.015 A 
ATOM      3  C   UNL     1       6.563   5.810  -9.873  0.00  0.00    -0.004 A 
ATOM      4  C   UNL     1       7.649   5.615 -10.718  0.00  0.00    -0.000 A 
ATOM      5  C   UNL     1       7.810   6.431 -11.832  0.00  0.00    -0.000 A 
ATOM      6  C   UNL     1       7.009   7.567 -11.863  0.00  0.00    -0.000 A 
ATOM      7  C   UNL     1       5.849   7.660 -11.107  0.00  0.00    -0.004 A 
ENDBRANCH   1   2
BRANCH   1   8
ATOM      8  C   UNL     1       4.032   5.677  -8.515  0.00  0.00    +0.218 C 
BRANCH   8   9
ATOM      9  O   UNL     1       3.521   6.692  -7.651  0.00  0.00    -0.432 OA
BRANCH   9  11
ATOM     10  N   UNL     1       1.094   6.320  -7.930  0.00  0.00    -0.048 NA
ATOM     11  C   UNL     1       2.238   7.182  -7.892  0.00  0.00    +0.441 C 
ATOM     12  O   UNL     1       2.076   8.440  -7.869  0.00  0.00    -0.223 OA
ENDBRANCH   9  11
ENDBRANCH   8   9
ENDBRANCH   1   8
BRANCH   1  13
ATOM     13  C   UNL     1       3.670   5.300 -10.945  0.00  0.00    +0.218 C 
BRANCH  13  14
ATOM     14  O   UNL     1       3.453   5.932 -12.200  0.00  0.00    -0.432 OA
BRANCH  14  15
ATOM     15  C   UNL     1       3.876   5.293 -13.368  0.00  0.00    +0.441 C 
ATOM     16  O   UNL     1       5.014   4.745 -13.345  0.00  0.00    -0.223 OA
ATOM     17  N   UNL     1       2.962   4.789 -14.333  0.00  0.00    -0.048 NA
ENDBRANCH  14  15
ENDBRANCH  13  14
ENDBRANCH   1  13
TORSDOF 7
ENDMDL
MODEL 9
REMARK VINA RESULT:      -5.8      4.288      7.288
REMARK  Name = 
REMARK  7 active torsions:
REMARK  status: ('A' for Active; 'I' for Inactive)
REMARK    1  A    between atoms: C_2  and  O_4
REMARK    2  A    between atoms: O_4  and  C_5
REMARK    3  A    between atoms: C_5  and  C_6
REMARK    4  A    between atoms: C_6  and  C_7
REMARK    5  A    between atoms: C_6  and  C_12
REMARK    6  A    between atoms: C_7  and  O_8
REMARK    7  A    between atoms: O_8  and  C_9
REMARK                            x       y       z     vdW  Elec       q    Type
REMARK                         _______ _______ _______ _____ _____    ______ ____
ROOT
ATOM      1  C   UNL     1       1.185   6.139  -7.120  0.00  0.00    +0.110 C 
ENDROOT
BRANCH   1   2
ATOM      2  C   UNL     1      -0.021   6.028  -6.274  0.00  0.00    -0.015 A 
ATOM      3  C   UNL     1      -0.144   6.840  -5.151  0.00  0.00    -0.004 A 
ATOM      4  C   UNL     1      -1.362   7.405  -4.792  0.00  0.00    -0.000 A 
ATOM      5  C   UNL     1      -2.526   6.995  -5.433  0.00  0.00    -0.000 A 
ATOM      6  C   UNL     1      -2.412   5.843  -6.202  0.00  0.00    -0.000 A 
ATOM      7  C   UNL     1      -1.183   5.394  -6.662  0.00  0.00    -0.004 A 
ENDBRANCH   1   2
BRANCH   1   8
ATOM      8  C   UNL     1       1.741   7.529  -7.115  0.00  0.00    +0.218 C 
BRANCH   8   9
ATOM      9  O   UNL     1       3.145   7.422  -6.883  0.00  0.00    -0.432 OA
BRANCH   9  11
ATOM     10  N   UNL     1       4.479   5.666  -5.767  0.00  0.00    -0.048 NA
ATOM     11  C   UNL     1       3.579   6.780  -5.724  0.00  0.00    +0.441 C 
ATOM     12  O   UNL     1       3.323   7.337  -4.614  0.00  0.00    -0.223 OA
ENDBRANCH   9  11
ENDBRANCH   8   9
ENDBRANCH   1   8
BRANCH   1  13
ATOM     13  C   UNL     1       0.800   5.701  -8.511  0.00  0.00    +0.218 C 
BRANCH  13  14
ATOM     14  O   UNL     1       1.933   5.418  -9.322  0.00  0.00    -0.432 OA
BRANCH  14  15
ATOM     15  C   UNL     1       2.893   4.514  -8.862  0.00  0.00    +0.441 C 
ATOM     16  O   UNL     1       2.505   3.337  -8.617  0.00  0.00    -0.223 OA
ATOM     17  N   UNL     1       4.278   4.667  -9.142  0.00  0.00    -0.048 NA
ENDBRANCH  14  15
ENDBRANCH  13  14
ENDBRANCH   1  13
TORSDOF 7
ENDMDL
