MODEL 1
REMARK VINA RESULT:      -4.6      0.000      0.000
REMARK  Name = 
REMARK  5 active torsions:
REMARK  status: ('A' for Active; 'I' for Inactive)
REMARK    1  A    between atoms: N_2  and  N_3
REMARK    2  A    between atoms: N_3  and  C_4
REMARK    3  A    between atoms: C_4  and  C_5
REMARK    4  A    between atoms: N_9  and  C_10
REMARK    5  A    between atoms: C_10  and  C_11
REMARK                            x       y       z     vdW  Elec       q    Type
REMARK                         _______ _______ _______ _____ _____    ______ ____
ROOT
ATOM      1  N   UNL     1      -0.993   5.794  -3.467  0.00  0.00    -0.127 N 
ATOM      2  C   UNL     1       0.362   5.762  -3.932  0.00  0.00    +0.345 C 
ATOM      3  N   UNL     1       1.286   6.789  -3.571  0.00  0.00    -0.186 NA
ATOM      4  O   UNL     1       0.684   4.765  -4.630  0.00  0.00    -0.249 OA
ENDROOT
BRANCH   1   6
ATOM      5  O   UNL     1      -2.490   4.873  -2.057  0.00  0.00    -0.126 OA
ATOM      6  N   UNL     1      -1.279   5.034  -2.316  0.00  0.00    +0.053 NA
ENDBRANCH   1   6
BRANCH   3   7
ATOM      7  C   UNL     1       2.586   6.783  -4.190  0.00  0.00    +0.134 C 
BRANCH   7   8
ATOM      8  C   UNL     1       3.646   7.451  -3.342  0.00  0.00    +0.118 C 
ATOM      9 CL   UNL     1       5.072   7.873  -4.318  0.00  0.00    -0.112 Cl
ENDBRANCH   7   8
ENDBRANCH   3   7
BRANCH   1  10
ATOM     10  C   UNL     1      -1.996   5.725  -4.527  0.00  0.00    +0.141 C 
BRANCH  10  11
ATOM     11  C   UNL     1      -1.990   6.948  -5.401  0.00  0.00    +0.119 C 
ATOM     12 CL   UNL     1      -1.969   8.397  -4.385  0.00  0.00    -0.112 Cl
ENDBRANCH  10  11
ENDBRANCH   1  10
TORSDOF 5
ENDMDL
MODEL 2
REMARK VINA RESULT:      -4.4      2.541      5.599
REMARK  Name = 
REMARK  5 active torsions:
REMARK  status: ('A' for Active; 'I' for Inactive)
REMARK    1  A    between atoms: N_2  and  N_3
REMARK    2  A    between atoms: N_3  and  C_4
REMARK    3  A    between atoms: C_4  and  C_5
REMARK    4  A    between atoms: N_9  and  C_10
REMARK    5  A    between atoms: C_10  and  C_11
REMARK                            x       y       z     vdW  Elec       q    Type
REMARK                         _______ _______ _______ _____ _____    ______ ____
ROOT
ATOM      1  N   UNL     1       2.084   7.070  -6.171  0.00  0.00    -0.127 N 
ATOM      2  C   UNL     1       0.994   6.373  -5.554  0.00  0.00    +0.345 C 
ATOM      3  N   UNL     1      -0.072   7.087  -4.928  0.00  0.00    -0.186 NA
ATOM      4  O   UNL     1       1.022   5.117  -5.639  0.00  0.00    -0.249 OA
ENDROOT
BRANCH   1   6
ATOM      5  O   UNL     1       2.123   8.451  -7.952  0.00  0.00    -0.126 OA
ATOM      6  N   UNL     1       1.992   7.271  -7.563  0.00  0.00    +0.053 NA
ENDBRANCH   1   6
BRANCH   3   7
ATOM      7  C   UNL     1      -1.057   6.335  -4.196  0.00  0.00    +0.134 C 
BRANCH   7   8
ATOM      8  C   UNL     1      -2.438   6.419  -4.807  0.00  0.00    +0.118 C 
ATOM      9 CL   UNL     1      -2.499   5.572  -6.370  0.00  0.00    -0.112 Cl
ENDBRANCH   7   8
ENDBRANCH   3   7
BRANCH   1  10
ATOM     10  C   UNL     1       3.404   6.678  -5.682  0.00  0.00    +0.141 C 
BRANCH  10  11
ATOM     11  C   UNL     1       3.657   7.150  -4.277  0.00  0.00    +0.119 C 
ATOM     12 CL   UNL     1       5.240   7.937  -4.197  0.00  0.00    -0.112 Cl
ENDBRANCH  10  11
ENDBRANCH   1  10
TORSDOF 5
ENDMDL
MODEL 3
REMARK VINA RESULT:      -4.4      1.450      1.584
REMARK  Name = 
REMARK  5 active torsions:
REMARK  status: ('A' for Active; 'I' for Inactive)
REMARK    1  A    between atoms: N_2  and  N_3
REMARK    2  A    between atoms: N_3  and  C_4
REMARK    3  A    between atoms: C_4  and  C_5
REMARK    4  A    between atoms: N_9  and  C_10
REMARK    5  A    between atoms: C_10  and  C_11
REMARK                            x       y       z     vdW  Elec       q    Type
REMARK                         _______ _______ _______ _____ _____    ______ ____
ROOT
ATOM      1  N   UNL     1      -0.575   5.745  -3.259  0.00  0.00    -0.127 N 
ATOM      2  C   UNL     1       0.649   5.695  -4.002  0.00  0.00    +0.345 C 
ATOM      3  N   UNL     1       1.686   6.649  -3.771  0.00  0.00    -0.186 NA
ATOM      4  O   UNL     1       0.760   4.747  -4.823  0.00  0.00    -0.249 OA
ENDROOT
BRANCH   1   6
ATOM      5  O   UNL     1       0.429   4.572  -1.617  0.00  0.00    -0.126 OA
ATOM      6  N   UNL     1      -0.660   4.904  -2.132  0.00  0.00    +0.053 NA
ENDBRANCH   1   6
BRANCH   3   7
ATOM      7  C   UNL     1       2.826   6.641  -4.649  0.00  0.00    +0.134 C 
BRANCH   7   8
ATOM      8  C   UNL     1       4.140   6.505  -3.911  0.00  0.00    +0.118 C 
ATOM      9 CL   UNL     1       5.200   7.897  -4.230  0.00  0.00    -0.112 Cl
ENDBRANCH   7   8
ENDBRANCH   3   7
BRANCH   1  10
ATOM     10  C   UNL     1      -1.779   5.806  -4.085  0.00  0.00    +0.141 C 
BRANCH  10  11
ATOM     11  C   UNL     1      -2.983   5.243  -3.383  0.00  0.00    +0.119 C 
ATOM     12 CL   UNL     1      -3.831   6.544  -2.535  0.00  0.00    -0.112 Cl
ENDBRANCH  10  11
ENDBRANCH   1  10
TORSDOF 5
ENDMDL
MODEL 4
REMARK VINA RESULT:      -4.4      3.395      3.909
REMARK  Name = 
REMARK  5 active torsions:
REMARK  status: ('A' for Active; 'I' for Inactive)
REMARK    1  A    between atoms: N_2  and  N_3
REMARK    2  A    between atoms: N_3  and  C_4
REMARK    3  A    between atoms: C_4  and  C_5
REMARK    4  A    between atoms: N_9  and  C_10
REMARK    5  A    between atoms: C_10  and  C_11
REMARK                            x       y       z     vdW  Elec       q    Type
REMARK                         _______ _______ _______ _____ _____    ______ ____
ROOT
ATOM      1  N   UNL     1      -1.475   5.594  -2.912  0.00  0.00    -0.127 N 
ATOM      2  C   UNL     1      -0.632   5.649  -1.754  0.00  0.00    +0.345 C 
ATOM      3  N   UNL     1      -0.743   6.721  -0.818  0.00  0.00    -0.186 NA
ATOM      4  O   UNL     1       0.163   4.685  -1.602  0.00  0.00    -0.249 OA
ENDROOT
BRANCH   1   6
ATOM      5  O   UNL     1      -3.716   5.381  -3.015  0.00  0.00    -0.126 OA
ATOM      6  N   UNL     1      -2.632   4.796  -2.808  0.00  0.00    +0.053 NA
ENDBRANCH   1   6
BRANCH   3   7
ATOM      7  C   UNL     1       0.228   6.803   0.241  0.00  0.00    +0.134 C 
BRANCH   7   8
ATOM      8  C   UNL     1      -0.326   7.423   1.505  0.00  0.00    +0.118 C 
ATOM      9 CL   UNL     1      -1.467   8.734   1.126  0.00  0.00    -0.112 Cl
ENDBRANCH   7   8
ENDBRANCH   3   7
BRANCH   1  10
ATOM     10  C   UNL     1      -0.753   5.485  -4.178  0.00  0.00    +0.141 C 
BRANCH  10  11
ATOM     11  C   UNL     1      -1.219   6.494  -5.191  0.00  0.00    +0.119 C 
ATOM     12 CL   UNL     1      -2.364   5.727  -6.300  0.00  0.00    -0.112 Cl
ENDBRANCH  10  11
ENDBRANCH   1  10
TORSDOF 5
ENDMDL
MODEL 5
REMARK VINA RESULT:      -4.4      7.834      9.804
REMARK  Name = 
REMARK  5 active torsions:
REMARK  status: ('A' for Active; 'I' for Inactive)
REMARK    1  A    between atoms: N_2  and  N_3
REMARK    2  A    between atoms: N_3  and  C_4
REMARK    3  A    between atoms: C_4  and  C_5
REMARK    4  A    between atoms: N_9  and  C_10
REMARK    5  A    between atoms: C_10  and  C_11
REMARK                            x       y       z     vdW  Elec       q    Type
REMARK                         _______ _______ _______ _____ _____    ______ ____
ROOT
ATOM      1  N   UNL     1       5.006   6.147 -11.829  0.00  0.00    -0.127 N 
ATOM      2  C   UNL     1       3.845   5.682 -11.130  0.00  0.00    +0.345 C 
ATOM      3  N   UNL     1       2.548   5.771 -11.722  0.00  0.00    -0.186 NA
ATOM      4  O   UNL     1       4.048   5.162 -10.002  0.00  0.00    -0.249 OA
ENDROOT
BRANCH   1   6
ATOM      5  O   UNL     1       5.178   4.669 -13.522  0.00  0.00    -0.126 OA
ATOM      6  N   UNL     1       5.747   5.176 -12.531  0.00  0.00    +0.053 NA
ENDBRANCH   1   6
BRANCH   3   7
ATOM      7  C   UNL     1       1.407   5.429 -10.916  0.00  0.00    +0.134 C 
BRANCH   7   8
ATOM      8  C   UNL     1       0.723   6.637 -10.315  0.00  0.00    +0.118 C 
ATOM      9 CL   UNL     1      -0.317   7.444 -11.512  0.00  0.00    -0.112 Cl
ENDBRANCH   7   8
ENDBRANCH   3   7
BRANCH   1  10
ATOM     10  C   UNL     1       5.801   7.126 -11.091  0.00  0.00    +0.141 C 
BRANCH  10  11
ATOM     11  C   UNL     1       7.239   6.708 -10.954  0.00  0.00    +0.119 C 
ATOM     12 CL   UNL     1       7.459   5.849  -9.423  0.00  0.00    -0.112 Cl
ENDBRANCH  10  11
ENDBRANCH   1  10
TORSDOF 5
ENDMDL
MODEL 6
REMARK VINA RESULT:      -4.4      6.063      6.804
REMARK  Name = 
REMARK  5 active torsions:
REMARK  status: ('A' for Active; 'I' for Inactive)
REMARK    1  A    between atoms: N_2  and  N_3
REMARK    2  A    between atoms: N_3  and  C_4
REMARK    3  A    between atoms: C_4  and  C_5
REMARK    4  A    between atoms: N_9  and  C_10
REMARK    5  A    between atoms: C_10  and  C_11
REMARK                            x       y       z     vdW  Elec       q    Type
REMARK                         _______ _______ _______ _____ _____    ______ ____
ROOT
ATOM      1  N   UNL     1       2.714   6.473  -8.840  0.00  0.00    -0.127 N 
ATOM      2  C   UNL     1       3.929   6.264  -9.571  0.00  0.00    +0.345 C 
ATOM      3  N   UNL     1       4.211   7.014 -10.754  0.00  0.00    -0.186 NA
ATOM      4  O   UNL     1       4.729   5.423  -9.086  0.00  0.00    -0.249 OA
ENDROOT
BRANCH   1   6
ATOM      5  O   UNL     1       2.095   8.381  -7.812  0.00  0.00    -0.126 OA
ATOM      6  N   UNL     1       2.789   7.346  -7.736  0.00  0.00    +0.053 NA
ENDBRANCH   1   6
BRANCH   3   7
ATOM      7  C   UNL     1       5.371   6.655 -11.526  0.00  0.00    +0.134 C 
BRANCH   7   8
ATOM      8  C   UNL     1       6.500   7.654 -11.396  0.00  0.00    +0.118 C 
ATOM      9 CL   UNL     1       7.718   7.094 -10.228  0.00  0.00    -0.112 Cl
ENDBRANCH   7   8
ENDBRANCH   3   7
BRANCH   1  10
ATOM     10  C   UNL     1       1.923   5.264  -8.628  0.00  0.00    +0.141 C 
BRANCH  10  11
ATOM     11  C   UNL     1       0.498   5.425  -9.082  0.00  0.00    +0.119 C 
ATOM     12 CL   UNL     1      -0.571   5.427  -7.673  0.00  0.00    -0.112 Cl
ENDBRANCH  10  11
ENDBRANCH   1  10
TORSDOF 5
ENDMDL
MODEL 7
REMARK VINA RESULT:      -4.2      2.915      3.607
REMARK  Name = 
REMARK  5 active torsions:
REMARK  status: ('A' for Active; 'I' for Inactive)
REMARK    1  A    between atoms: N_2  and  N_3
REMARK    2  A    between atoms: N_3  and  C_4
REMARK    3  A    between atoms: C_4  and  C_5
REMARK    4  A    between atoms: N_9  and  C_10
REMARK    5  A    between atoms: C_10  and  C_11
REMARK                            x       y       z     vdW  Elec       q    Type
REMARK                         _______ _______ _______ _____ _____    ______ ____
ROOT
ATOM      1  N   UNL     1      -0.965   5.301  -3.104  0.00  0.00    -0.127 N 
ATOM      2  C   UNL     1      -0.629   5.921  -4.352  0.00  0.00    +0.345 C 
ATOM      3  N   UNL     1      -0.159   5.143  -5.453  0.00  0.00    -0.186 NA
ATOM      4  O   UNL     1      -0.813   7.164  -4.420  0.00  0.00    -0.249 OA
ENDROOT
BRANCH   1   6
ATOM      5  O   UNL     1      -2.708   4.984  -1.711  0.00  0.00    -0.126 OA
ATOM      6  N   UNL     1      -2.326   5.000  -2.900  0.00  0.00    +0.053 NA
ENDBRANCH   1   6
BRANCH   3   7
ATOM      7  C   UNL     1       0.305   5.836  -6.626  0.00  0.00    +0.134 C 
BRANCH   7   8
ATOM      8  C   UNL     1       1.508   5.177  -7.265  0.00  0.00    +0.118 C 
ATOM      9 CL   UNL     1       2.013   3.740  -6.346  0.00  0.00    -0.112 Cl
ENDBRANCH   7   8
ENDBRANCH   3   7
BRANCH   1  10
ATOM     10  C   UNL     1      -0.268   5.859  -1.947  0.00  0.00    +0.141 C 
BRANCH  10  11
ATOM     11  C   UNL     1       0.849   4.974  -1.470  0.00  0.00    +0.119 C 
ATOM     12 CL   UNL     1       2.336   5.385  -2.337  0.00  0.00    -0.112 Cl
ENDBRANCH  10  11
ENDBRANCH   1  10
TORSDOF 5
ENDMDL
MODEL 8
REMARK VINA RESULT:      -4.2      1.656      4.912
REMARK  Name = 
REMARK  5 active torsions:
REMARK  status: ('A' for Active; 'I' for Inactive)
REMARK    1  A    between atoms: N_2  and  N_3
REMARK    2  A    between atoms: N_3  and  C_4
REMARK    3  A    between atoms: C_4  and  C_5
REMARK    4  A    between atoms: N_9  and  C_10
REMARK    5  A    between atoms: C_10  and  C_11
REMARK                            x       y       z     vdW  Elec       q    Type
REMARK                         _______ _______ _______ _____ _____    ______ ____
ROOT
ATOM      1  N   UNL     1       1.570   5.717  -5.003  0.00  0.00    -0.127 N 
ATOM      2  C   UNL     1       0.401   5.525  -4.195  0.00  0.00    +0.345 C 
ATOM      3  N   UNL     1      -0.906   5.663  -4.753  0.00  0.00    -0.186 NA
ATOM      4  O   UNL     1       0.604   5.192  -2.999  0.00  0.00    -0.249 OA
ENDROOT
BRANCH   1   6
ATOM      5  O   UNL     1       1.370   3.734  -6.056  0.00  0.00    -0.126 OA
ATOM      6  N   UNL     1       2.158   4.555  -5.541  0.00  0.00    +0.053 NA
ENDBRANCH   1   6
BRANCH   3   7
ATOM      7  C   UNL     1      -2.035   5.608  -3.863  0.00  0.00    +0.134 C 
BRANCH   7   8
ATOM      8  C   UNL     1      -2.483   6.974  -3.392  0.00  0.00    +0.118 C 
ATOM      9 CL   UNL     1      -1.942   8.246  -4.511  0.00  0.00    -0.112 Cl
ENDBRANCH   7   8
ENDBRANCH   3   7
BRANCH   1  10
ATOM     10  C   UNL     1       2.507   6.707  -4.480  0.00  0.00    +0.141 C 
BRANCH  10  11
ATOM     11  C   UNL     1       3.934   6.383  -4.825  0.00  0.00    +0.119 C 
ATOM     12 CL   UNL     1       4.967   7.758  -4.408  0.00  0.00    -0.112 Cl
ENDBRANCH  10  11
ENDBRANCH   1  10
TORSDOF 5
ENDMDL
MODEL 9
REMARK VINA RESULT:      -4.1      4.073      6.235
REMARK  Name = 
REMARK  5 active torsions:
REMARK  status: ('A' for Active; 'I' for Inactive)
REMARK    1  A    between atoms: N_2  and  N_3
REMARK    2  A    between atoms: N_3  and  C_4
REMARK    3  A    between atoms: C_4  and  C_5
REMARK    4  A    between atoms: N_9  and  C_10
REMARK    5  A    between atoms: C_10  and  C_11
REMARK                            x       y       z     vdW  Elec       q    Type
REMARK                         _______ _______ _______ _____ _____    ______ ____
ROOT
ATOM      1  N   UNL     1       2.280   6.001  -8.070  0.00  0.00    -0.127 N 
ATOM      2  C   UNL     1       0.987   5.866  -7.468  0.00  0.00    +0.345 C 
ATOM      3  N   UNL     1       0.820   5.986  -6.055  0.00  0.00    -0.186 NA
ATOM      4  O   UNL     1       0.024   5.680  -8.258  0.00  0.00    -0.249 OA
ENDROOT
BRANCH   1   6
ATOM      5  O   UNL     1       2.192   8.248  -7.923  0.00  0.00    -0.126 OA
ATOM      6  N   UNL     1       2.601   7.272  -8.587  0.00  0.00    +0.053 NA
ENDBRANCH   1   6
BRANCH   3   7
ATOM      7  C   UNL     1      -0.472   5.692  -5.495  0.00  0.00    +0.134 C 
BRANCH   7   8
ATOM      8  C   UNL     1      -1.009   6.809  -4.627  0.00  0.00    +0.118 C 
ATOM      9 CL   UNL     1      -2.554   7.424  -5.260  0.00  0.00    -0.112 Cl
ENDBRANCH   7   8
ENDBRANCH   3   7
BRANCH   1  10
ATOM     10  C   UNL     1       2.677   4.869  -8.904  0.00  0.00    +0.141 C 
BRANCH  10  11
ATOM     11  C   UNL     1       4.016   5.080  -9.555  0.00  0.00    +0.119 C 
ATOM     12 CL   UNL     1       5.282   5.045  -8.319  0.00  0.00    -0.112 Cl
ENDBRANCH  10  11
ENDBRANCH   1  10
TORSDOF 5
ENDMDL
