MODEL 1
REMARK VINA RESULT:      -7.9      0.000      0.000
REMARK  Name = 
REMARK  10 active torsions:
REMARK  status: ('A' for Active; 'I' for Inactive)
REMARK    1  A    between atoms: C_2  and  N_3
REMARK    2  A    between atoms: N_3  and  C_4
REMARK    3  A    between atoms: N_3  and  C_6
REMARK    4  A    between atoms: C_6  and  C_7
REMARK    5  A    between atoms: C_8  and  C_9
REMARK    6  A    between atoms: C_9  and  O_10
REMARK    7  A    between atoms: O_10  and  C_11
REMARK    8  A    between atoms: C_11  and  C_13
REMARK    9  A    between atoms: C_13  and  C_15
REMARK   10  A    between atoms: C_13  and  C_21
REMARK                            x       y       z     vdW  Elec       q    Type
REMARK                         _______ _______ _______ _____ _____    ______ ____
ROOT
ATOM      1  C   UNL     1       1.213   5.042  -6.493  0.00  0.00    +0.233 C 
ATOM      2  O   UNL     1       1.095   3.721  -6.039  0.00  0.00    -0.210 OA
ENDROOT
BRANCH   1   3
ATOM      3  C   UNL     1       2.353   5.639  -5.734  0.00  0.00    +0.015 A 
ATOM      4  C   UNL     1       3.003   4.789  -4.849  0.00  0.00    -0.001 A 
ATOM      5  C   UNL     1       4.260   5.072  -4.381  0.00  0.00    -0.000 A 
ATOM      6  C   UNL     1       4.858   6.239  -4.827  0.00  0.00    -0.000 A 
ATOM      7  C   UNL     1       4.047   7.222  -5.381  0.00  0.00    -0.000 A 
ATOM      8  C   UNL     1       2.846   6.895  -5.988  0.00  0.00    -0.001 A 
ENDBRANCH   1   3
BRANCH   1   9
ATOM      9  C   UNL     1      -0.010   5.816  -6.122  0.00  0.00    +0.043 C 
ATOM     10  C   UNL     1       0.030   6.421  -4.751  0.00  0.00    +0.003 C 
ATOM     11  C   UNL     1      -1.036   7.509  -4.722  0.00  0.00    +0.000 C 
ATOM     12  C   UNL     1      -2.385   6.866  -5.020  0.00  0.00    +0.000 C 
ATOM     13  C   UNL     1      -2.392   6.197  -6.385  0.00  0.00    +0.000 C 
ATOM     14  C   UNL     1      -1.304   5.130  -6.447  0.00  0.00    +0.003 C 
ENDBRANCH   1   9
BRANCH   1  15
ATOM     15  C   UNL     1       1.483   5.039  -7.958  0.00  0.00    +0.350 C 
ATOM     16  O   UNL     1       1.050   5.935  -8.715  0.00  0.00    -0.247 OA
BRANCH  15  17
ATOM     17  O   UNL     1       2.566   4.304  -8.394  0.00  0.00    -0.432 OA
BRANCH  17  18
ATOM     18  C   UNL     1       3.367   4.628  -9.499  0.00  0.00    +0.284 C 
BRANCH  18  20
ATOM     19  C   UNL     1       5.809   5.441  -9.018  0.00  0.00    -0.069 C 
ATOM     20  C   UNL     1       4.734   4.872  -9.008  0.00  0.00    -0.042 C 
BRANCH  19  21
ATOM     21  C   UNL     1       7.212   5.862  -9.183  0.00  0.00    +0.150 C 
BRANCH  21  22
ATOM     22  N   UNL     1       7.453   6.374 -10.527  0.00  0.00    -0.262 NA
BRANCH  22  23
ATOM     23  C   UNL     1       6.235   7.002 -11.028  0.00  0.00    +0.073 C 
ATOM     24  C   UNL     1       6.527   8.441 -11.400  0.00  0.00    +0.019 C 
ENDBRANCH  22  23
BRANCH  22  26
ATOM     25  C   UNL     1       7.986   5.188 -12.098  0.00  0.00    +0.019 C 
ATOM     26  C   UNL     1       7.796   5.326 -11.460  0.00  0.00    +0.073 C 
ENDBRANCH  22  26
ENDBRANCH  21  22
ENDBRANCH  19  21
ENDBRANCH  18  20
ENDBRANCH  17  18
ENDBRANCH  15  17
ENDBRANCH   1  15
TORSDOF 10
ENDMDL
MODEL 2
REMARK VINA RESULT:      -7.8      1.830      4.072
REMARK  Name = 
REMARK  10 active torsions:
REMARK  status: ('A' for Active; 'I' for Inactive)
REMARK    1  A    between atoms: C_2  and  N_3
REMARK    2  A    between atoms: N_3  and  C_4
REMARK    3  A    between atoms: N_3  and  C_6
REMARK    4  A    between atoms: C_6  and  C_7
REMARK    5  A    between atoms: C_8  and  C_9
REMARK    6  A    between atoms: C_9  and  O_10
REMARK    7  A    between atoms: O_10  and  C_11
REMARK    8  A    between atoms: C_11  and  C_13
REMARK    9  A    between atoms: C_13  and  C_15
REMARK   10  A    between atoms: C_13  and  C_21
REMARK                            x       y       z     vdW  Elec       q    Type
REMARK                         _______ _______ _______ _____ _____    ______ ____
ROOT
ATOM      1  C   UNL     1       1.223   5.570  -7.502  0.00  0.00    +0.233 C 
ATOM      2  O   UNL     1       1.459   4.249  -7.099  0.00  0.00    -0.210 OA
ENDROOT
BRANCH   1   3
ATOM      3  C   UNL     1       0.063   6.049  -6.690  0.00  0.00    +0.015 A 
ATOM      4  C   UNL     1      -1.185   5.586  -7.086  0.00  0.00    -0.001 A 
ATOM      5  C   UNL     1      -2.263   5.629  -6.240  0.00  0.00    -0.000 A 
ATOM      6  C   UNL     1      -2.058   6.150  -4.974  0.00  0.00    -0.000 A 
ATOM      7  C   UNL     1      -0.932   6.936  -4.761  0.00  0.00    -0.000 A 
ATOM      8  C   UNL     1       0.207   6.771  -5.531  0.00  0.00    -0.001 A 
ENDBRANCH   1   3
BRANCH   1   9
ATOM      9  C   UNL     1       0.791   5.594  -8.933  0.00  0.00    +0.043 C 
ATOM     10  C   UNL     1       1.108   4.344  -9.698  0.00  0.00    +0.003 C 
ATOM     11  C   UNL     1       0.223   4.356 -10.939  0.00  0.00    +0.000 C 
ATOM     12  C   UNL     1       0.542   5.611 -11.742  0.00  0.00    +0.000 C 
ATOM     13  C   UNL     1       0.282   6.871 -10.932  0.00  0.00    +0.000 C 
ATOM     14  C   UNL     1       1.129   6.858  -9.665  0.00  0.00    +0.003 C 
ENDBRANCH   1   9
BRANCH   1  15
ATOM     15  C   UNL     1       2.437   6.392  -7.243  0.00  0.00    +0.350 C 
ATOM     16  O   UNL     1       2.379   7.628  -7.068  0.00  0.00    -0.247 OA
BRANCH  15  17
ATOM     17  O   UNL     1       3.550   5.732  -6.763  0.00  0.00    -0.432 OA
BRANCH  17  18
ATOM     18  C   UNL     1       4.786   5.652  -7.420  0.00  0.00    +0.284 C 
BRANCH  18  20
ATOM     19  C   UNL     1       4.658   5.543 -10.034  0.00  0.00    -0.069 C 
ATOM     20  C   UNL     1       4.523   5.356  -8.840  0.00  0.00    -0.042 C 
BRANCH  19  21
ATOM     21  C   UNL     1       4.531   5.914 -11.455  0.00  0.00    +0.150 C 
BRANCH  21  22
ATOM     22  N   UNL     1       5.787   6.442 -11.975  0.00  0.00    -0.262 NA
BRANCH  22  23
ATOM     23  C   UNL     1       6.843   5.457 -11.771  0.00  0.00    +0.073 C 
ATOM     24  C   UNL     1       7.713   5.388 -13.009  0.00  0.00    +0.019 C 
ENDBRANCH  22  23
BRANCH  22  26
ATOM     25  C   UNL     1       6.440   8.277 -11.370  0.00  0.00    +0.019 C 
ATOM     26  C   UNL     1       6.200   7.646 -11.292  0.00  0.00    +0.073 C 
ENDBRANCH  22  26
ENDBRANCH  21  22
ENDBRANCH  19  21
ENDBRANCH  18  20
ENDBRANCH  17  18
ENDBRANCH  15  17
ENDBRANCH   1  15
TORSDOF 10
ENDMDL
MODEL 3
REMARK VINA RESULT:      -7.8      0.895      3.722
REMARK  Name = 
REMARK  10 active torsions:
REMARK  status: ('A' for Active; 'I' for Inactive)
REMARK    1  A    between atoms: C_2  and  N_3
REMARK    2  A    between atoms: N_3  and  C_4
REMARK    3  A    between atoms: N_3  and  C_6
REMARK    4  A    between atoms: C_6  and  C_7
REMARK    5  A    between atoms: C_8  and  C_9
REMARK    6  A    between atoms: C_9  and  O_10
REMARK    7  A    between atoms: O_10  and  C_11
REMARK    8  A    between atoms: C_11  and  C_13
REMARK    9  A    between atoms: C_13  and  C_15
REMARK   10  A    between atoms: C_13  and  C_21
REMARK                            x       y       z     vdW  Elec       q    Type
REMARK                         _______ _______ _______ _____ _____    ______ ____
ROOT
ATOM      1  C   UNL     1       1.696   6.538  -6.891  0.00  0.00    +0.233 C 
ATOM      2  O   UNL     1       1.717   7.892  -7.252  0.00  0.00    -0.210 OA
ENDROOT
BRANCH   1   3
ATOM      3  C   UNL     1       0.338   6.285  -6.320  0.00  0.00    +0.015 A 
ATOM      4  C   UNL     1      -0.027   7.085  -5.246  0.00  0.00    -0.001 A 
ATOM      5  C   UNL     1      -1.339   7.226  -4.875  0.00  0.00    -0.000 A 
ATOM      6  C   UNL     1      -2.287   6.540  -5.615  0.00  0.00    -0.000 A 
ATOM      7  C   UNL     1      -1.863   5.479  -6.404  0.00  0.00    -0.000 A 
ATOM      8  C   UNL     1      -0.570   5.432  -6.899  0.00  0.00    -0.001 A 
ENDBRANCH   1   3
BRANCH   1   9
ATOM      9  C   UNL     1       2.680   6.292  -5.794  0.00  0.00    +0.043 C 
ATOM     10  C   UNL     1       3.979   7.024  -5.949  0.00  0.00    +0.003 C 
ATOM     11  C   UNL     1       4.644   7.029  -4.578  0.00  0.00    +0.000 C 
ATOM     12  C   UNL     1       4.854   5.584  -4.142  0.00  0.00    +0.000 C 
ATOM     13  C   UNL     1       3.536   4.833  -4.054  0.00  0.00    +0.000 C 
ATOM     14  C   UNL     1       2.836   4.851  -5.409  0.00  0.00    +0.003 C 
ENDBRANCH   1   9
BRANCH   1  15
ATOM     15  C   UNL     1       1.940   5.699  -8.096  0.00  0.00    +0.350 C 
ATOM     16  O   UNL     1       1.590   6.062  -9.241  0.00  0.00    -0.247 OA
BRANCH  15  17
ATOM     17  O   UNL     1       2.932   4.745  -8.006  0.00  0.00    -0.432 OA
BRANCH  17  18
ATOM     18  C   UNL     1       3.805   4.389  -9.044  0.00  0.00    +0.284 C 
BRANCH  18  20
ATOM     19  C   UNL     1       6.176   5.497  -9.152  0.00  0.00    -0.069 C 
ATOM     20  C   UNL     1       5.087   5.078  -8.810  0.00  0.00    -0.042 C 
BRANCH  19  21
ATOM     21  C   UNL     1       7.606   5.742  -9.410  0.00  0.00    +0.150 C 
BRANCH  21  22
ATOM     22  N   UNL     1       7.796   6.490 -10.648  0.00  0.00    -0.262 NA
BRANCH  22  23
ATOM     23  C   UNL     1       6.493   6.854 -11.195  0.00  0.00    +0.073 C 
ATOM     24  C   UNL     1       6.421   8.357 -11.367  0.00  0.00    +0.019 C 
ENDBRANCH  22  23
BRANCH  22  26
ATOM     25  C   UNL     1       8.530   5.596 -12.328  0.00  0.00    +0.019 C 
ATOM     26  C   UNL     1       8.472   5.712 -11.660  0.00  0.00    +0.073 C 
ENDBRANCH  22  26
ENDBRANCH  21  22
ENDBRANCH  19  21
ENDBRANCH  18  20
ENDBRANCH  17  18
ENDBRANCH  15  17
ENDBRANCH   1  15
TORSDOF 10
ENDMDL
MODEL 4
REMARK VINA RESULT:      -7.5      2.672      6.964
REMARK  Name = 
REMARK  10 active torsions:
REMARK  status: ('A' for Active; 'I' for Inactive)
REMARK    1  A    between atoms: C_2  and  N_3
REMARK    2  A    between atoms: N_3  and  C_4
REMARK    3  A    between atoms: N_3  and  C_6
REMARK    4  A    between atoms: C_6  and  C_7
REMARK    5  A    between atoms: C_8  and  C_9
REMARK    6  A    between atoms: C_9  and  O_10
REMARK    7  A    between atoms: O_10  and  C_11
REMARK    8  A    between atoms: C_11  and  C_13
REMARK    9  A    between atoms: C_13  and  C_15
REMARK   10  A    between atoms: C_13  and  C_21
REMARK                            x       y       z     vdW  Elec       q    Type
REMARK                         _______ _______ _______ _____ _____    ______ ____
ROOT
ATOM      1  C   UNL     1       3.117   5.544  -7.944  0.00  0.00    +0.233 C 
ATOM      2  O   UNL     1       2.943   4.183  -8.233  0.00  0.00    -0.210 OA
ENDROOT
BRANCH   1   3
ATOM      3  C   UNL     1       4.265   6.001  -8.785  0.00  0.00    +0.015 A 
ATOM      4  C   UNL     1       5.517   5.539  -8.402  0.00  0.00    -0.001 A 
ATOM      5  C   UNL     1       6.580   5.560  -9.268  0.00  0.00    -0.000 A 
ATOM      6  C   UNL     1       6.355   6.060 -10.540  0.00  0.00    -0.000 A 
ATOM      7  C   UNL     1       5.229   6.848 -10.747  0.00  0.00    -0.000 A 
ATOM      8  C   UNL     1       4.104   6.703  -9.954  0.00  0.00    -0.001 A 
ENDBRANCH   1   3
BRANCH   1   9
ATOM      9  C   UNL     1       3.530   5.709  -6.517  0.00  0.00    +0.043 C 
ATOM     10  C   UNL     1       3.107   4.591  -5.614  0.00  0.00    +0.003 C 
ATOM     11  C   UNL     1       3.973   4.688  -4.363  0.00  0.00    +0.000 C 
ATOM     12  C   UNL     1       3.742   6.052  -3.726  0.00  0.00    +0.000 C 
ATOM     13  C   UNL     1       4.110   7.180  -4.676  0.00  0.00    +0.000 C 
ATOM     14  C   UNL     1       3.281   7.076  -5.952  0.00  0.00    +0.003 C 
ENDBRANCH   1   9
BRANCH   1  15
ATOM     15  C   UNL     1       1.871   6.285  -8.283  0.00  0.00    +0.350 C 
ATOM     16  O   UNL     1       1.878   7.503  -8.565  0.00  0.00    -0.247 OA
BRANCH  15  17
ATOM     17  O   UNL     1       0.794   5.538  -8.713  0.00  0.00    -0.432 OA
BRANCH  17  18
ATOM     18  C   UNL     1      -0.468   5.517  -8.102  0.00  0.00    +0.284 C 
BRANCH  18  20
ATOM     19  C   UNL     1      -0.427   5.787  -5.497  0.00  0.00    -0.069 C 
ATOM     20  C   UNL     1      -0.262   5.423  -6.646  0.00  0.00    -0.042 C 
BRANCH  19  21
ATOM     21  C   UNL     1      -0.329   6.356  -4.141  0.00  0.00    +0.150 C 
BRANCH  21  22
ATOM     22  N   UNL     1      -0.670   5.363  -3.128  0.00  0.00    -0.262 NA
BRANCH  22  23
ATOM     23  C   UNL     1      -1.772   5.865  -2.314  0.00  0.00    +0.073 C 
ATOM     24  C   UNL     1      -3.088   5.536  -2.988  0.00  0.00    +0.019 C 
ENDBRANCH  22  23
BRANCH  22  26
ATOM     25  C   UNL     1       0.613   5.035  -1.577  0.00  0.00    +0.019 C 
ATOM     26  C   UNL     1       0.428   5.099  -2.229  0.00  0.00    +0.073 C 
ENDBRANCH  22  26
ENDBRANCH  21  22
ENDBRANCH  19  21
ENDBRANCH  18  20
ENDBRANCH  17  18
ENDBRANCH  15  17
ENDBRANCH   1  15
TORSDOF 10
ENDMDL
MODEL 5
REMARK VINA RESULT:      -7.4      2.971      7.362
REMARK  Name = 
REMARK  10 active torsions:
REMARK  status: ('A' for Active; 'I' for Inactive)
REMARK    1  A    between atoms: C_2  and  N_3
REMARK    2  A    between atoms: N_3  and  C_4
REMARK    3  A    between atoms: N_3  and  C_6
REMARK    4  A    between atoms: C_6  and  C_7
REMARK    5  A    between atoms: C_8  and  C_9
REMARK    6  A    between atoms: C_9  and  O_10
REMARK    7  A    between atoms: O_10  and  C_11
REMARK    8  A    between atoms: C_11  and  C_13
REMARK    9  A    between atoms: C_13  and  C_15
REMARK   10  A    between atoms: C_13  and  C_21
REMARK                            x       y       z     vdW  Elec       q    Type
REMARK                         _______ _______ _______ _____ _____    ______ ____
ROOT
ATOM      1  C   UNL     1       3.397   6.096  -9.183  0.00  0.00    +0.233 C 
ATOM      2  O   UNL     1       3.290   7.106  -8.217  0.00  0.00    -0.210 OA
ENDROOT
BRANCH   1   3
ATOM      3  C   UNL     1       4.750   6.253  -9.797  0.00  0.00    +0.015 A 
ATOM      4  C   UNL     1       4.872   7.258 -10.746  0.00  0.00    -0.001 A 
ATOM      5  C   UNL     1       6.097   7.756 -11.105  0.00  0.00    -0.000 A 
ATOM      6  C   UNL     1       7.211   7.217 -10.482  0.00  0.00    -0.000 A 
ATOM      7  C   UNL     1       7.079   5.986  -9.852  0.00  0.00    -0.000 A 
ATOM      8  C   UNL     1       5.856   5.566  -9.358  0.00  0.00    -0.001 A 
ENDBRANCH   1   3
BRANCH   1   9
ATOM      9  C   UNL     1       2.397   6.328 -10.269  0.00  0.00    +0.043 C 
ATOM     10  C   UNL     1       0.971   6.346  -9.808  0.00  0.00    +0.003 C 
ATOM     11  C   UNL     1       0.166   7.028 -10.908  0.00  0.00    +0.000 C 
ATOM     12  C   UNL     1       0.338   6.229 -12.193  0.00  0.00    +0.000 C 
ATOM     13  C   UNL     1       1.796   6.158 -12.614  0.00  0.00    +0.000 C 
ATOM     14  C   UNL     1       2.626   5.514 -11.509  0.00  0.00    +0.003 C 
ENDBRANCH   1   9
BRANCH   1  15
ATOM     15  C   UNL     1       3.253   4.767  -8.527  0.00  0.00    +0.350 C 
ATOM     16  O   UNL     1       3.707   3.720  -9.039  0.00  0.00    -0.247 OA
BRANCH  15  17
ATOM     17  O   UNL     1       3.016   4.760  -7.168  0.00  0.00    -0.432 OA
BRANCH  17  18
ATOM     18  C   UNL     1       2.087   3.936  -6.515  0.00  0.00    +0.284 C 
BRANCH  18  20
ATOM     19  C   UNL     1       0.711   5.149  -4.646  0.00  0.00    -0.069 C 
ATOM     20  C   UNL     1       1.587   4.666  -5.337  0.00  0.00    -0.042 C 
BRANCH  19  21
ATOM     21  C   UNL     1      -0.254   6.015  -3.944  0.00  0.00    +0.150 C 
BRANCH  21  22
ATOM     22  N   UNL     1      -1.617   5.519  -4.102  0.00  0.00    -0.262 NA
BRANCH  22  23
ATOM     23  C   UNL     1      -2.355   6.413  -4.986  0.00  0.00    +0.073 C 
ATOM     24  C   UNL     1      -2.414   5.813  -6.375  0.00  0.00    +0.019 C 
ENDBRANCH  22  23
BRANCH  22  26
ATOM     25  C   UNL     1      -2.861   5.736  -2.500  0.00  0.00    +0.019 C 
ATOM     26  C   UNL     1      -2.335   5.483  -2.849  0.00  0.00    +0.073 C 
ENDBRANCH  22  26
ENDBRANCH  21  22
ENDBRANCH  19  21
ENDBRANCH  18  20
ENDBRANCH  17  18
ENDBRANCH  15  17
ENDBRANCH   1  15
TORSDOF 10
ENDMDL
MODEL 6
REMARK VINA RESULT:      -7.4      2.782      7.804
REMARK  Name = 
REMARK  10 active torsions:
REMARK  status: ('A' for Active; 'I' for Inactive)
REMARK    1  A    between atoms: C_2  and  N_3
REMARK    2  A    between atoms: N_3  and  C_4
REMARK    3  A    between atoms: N_3  and  C_6
REMARK    4  A    between atoms: C_6  and  C_7
REMARK    5  A    between atoms: C_8  and  C_9
REMARK    6  A    between atoms: C_9  and  O_10
REMARK    7  A    between atoms: O_10  and  C_11
REMARK    8  A    between atoms: C_11  and  C_13
REMARK    9  A    between atoms: C_13  and  C_15
REMARK   10  A    between atoms: C_13  and  C_21
REMARK                            x       y       z     vdW  Elec       q    Type
REMARK                         _______ _______ _______ _____ _____    ______ ____
ROOT
ATOM      1  C   UNL     1       3.649   5.345  -8.789  0.00  0.00    +0.233 C 
ATOM      2  O   UNL     1       3.797   3.972  -9.024  0.00  0.00    -0.210 OA
ENDROOT
BRANCH   1   3
ATOM      3  C   UNL     1       2.443   5.769  -9.565  0.00  0.00    +0.015 A 
ATOM      4  C   UNL     1       2.001   4.877 -10.532  0.00  0.00    -0.001 A 
ATOM      5  C   UNL     1       0.731   4.949 -11.042  0.00  0.00    -0.000 A 
ATOM      6  C   UNL     1      -0.095   5.948 -10.554  0.00  0.00    -0.000 A 
ATOM      7  C   UNL     1       0.491   7.025  -9.901  0.00  0.00    -0.000 A 
ATOM      8  C   UNL     1       1.710   6.889  -9.257  0.00  0.00    -0.001 A 
ENDBRANCH   1   3
BRANCH   1   9
ATOM      9  C   UNL     1       4.815   6.085  -9.360  0.00  0.00    +0.043 C 
ATOM     10  C   UNL     1       4.591   6.629 -10.738  0.00  0.00    +0.003 C 
ATOM     11  C   UNL     1       5.652   7.700 -10.963  0.00  0.00    +0.000 C 
ATOM     12  C   UNL     1       7.024   7.052 -10.822  0.00  0.00    +0.000 C 
ATOM     13  C   UNL     1       7.213   6.444  -9.443  0.00  0.00    +0.000 C 
ATOM     14  C   UNL     1       6.135   5.396  -9.184  0.00  0.00    +0.003 C 
ENDBRANCH   1   9
BRANCH   1  15
ATOM     15  C   UNL     1       3.461   5.581  -7.331  0.00  0.00    +0.350 C 
ATOM     16  O   UNL     1       3.424   6.731  -6.842  0.00  0.00    -0.247 OA
BRANCH  15  17
ATOM     17  O   UNL     1       2.891   4.559  -6.599  0.00  0.00    -0.432 OA
BRANCH  17  18
ATOM     18  C   UNL     1       1.940   4.729  -5.583  0.00  0.00    +0.284 C 
BRANCH  18  20
ATOM     19  C   UNL     1      -0.503   5.238  -6.379  0.00  0.00    -0.069 C 
ATOM     20  C   UNL     1       0.609   4.774  -6.215  0.00  0.00    -0.042 C 
BRANCH  19  21
ATOM     21  C   UNL     1      -1.944   5.547  -6.395  0.00  0.00    +0.150 C 
BRANCH  21  22
ATOM     22  N   UNL     1      -2.331   6.308  -5.212  0.00  0.00    -0.262 NA
BRANCH  22  23
ATOM     23  C   UNL     1      -1.274   7.257  -4.883  0.00  0.00    +0.073 C 
ATOM     24  C   UNL     1      -1.891   8.583  -4.489  0.00  0.00    +0.019 C 
ENDBRANCH  22  23
BRANCH  22  26
ATOM     25  C   UNL     1      -2.966   5.140  -3.665  0.00  0.00    +0.019 C 
ATOM     26  C   UNL     1      -2.512   5.464  -4.053  0.00  0.00    +0.073 C 
ENDBRANCH  22  26
ENDBRANCH  21  22
ENDBRANCH  19  21
ENDBRANCH  18  20
ENDBRANCH  17  18
ENDBRANCH  15  17
ENDBRANCH   1  15
TORSDOF 10
ENDMDL
MODEL 7
REMARK VINA RESULT:      -7.2      3.532      7.617
REMARK  Name = 
REMARK  10 active torsions:
REMARK  status: ('A' for Active; 'I' for Inactive)
REMARK    1  A    between atoms: C_2  and  N_3
REMARK    2  A    between atoms: N_3  and  C_4
REMARK    3  A    between atoms: N_3  and  C_6
REMARK    4  A    between atoms: C_6  and  C_7
REMARK    5  A    between atoms: C_8  and  C_9
REMARK    6  A    between atoms: C_9  and  O_10
REMARK    7  A    between atoms: O_10  and  C_11
REMARK    8  A    between atoms: C_11  and  C_13
REMARK    9  A    between atoms: C_13  and  C_15
REMARK   10  A    between atoms: C_13  and  C_21
REMARK                            x       y       z     vdW  Elec       q    Type
REMARK                         _______ _______ _______ _____ _____    ______ ____
ROOT
ATOM      1  C   UNL     1       2.135   6.826  -6.870  0.00  0.00    +0.233 C 
ATOM      2  O   UNL     1       2.027   8.155  -7.303  0.00  0.00    -0.210 OA
ENDROOT
BRANCH   1   3
ATOM      3  C   UNL     1       2.717   6.064  -8.017  0.00  0.00    +0.015 A 
ATOM      4  C   UNL     1       3.081   6.820  -9.124  0.00  0.00    -0.001 A 
ATOM      5  C   UNL     1       3.948   6.333 -10.067  0.00  0.00    -0.000 A 
ATOM      6  C   UNL     1       4.448   5.056  -9.872  0.00  0.00    -0.000 A 
ATOM      7  C   UNL     1       3.777   4.214  -8.993  0.00  0.00    -0.000 A 
ATOM      8  C   UNL     1       3.027   4.728  -7.949  0.00  0.00    -0.001 A 
ENDBRANCH   1   3
BRANCH   1   9
ATOM      9  C   UNL     1       0.774   6.262  -6.621  0.00  0.00    +0.043 C 
ATOM     10  C   UNL     1       0.049   5.818  -7.855  0.00  0.00    +0.003 C 
ATOM     11  C   UNL     1      -1.066   4.886  -7.395  0.00  0.00    +0.000 C 
ATOM     12  C   UNL     1      -1.976   5.659  -6.449  0.00  0.00    +0.000 C 
ATOM     13  C   UNL     1      -1.215   6.164  -5.234  0.00  0.00    +0.000 C 
ATOM     14  C   UNL     1      -0.069   7.067  -5.676  0.00  0.00    +0.003 C 
ENDBRANCH   1   9
BRANCH   1  15
ATOM     15  C   UNL     1       3.023   6.764  -5.677  0.00  0.00    +0.350 C 
ATOM     16  O   UNL     1       3.854   7.663  -5.419  0.00  0.00    -0.247 OA
BRANCH  15  17
ATOM     17  O   UNL     1       2.621   5.951  -4.637  0.00  0.00    -0.432 OA
BRANCH  17  18
ATOM     18  C   UNL     1       2.737   6.266  -3.275  0.00  0.00    +0.284 C 
BRANCH  18  20
ATOM     19  C   UNL     1       0.464   5.628  -2.143  0.00  0.00    -0.069 C 
ATOM     20  C   UNL     1       1.602   5.645  -2.571  0.00  0.00    -0.042 C 
BRANCH  19  21
ATOM     21  C   UNL     1      -0.772   5.671  -1.341  0.00  0.00    +0.150 C 
BRANCH  21  22
ATOM     22  N   UNL     1      -1.543   6.875  -1.629  0.00  0.00    -0.262 NA
BRANCH  22  23
ATOM     23  C   UNL     1      -1.570   7.724  -0.443  0.00  0.00    +0.073 C 
ATOM     24  C   UNL     1      -1.554   6.857   0.798  0.00  0.00    +0.019 C 
ENDBRANCH  22  23
BRANCH  22  26
ATOM     25  C   UNL     1      -3.386   6.589  -2.455  0.00  0.00    +0.019 C 
ATOM     26  C   UNL     1      -2.917   6.580  -1.963  0.00  0.00    +0.073 C 
ENDBRANCH  22  26
ENDBRANCH  21  22
ENDBRANCH  19  21
ENDBRANCH  18  20
ENDBRANCH  17  18
ENDBRANCH  15  17
ENDBRANCH   1  15
TORSDOF 10
ENDMDL
MODEL 8
REMARK VINA RESULT:      -7.0      2.794      5.231
REMARK  Name = 
REMARK  10 active torsions:
REMARK  status: ('A' for Active; 'I' for Inactive)
REMARK    1  A    between atoms: C_2  and  N_3
REMARK    2  A    between atoms: N_3  and  C_4
REMARK    3  A    between atoms: N_3  and  C_6
REMARK    4  A    between atoms: C_6  and  C_7
REMARK    5  A    between atoms: C_8  and  C_9
REMARK    6  A    between atoms: C_9  and  O_10
REMARK    7  A    between atoms: O_10  and  C_11
REMARK    8  A    between atoms: C_11  and  C_13
REMARK    9  A    between atoms: C_13  and  C_15
REMARK   10  A    between atoms: C_13  and  C_21
REMARK                            x       y       z     vdW  Elec       q    Type
REMARK                         _______ _______ _______ _____ _____    ______ ____
ROOT
ATOM      1  C   UNL     1       3.146   5.778  -7.440  0.00  0.00    +0.233 C 
ATOM      2  O   UNL     1       2.519   4.528  -7.537  0.00  0.00    -0.210 OA
ENDROOT
BRANCH   1   3
ATOM      3  C   UNL     1       4.175   5.810  -8.524  0.00  0.00    +0.015 A 
ATOM      4  C   UNL     1       3.803   6.460  -9.692  0.00  0.00    -0.001 A 
ATOM      5  C   UNL     1       4.738   6.889 -10.599  0.00  0.00    -0.000 A 
ATOM      6  C   UNL     1       6.069   6.648 -10.302  0.00  0.00    -0.000 A 
ATOM      7  C   UNL     1       6.365   5.680  -9.350  0.00  0.00    -0.000 A 
ATOM      8  C   UNL     1       5.463   5.370  -8.346  0.00  0.00    -0.001 A 
ENDBRANCH   1   3
BRANCH   1   9
ATOM      9  C   UNL     1       3.880   5.877  -6.142  0.00  0.00    +0.043 C 
ATOM     10  C   UNL     1       3.599   4.759  -5.183  0.00  0.00    +0.003 C 
ATOM     11  C   UNL     1       4.729   4.768  -4.160  0.00  0.00    +0.000 C 
ATOM     12  C   UNL     1       4.737   6.124  -3.466  0.00  0.00    +0.000 C 
ATOM     13  C   UNL     1       4.954   7.255  -4.458  0.00  0.00    +0.000 C 
ATOM     14  C   UNL     1       3.854   7.239  -5.514  0.00  0.00    +0.003 C 
ENDBRANCH   1   9
BRANCH   1  15
ATOM     15  C   UNL     1       2.135   6.855  -7.625  0.00  0.00    +0.350 C 
ATOM     16  O   UNL     1       2.437   7.980  -8.079  0.00  0.00    -0.247 OA
BRANCH  15  17
ATOM     17  O   UNL     1       0.814   6.467  -7.713  0.00  0.00    -0.432 OA
BRANCH  17  18
ATOM     18  C   UNL     1       0.291   5.601  -8.684  0.00  0.00    +0.284 C 
BRANCH  18  20
ATOM     19  C   UNL     1       0.460   6.352 -11.188  0.00  0.00    -0.069 C 
ATOM     20  C   UNL     1       0.329   6.303  -9.980  0.00  0.00    -0.042 C 
BRANCH  19  21
ATOM     21  C   UNL     1       0.916   6.527 -12.578  0.00  0.00    +0.150 C 
BRANCH  21  22
ATOM     22  N   UNL     1       1.733   5.398 -13.010  0.00  0.00    -0.262 NA
BRANCH  22  23
ATOM     23  C   UNL     1       2.761   5.872 -13.929  0.00  0.00    +0.073 C 
ATOM     24  C   UNL     1       4.054   5.128 -13.666  0.00  0.00    +0.019 C 
ENDBRANCH  22  23
BRANCH  22  26
ATOM     25  C   UNL     1       0.547   4.292 -14.246  0.00  0.00    +0.019 C 
ATOM     26  C   UNL     1       0.963   4.404 -13.720  0.00  0.00    +0.073 C 
ENDBRANCH  22  26
ENDBRANCH  21  22
ENDBRANCH  19  21
ENDBRANCH  18  20
ENDBRANCH  17  18
ENDBRANCH  15  17
ENDBRANCH   1  15
TORSDOF 10
ENDMDL
MODEL 9
REMARK VINA RESULT:      -7.0      2.769      7.201
REMARK  Name = 
REMARK  10 active torsions:
REMARK  status: ('A' for Active; 'I' for Inactive)
REMARK    1  A    between atoms: C_2  and  N_3
REMARK    2  A    between atoms: N_3  and  C_4
REMARK    3  A    between atoms: N_3  and  C_6
REMARK    4  A    between atoms: C_6  and  C_7
REMARK    5  A    between atoms: C_8  and  C_9
REMARK    6  A    between atoms: C_9  and  O_10
REMARK    7  A    between atoms: O_10  and  C_11
REMARK    8  A    between atoms: C_11  and  C_13
REMARK    9  A    between atoms: C_13  and  C_15
REMARK   10  A    between atoms: C_13  and  C_21
REMARK                            x       y       z     vdW  Elec       q    Type
REMARK                         _______ _______ _______ _____ _____    ______ ____
ROOT
ATOM      1  C   UNL     1       3.618   6.243  -9.767  0.00  0.00    +0.233 C 
ATOM      2  O   UNL     1       3.291   7.553  -9.392  0.00  0.00    -0.210 OA
ENDROOT
BRANCH   1   3
ATOM      3  C   UNL     1       4.694   6.365 -10.798  0.00  0.00    +0.015 A 
ATOM      4  C   UNL     1       5.426   7.544 -10.772  0.00  0.00    -0.001 A 
ATOM      5  C   UNL     1       6.649   7.638 -11.384  0.00  0.00    -0.000 A 
ATOM      6  C   UNL     1       7.127   6.509 -12.028  0.00  0.00    -0.000 A 
ATOM      7  C   UNL     1       6.221   5.507 -12.357  0.00  0.00    -0.000 A 
ATOM      8  C   UNL     1       5.059   5.332 -11.626  0.00  0.00    -0.001 A 
ENDBRANCH   1   3
BRANCH   1   9
ATOM      9  C   UNL     1       2.447   5.600 -10.436  0.00  0.00    +0.043 C 
ATOM     10  C   UNL     1       1.902   6.365 -11.604  0.00  0.00    +0.003 C 
ATOM     11  C   UNL     1       1.058   5.386 -12.412  0.00  0.00    +0.000 C 
ATOM     12  C   UNL     1      -0.051   4.854 -11.513  0.00  0.00    +0.000 C 
ATOM     13  C   UNL     1       0.513   4.140 -10.296  0.00  0.00    +0.000 C 
ATOM     14  C   UNL     1       1.394   5.094  -9.495  0.00  0.00    +0.003 C 
ENDBRANCH   1   9
BRANCH   1  15
ATOM     15  C   UNL     1       4.098   5.491  -8.575  0.00  0.00    +0.350 C 
ATOM     16  O   UNL     1       4.997   4.626  -8.651  0.00  0.00    -0.247 OA
BRANCH  15  17
ATOM     17  O   UNL     1       3.864   6.060  -7.339  0.00  0.00    -0.432 OA
BRANCH  17  18
ATOM     18  C   UNL     1       3.631   5.346  -6.154  0.00  0.00    +0.284 C 
BRANCH  18  20
ATOM     19  C   UNL     1       1.332   5.670  -4.942  0.00  0.00    -0.069 C 
ATOM     20  C   UNL     1       2.348   5.809  -5.596  0.00  0.00    -0.042 C 
BRANCH  19  21
ATOM     21  C   UNL     1      -0.038   5.460  -4.440  0.00  0.00    +0.150 C 
BRANCH  21  22
ATOM     22  N   UNL     1      -1.009   6.196  -5.242  0.00  0.00    -0.262 NA
BRANCH  22  23
ATOM     23  C   UNL     1      -2.171   6.513  -4.419  0.00  0.00    +0.073 C 
ATOM     24  C   UNL     1      -2.456   5.358  -3.482  0.00  0.00    +0.019 C 
ENDBRANCH  22  23
BRANCH  22  26
ATOM     25  C   UNL     1      -1.439   5.324  -7.035  0.00  0.00    +0.019 C 
ATOM     26  C   UNL     1      -1.490   5.424  -6.364  0.00  0.00    +0.073 C 
ENDBRANCH  22  26
ENDBRANCH  21  22
ENDBRANCH  19  21
ENDBRANCH  18  20
ENDBRANCH  17  18
ENDBRANCH  15  17
ENDBRANCH   1  15
TORSDOF 10
ENDMDL
