MODEL 1
REMARK VINA RESULT:      -6.7      0.000      0.000
REMARK  Name = 
REMARK  5 active torsions:
REMARK  status: ('A' for Active; 'I' for Inactive)
REMARK    1  A    between atoms: N_2  and  C_4
REMARK    2  A    between atoms: C_4  and  C_5
REMARK    3  A    between atoms: C_5  and  C_6
REMARK    4  A    between atoms: C_6  and  C_7
REMARK    5  A    between atoms: C_6  and  C_14
REMARK                            x       y       z     vdW  Elec       q    Type
REMARK                         _______ _______ _______ _____ _____    ______ ____
ROOT
ATOM      1  C   UNL     1       3.402   6.909  -9.761  0.00  0.00    +0.064 C 
ENDROOT
BRANCH   1   2
ATOM      2  C   UNL     1       4.974   6.638  -9.938  0.00  0.00    -0.017 A 
ATOM      3  C   UNL     1       5.384   7.590 -10.862  0.00  0.00    -0.003 A 
ATOM      4  C   UNL     1       6.477   7.316 -11.602  0.00  0.00    +0.006 A 
ATOM      5  C   UNL     1       7.238   6.196 -11.211  0.00  0.00    +0.035 A 
ATOM      6 BR   UNL     1       8.862   5.872 -12.180  0.00  0.00    -0.049 Br
ATOM      7  C   UNL     1       6.935   5.528 -10.028  0.00  0.00    +0.006 A 
ATOM      8  C   UNL     1       5.653   5.626  -9.486  0.00  0.00    -0.003 A 
ENDBRANCH   1   2
BRANCH   1   9
ATOM      9  C   UNL     1       2.827   5.721 -10.709  0.00  0.00    +0.063 A 
ATOM     10  N   UNL     1       2.486   6.018 -11.928  0.00  0.00    -0.248 NA
ATOM     11  C   UNL     1       1.484   5.333 -12.557  0.00  0.00    +0.098 A 
ATOM     12  C   UNL     1       0.413   4.905 -11.810  0.00  0.00    +0.021 A 
ATOM     13  C   UNL     1       0.576   4.722 -10.465  0.00  0.00    +0.003 A 
ATOM     14  C   UNL     1       1.768   5.235  -9.931  0.00  0.00    +0.015 A 
ENDBRANCH   1   9
BRANCH   1  15
ATOM     15  C   UNL     1       3.304   5.959  -8.418  0.00  0.00    +0.028 C 
BRANCH  15  16
ATOM     16  C   UNL     1       3.064   6.911  -7.396  0.00  0.00    +0.073 C 
BRANCH  16  18
ATOM     17  C   UNL     1       2.710   6.863  -5.131  0.00  0.00    +0.090 C 
ATOM     18  N   UNL     1       3.397   6.891  -6.077  0.00  0.00    -0.270 NA
ATOM     19  C   UNL     1       4.404   5.817  -5.983  0.00  0.00    +0.090 C 
ENDBRANCH  16  18
ENDBRANCH  15  16
ENDBRANCH   1  15
TORSDOF 5
ENDMDL
MODEL 2
REMARK VINA RESULT:      -6.7      3.583      6.009
REMARK  Name = 
REMARK  5 active torsions:
REMARK  status: ('A' for Active; 'I' for Inactive)
REMARK    1  A    between atoms: N_2  and  C_4
REMARK    2  A    between atoms: C_4  and  C_5
REMARK    3  A    between atoms: C_5  and  C_6
REMARK    4  A    between atoms: C_6  and  C_7
REMARK    5  A    between atoms: C_6  and  C_14
REMARK                            x       y       z     vdW  Elec       q    Type
REMARK                         _______ _______ _______ _____ _____    ______ ____
ROOT
ATOM      1  C   UNL     1       3.098   5.035  -6.491  0.00  0.00    +0.064 C 
ENDROOT
BRANCH   1   2
ATOM      2  C   UNL     1       3.848   5.832  -5.316  0.00  0.00    -0.017 A 
ATOM      3  C   UNL     1       4.146   4.854  -4.376  0.00  0.00    -0.003 A 
ATOM      4  C   UNL     1       4.290   5.242  -3.093  0.00  0.00    +0.006 A 
ATOM      5  C   UNL     1       4.354   6.630  -2.858  0.00  0.00    +0.035 A 
ATOM      6 BR   UNL     1       4.683   7.188  -1.051  0.00  0.00    -0.049 Br
ATOM      7  C   UNL     1       4.420   7.515  -3.930  0.00  0.00    +0.006 A 
ATOM      8  C   UNL     1       3.953   7.120  -5.184  0.00  0.00    -0.003 A 
ENDBRANCH   1   2
BRANCH   1   9
ATOM      9  C   UNL     1       1.662   5.794  -6.442  0.00  0.00    +0.063 A 
ATOM     10  N   UNL     1       0.789   5.401  -5.563  0.00  0.00    -0.248 NA
ATOM     11  C   UNL     1      -0.550   5.501  -5.819  0.00  0.00    +0.098 A 
ATOM     12  C   UNL     1      -0.988   5.303  -7.107  0.00  0.00    +0.021 A 
ATOM     13  C   UNL     1      -0.115   5.502  -8.139  0.00  0.00    +0.003 A 
ATOM     14  C   UNL     1       1.230   5.650  -7.767  0.00  0.00    +0.015 A 
ENDBRANCH   1   9
BRANCH   1  15
ATOM     15  C   UNL     1       3.660   6.055  -7.657  0.00  0.00    +0.028 C 
BRANCH  15  16
ATOM     16  C   UNL     1       4.752   5.326  -8.190  0.00  0.00    +0.073 C 
BRANCH  16  18
ATOM     17  C   UNL     1       4.733   5.619 -10.464  0.00  0.00    +0.090 C 
ATOM     18  N   UNL     1       5.213   5.239  -9.467  0.00  0.00    -0.270 NA
ATOM     19  C   UNL     1       6.603   5.724  -9.377  0.00  0.00    +0.090 C 
ENDBRANCH  16  18
ENDBRANCH  15  16
ENDBRANCH   1  15
TORSDOF 5
ENDMDL
MODEL 3
REMARK VINA RESULT:      -6.6      3.685      6.066
REMARK  Name = 
REMARK  5 active torsions:
REMARK  status: ('A' for Active; 'I' for Inactive)
REMARK    1  A    between atoms: N_2  and  C_4
REMARK    2  A    between atoms: C_4  and  C_5
REMARK    3  A    between atoms: C_5  and  C_6
REMARK    4  A    between atoms: C_6  and  C_7
REMARK    5  A    between atoms: C_6  and  C_14
REMARK                            x       y       z     vdW  Elec       q    Type
REMARK                         _______ _______ _______ _____ _____    ______ ____
ROOT
ATOM      1  C   UNL     1       1.020   4.728  -6.555  0.00  0.00    +0.064 C 
ENDROOT
BRANCH   1   2
ATOM      2  C   UNL     1       2.347   5.524  -6.128  0.00  0.00    -0.017 A 
ATOM      3  C   UNL     1       3.051   4.619  -5.345  0.00  0.00    -0.003 A 
ATOM      4  C   UNL     1       3.909   5.115  -4.430  0.00  0.00    +0.006 A 
ATOM      5  C   UNL     1       4.185   6.494  -4.509  0.00  0.00    +0.035 A 
ATOM      6 BR   UNL     1       5.498   7.186  -3.292  0.00  0.00    -0.049 Br
ATOM      7  C   UNL     1       3.703   7.240  -5.581  0.00  0.00    +0.006 A 
ATOM      8  C   UNL     1       2.594   6.788  -6.297  0.00  0.00    -0.003 A 
ENDBRANCH   1   2
BRANCH   1   9
ATOM      9  C   UNL     1      -0.093   5.699  -5.879  0.00  0.00    +0.063 A 
ATOM     10  N   UNL     1      -0.365   5.537  -4.618  0.00  0.00    -0.248 NA
ATOM     11  C   UNL     1      -1.614   5.814  -4.134  0.00  0.00    +0.098 A 
ATOM     12  C   UNL     1      -2.700   5.555  -4.935  0.00  0.00    +0.021 A 
ATOM     13  C   UNL     1      -2.527   5.512  -6.290  0.00  0.00    +0.003 A 
ATOM     14  C   UNL     1      -1.191   5.489  -6.723  0.00  0.00    +0.015 A 
ENDBRANCH   1   9
BRANCH   1  15
ATOM     15  C   UNL     1       0.911   5.517  -7.998  0.00  0.00    +0.028 C 
BRANCH  15  16
ATOM     16  C   UNL     1       1.715   4.710  -8.841  0.00  0.00    +0.073 C 
BRANCH  16  18
ATOM     17  C   UNL     1       3.067   6.106 -10.058  0.00  0.00    +0.090 C 
ATOM     18  N   UNL     1       2.730   5.051  -9.680  0.00  0.00    -0.270 NA
ATOM     19  C   UNL     1       3.897   4.331  -9.137  0.00  0.00    +0.090 C 
ENDBRANCH  16  18
ENDBRANCH  15  16
ENDBRANCH   1  15
TORSDOF 5
ENDMDL
MODEL 4
REMARK VINA RESULT:      -6.4      2.816      5.504
REMARK  Name = 
REMARK  5 active torsions:
REMARK  status: ('A' for Active; 'I' for Inactive)
REMARK    1  A    between atoms: N_2  and  C_4
REMARK    2  A    between atoms: C_4  and  C_5
REMARK    3  A    between atoms: C_5  and  C_6
REMARK    4  A    between atoms: C_6  and  C_7
REMARK    5  A    between atoms: C_6  and  C_14
REMARK                            x       y       z     vdW  Elec       q    Type
REMARK                         _______ _______ _______ _____ _____    ______ ____
ROOT
ATOM      1  C   UNL     1       4.208   6.555 -10.853  0.00  0.00    +0.064 C 
ENDROOT
BRANCH   1   2
ATOM      2  C   UNL     1       3.469   5.880  -9.598  0.00  0.00    -0.017 A 
ATOM      3  C   UNL     1       3.195   6.944  -8.749  0.00  0.00    -0.003 A 
ATOM      4  C   UNL     1       3.068   6.679  -7.433  0.00  0.00    +0.006 A 
ATOM      5  C   UNL     1       2.993   5.320  -7.068  0.00  0.00    +0.035 A 
ATOM      6 BR   UNL     1       2.686   4.938  -5.213  0.00  0.00    -0.049 Br
ATOM      7  C   UNL     1       2.901   4.340  -8.052  0.00  0.00    +0.006 A 
ATOM      8  C   UNL     1       3.352   4.611  -9.345  0.00  0.00    -0.003 A 
ENDBRANCH   1   2
BRANCH   1   9
ATOM      9  C   UNL     1       5.522   5.600 -10.923  0.00  0.00    +0.063 A 
ATOM     10  N   UNL     1       6.575   5.954 -10.247  0.00  0.00    -0.248 NA
ATOM     11  C   UNL     1       7.827   5.628 -10.689  0.00  0.00    +0.098 A 
ATOM     12  C   UNL     1       8.061   5.613 -12.044  0.00  0.00    +0.021 A 
ATOM     13  C   UNL     1       7.007   5.432 -12.895  0.00  0.00    +0.003 A 
ATOM     14  C   UNL     1       5.737   5.529 -12.305  0.00  0.00    +0.015 A 
ENDBRANCH   1   9
BRANCH   1  15
ATOM     15  C   UNL     1       3.401   5.616 -11.941  0.00  0.00    +0.028 C 
BRANCH  15  16
ATOM     16  C   UNL     1       2.205   6.350 -12.138  0.00  0.00    +0.073 C 
BRANCH  16  18
ATOM     17  C   UNL     1       0.460   4.877 -11.923  0.00  0.00    +0.090 C 
ATOM     18  N   UNL     1       0.907   5.940 -12.120  0.00  0.00    -0.270 NA
ATOM     19  C   UNL     1       0.235   6.922 -11.250  0.00  0.00    +0.090 C 
ENDBRANCH  16  18
ENDBRANCH  15  16
ENDBRANCH   1  15
TORSDOF 5
ENDMDL
MODEL 5
REMARK VINA RESULT:      -6.4      2.776      4.695
REMARK  Name = 
REMARK  5 active torsions:
REMARK  status: ('A' for Active; 'I' for Inactive)
REMARK    1  A    between atoms: N_2  and  C_4
REMARK    2  A    between atoms: C_4  and  C_5
REMARK    3  A    between atoms: C_5  and  C_6
REMARK    4  A    between atoms: C_6  and  C_7
REMARK    5  A    between atoms: C_6  and  C_14
REMARK                            x       y       z     vdW  Elec       q    Type
REMARK                         _______ _______ _______ _____ _____    ______ ____
ROOT
ATOM      1  C   UNL     1       3.624   5.314  -9.841  0.00  0.00    +0.064 C 
ENDROOT
BRANCH   1   2
ATOM      2  C   UNL     1       3.622   6.127  -8.457  0.00  0.00    -0.017 A 
ATOM      3  C   UNL     1       4.533   5.446  -7.659  0.00  0.00    -0.003 A 
ATOM      4  C   UNL     1       4.384   5.536  -6.322  0.00  0.00    +0.006 A 
ATOM      5  C   UNL     1       3.465   6.495  -5.853  0.00  0.00    +0.035 A 
ATOM      6 BR   UNL     1       3.339   6.716  -3.951  0.00  0.00    -0.049 Br
ATOM      7  C   UNL     1       2.877   7.389  -6.743  0.00  0.00    +0.006 A 
ATOM      8  C   UNL     1       2.800   7.067  -8.099  0.00  0.00    -0.003 A 
ENDBRANCH   1   2
BRANCH   1   9
ATOM      9  C   UNL     1       2.085   5.571 -10.294  0.00  0.00    +0.063 A 
ATOM     10  N   UNL     1       1.206   4.649 -10.034  0.00  0.00    -0.248 NA
ATOM     11  C   UNL     1       0.126   4.466 -10.852  0.00  0.00    +0.098 A 
ATOM     12  C   UNL     1       0.285   4.663 -12.203  0.00  0.00    +0.021 A 
ATOM     13  C   UNL     1       1.296   5.473 -12.637  0.00  0.00    +0.003 A 
ATOM     14  C   UNL     1       2.239   5.831 -11.661  0.00  0.00    +0.015 A 
ENDBRANCH   1   9
BRANCH   1  15
ATOM     15  C   UNL     1       4.152   6.617 -10.702  0.00  0.00    +0.028 C 
BRANCH  15  16
ATOM     16  C   UNL     1       5.507   6.282 -10.948  0.00  0.00    +0.073 C 
BRANCH  16  18
ATOM     17  C   UNL     1       7.762   6.606 -10.681  0.00  0.00    +0.090 C 
ATOM     18  N   UNL     1       6.648   6.964 -10.657  0.00  0.00    -0.270 NA
ATOM     19  C   UNL     1       6.520   8.216 -11.425  0.00  0.00    +0.090 C 
ENDBRANCH  16  18
ENDBRANCH  15  16
ENDBRANCH   1  15
TORSDOF 5
ENDMDL
MODEL 6
REMARK VINA RESULT:      -6.3      3.144      4.658
REMARK  Name = 
REMARK  5 active torsions:
REMARK  status: ('A' for Active; 'I' for Inactive)
REMARK    1  A    between atoms: N_2  and  C_4
REMARK    2  A    between atoms: C_4  and  C_5
REMARK    3  A    between atoms: C_5  and  C_6
REMARK    4  A    between atoms: C_6  and  C_7
REMARK    5  A    between atoms: C_6  and  C_14
REMARK                            x       y       z     vdW  Elec       q    Type
REMARK                         _______ _______ _______ _____ _____    ______ ____
ROOT
ATOM      1  C   UNL     1       1.589   6.917  -5.568  0.00  0.00    +0.064 C 
ENDROOT
BRANCH   1   2
ATOM      2  C   UNL     1       2.708   6.496  -6.639  0.00  0.00    -0.017 A 
ATOM      3  C   UNL     1       2.604   7.456  -7.638  0.00  0.00    -0.003 A 
ATOM      4  C   UNL     1       3.007   7.117  -8.878  0.00  0.00    +0.006 A 
ATOM      5  C   UNL     1       3.711   5.902  -9.001  0.00  0.00    +0.035 A 
ATOM      6 BR   UNL     1       4.396   5.472 -10.742  0.00  0.00    -0.049 Br
ATOM      7  C   UNL     1       4.086   5.197  -7.862  0.00  0.00    +0.006 A 
ATOM      8  C   UNL     1       3.395   5.394  -6.666  0.00  0.00    -0.003 A 
ENDBRANCH   1   2
BRANCH   1   9
ATOM      9  C   UNL     1       0.495   5.754  -5.866  0.00  0.00    +0.063 A 
ATOM     10  N   UNL     1      -0.036   5.699  -7.051  0.00  0.00    -0.248 NA
ATOM     11  C   UNL     1      -1.310   5.234  -7.222  0.00  0.00    +0.098 A 
ATOM     12  C   UNL     1      -2.243   5.505  -6.250  0.00  0.00    +0.021 A 
ATOM     13  C   UNL     1      -1.815   5.767  -4.978  0.00  0.00    +0.003 A 
ATOM     14  C   UNL     1      -0.435   5.981  -4.843  0.00  0.00    +0.015 A 
ENDBRANCH   1   9
BRANCH   1  15
ATOM     15  C   UNL     1       2.286   6.030  -4.366  0.00  0.00    +0.028 C 
BRANCH  15  16
ATOM     16  C   UNL     1       2.784   7.037  -3.502  0.00  0.00    +0.073 C 
BRANCH  16  18
ATOM     17  C   UNL     1       4.891   7.808  -3.979  0.00  0.00    +0.090 C 
ATOM     18  N   UNL     1       4.063   7.424  -3.247  0.00  0.00    -0.270 NA
ATOM     19  C   UNL     1       3.932   8.365  -2.120  0.00  0.00    +0.090 C 
ENDBRANCH  16  18
ENDBRANCH  15  16
ENDBRANCH   1  15
TORSDOF 5
ENDMDL
MODEL 7
REMARK VINA RESULT:      -6.3      4.170      6.315
REMARK  Name = 
REMARK  5 active torsions:
REMARK  status: ('A' for Active; 'I' for Inactive)
REMARK    1  A    between atoms: N_2  and  C_4
REMARK    2  A    between atoms: C_4  and  C_5
REMARK    3  A    between atoms: C_5  and  C_6
REMARK    4  A    between atoms: C_6  and  C_7
REMARK    5  A    between atoms: C_6  and  C_14
REMARK                            x       y       z     vdW  Elec       q    Type
REMARK                         _______ _______ _______ _____ _____    ______ ____
ROOT
ATOM      1  C   UNL     1       1.092   6.615  -5.390  0.00  0.00    +0.064 C 
ENDROOT
BRANCH   1   2
ATOM      2  C   UNL     1       0.949   6.153  -6.920  0.00  0.00    -0.017 A 
ATOM      3  C   UNL     1       1.929   6.874  -7.589  0.00  0.00    -0.003 A 
ATOM      4  C   UNL     1       1.743   7.117  -8.901  0.00  0.00    +0.006 A 
ATOM      5  C   UNL     1       0.690   6.422  -9.528  0.00  0.00    +0.035 A 
ATOM      6 BR   UNL     1       0.496   6.666 -11.421  0.00  0.00    -0.049 Br
ATOM      7  C   UNL     1       0.001   5.431  -8.834  0.00  0.00    +0.006 A 
ATOM      8  C   UNL     1      -0.003   5.437  -7.439  0.00  0.00    -0.003 A 
ENDBRANCH   1   2
BRANCH   1   9
ATOM      9  C   UNL     1      -0.482   6.663  -4.986  0.00  0.00    +0.063 A 
ATOM     10  N   UNL     1      -1.074   7.820  -4.959  0.00  0.00    -0.248 NA
ATOM     11  C   UNL     1      -2.108   8.052  -4.095  0.00  0.00    +0.098 A 
ATOM     12  C   UNL     1      -2.073   7.459  -2.855  0.00  0.00    +0.021 A 
ATOM     13  C   UNL     1      -1.332   6.323  -2.687  0.00  0.00    +0.003 A 
ATOM     14  C   UNL     1      -0.468   6.008  -3.748  0.00  0.00    +0.015 A 
ENDBRANCH   1   9
BRANCH   1  15
ATOM     15  C   UNL     1       1.240   5.065  -4.847  0.00  0.00    +0.028 C 
BRANCH  15  16
ATOM     16  C   UNL     1       2.647   4.911  -4.768  0.00  0.00    +0.073 C 
BRANCH  16  18
ATOM     17  C   UNL     1       3.941   4.993  -2.877  0.00  0.00    +0.090 C 
ATOM     18  N   UNL     1       3.541   5.432  -3.885  0.00  0.00    -0.270 NA
ATOM     19  C   UNL     1       4.680   5.836  -4.729  0.00  0.00    +0.090 C 
ENDBRANCH  16  18
ENDBRANCH  15  16
ENDBRANCH   1  15
TORSDOF 5
ENDMDL
MODEL 8
REMARK VINA RESULT:      -6.3      1.629      2.044
REMARK  Name = 
REMARK  5 active torsions:
REMARK  status: ('A' for Active; 'I' for Inactive)
REMARK    1  A    between atoms: N_2  and  C_4
REMARK    2  A    between atoms: C_4  and  C_5
REMARK    3  A    between atoms: C_5  and  C_6
REMARK    4  A    between atoms: C_6  and  C_7
REMARK    5  A    between atoms: C_6  and  C_14
REMARK                            x       y       z     vdW  Elec       q    Type
REMARK                         _______ _______ _______ _____ _____    ______ ____
ROOT
ATOM      1  C   UNL     1       3.003   6.771  -8.647  0.00  0.00    +0.064 C 
ENDROOT
BRANCH   1   2
ATOM      2  C   UNL     1       4.023   6.222  -9.758  0.00  0.00    -0.017 A 
ATOM      3  C   UNL     1       5.044   5.632  -9.025  0.00  0.00    -0.003 A 
ATOM      4  C   UNL     1       6.261   5.551  -9.599  0.00  0.00    +0.006 A 
ATOM      5  C   UNL     1       6.333   5.858 -10.972  0.00  0.00    +0.035 A 
ATOM      6 BR   UNL     1       8.036   5.624 -11.824  0.00  0.00    -0.049 Br
ATOM      7  C   UNL     1       5.165   6.077 -11.697  0.00  0.00    +0.006 A 
ATOM      8  C   UNL     1       4.000   6.466 -11.034  0.00  0.00    -0.003 A 
ENDBRANCH   1   2
BRANCH   1   9
ATOM      9  C   UNL     1       1.684   5.919  -9.063  0.00  0.00    +0.063 A 
ATOM     10  N   UNL     1       1.849   4.822  -9.741  0.00  0.00    -0.248 NA
ATOM     11  C   UNL     1       0.895   4.400 -10.625  0.00  0.00    +0.098 A 
ATOM     12  C   UNL     1       0.193   5.345 -11.333  0.00  0.00    +0.021 A 
ATOM     13  C   UNL     1       0.090   6.610 -10.825  0.00  0.00    +0.003 A 
ATOM     14  C   UNL     1       0.931   6.889  -9.737  0.00  0.00    +0.015 A 
ENDBRANCH   1   9
BRANCH   1  15
ATOM     15  C   UNL     1       3.459   5.632  -7.546  0.00  0.00    +0.028 C 
BRANCH  15  16
ATOM     16  C   UNL     1       2.576   5.890  -6.467  0.00  0.00    +0.073 C 
BRANCH  16  18
ATOM     17  C   UNL     1       0.930   5.119  -5.069  0.00  0.00    +0.090 C 
ATOM     18  N   UNL     1       1.966   5.033  -5.604  0.00  0.00    -0.270 NA
ATOM     19  C   UNL     1       2.062   3.724  -6.277  0.00  0.00    +0.090 C 
ENDBRANCH  16  18
ENDBRANCH  15  16
ENDBRANCH   1  15
TORSDOF 5
ENDMDL
MODEL 9
REMARK VINA RESULT:      -6.3      4.898      7.757
REMARK  Name = 
REMARK  5 active torsions:
REMARK  status: ('A' for Active; 'I' for Inactive)
REMARK    1  A    between atoms: N_2  and  C_4
REMARK    2  A    between atoms: C_4  and  C_5
REMARK    3  A    between atoms: C_5  and  C_6
REMARK    4  A    between atoms: C_6  and  C_7
REMARK    5  A    between atoms: C_6  and  C_14
REMARK                            x       y       z     vdW  Elec       q    Type
REMARK                         _______ _______ _______ _____ _____    ______ ____
ROOT
ATOM      1  C   UNL     1       0.827   6.741  -7.083  0.00  0.00    +0.064 C 
ENDROOT
BRANCH   1   2
ATOM      2  C   UNL     1       0.040   6.375  -5.732  0.00  0.00    -0.017 A 
ATOM      3  C   UNL     1      -1.115   5.740  -6.170  0.00  0.00    -0.003 A 
ATOM      4  C   UNL     1      -2.195   5.778  -5.364  0.00  0.00    +0.006 A 
ATOM      5  C   UNL     1      -1.988   6.257  -4.055  0.00  0.00    +0.035 A 
ATOM      6 BR   UNL     1      -3.491   6.198  -2.864  0.00  0.00    -0.049 Br
ATOM      7  C   UNL     1      -0.697   6.518  -3.606  0.00  0.00    +0.006 A 
ATOM      8  C   UNL     1       0.319   6.775  -4.528  0.00  0.00    -0.003 A 
ENDBRANCH   1   2
BRANCH   1   9
ATOM      9  C   UNL     1       2.208   5.932  -6.805  0.00  0.00    +0.063 A 
ATOM     10  N   UNL     1       2.176   4.927  -5.981  0.00  0.00    -0.248 NA
ATOM     11  C   UNL     1       3.275   4.604  -5.234  0.00  0.00    +0.098 A 
ATOM     12  C   UNL     1       4.080   5.621  -4.779  0.00  0.00    +0.021 A 
ATOM     13  C   UNL     1       4.079   6.814  -5.446  0.00  0.00    +0.003 A 
ATOM     14  C   UNL     1       3.057   6.968  -6.395  0.00  0.00    +0.015 A 
ENDBRANCH   1   9
BRANCH   1  15
ATOM     15  C   UNL     1       0.181   5.466  -7.904  0.00  0.00    +0.028 C 
BRANCH  15  16
ATOM     16  C   UNL     1       0.654   5.689  -9.221  0.00  0.00    +0.073 C 
BRANCH  16  18
ATOM     17  C   UNL     1       0.053   6.944 -11.044  0.00  0.00    +0.090 C 
ATOM     18  N   UNL     1      -0.024   5.999 -10.359  0.00  0.00    -0.270 NA
ATOM     19  C   UNL     1       0.095   4.784 -11.186  0.00  0.00    +0.090 C 
ENDBRANCH  16  18
ENDBRANCH  15  16
ENDBRANCH   1  15
TORSDOF 5
ENDMDL
