MODEL 1
REMARK VINA RESULT:      -7.5      0.000      0.000
REMARK  Name = 
REMARK  4 active torsions:
REMARK  status: ('A' for Active; 'I' for Inactive)
REMARK    1  A    between atoms: C_2  and  C_3
REMARK    2  A    between atoms: C_2  and  C_6
REMARK    3  A    between atoms: C_10  and  C_11
REMARK    4  A    between atoms: C_11  and  C_13
REMARK                            x       y       z     vdW  Elec       q    Type
REMARK                         _______ _______ _______ _____ _____    ______ ____
ROOT
ATOM      1  C   UNL     1       3.374   5.743  -5.720  0.00  0.00    -0.012 A 
ATOM      2  C   UNL     1       3.816   6.101  -6.996  0.00  0.00    -0.001 A 
ATOM      3  C   UNL     1       3.572   5.353  -8.123  0.00  0.00    +0.039 A 
ATOM      4  C   UNL     1       2.886   4.151  -7.989  0.00  0.00    +0.003 A 
ATOM      5  C   UNL     1       2.190   3.914  -6.811  0.00  0.00    -0.000 A 
ATOM      6  C   UNL     1       2.681   4.561  -5.693  0.00  0.00    -0.004 A 
ENDROOT
BRANCH   1   8
ATOM      7  C   UNL     1       3.673   5.323  -3.353  0.00  0.00    +0.017 C 
ATOM      8  C   UNL     1       4.604   5.834  -4.640  0.00  0.00    +0.126 C 
BRANCH   8   9
ATOM      9  C   UNL     1       4.259   7.398  -4.302  0.00  0.00    +0.368 C 
ATOM     10  O   UNL     1       3.196   7.523  -3.402  0.00  0.00    -0.245 OA
ATOM     11  O   UNL     1       5.273   8.120  -4.226  0.00  0.00    -0.245 OA
ENDBRANCH   8   9
ENDBRANCH   1   8
BRANCH   3  12
ATOM     12  C   UNL     1       3.655   5.895  -9.489  0.00  0.00    +0.196 C 
ATOM     13  O   UNL     1       2.884   5.364 -10.348  0.00  0.00    -0.287 OA
BRANCH  12  14
ATOM     14  C   UNL     1       4.990   6.222 -10.011  0.00  0.00    +0.039 A 
ATOM     15  C   UNL     1       6.111   5.493  -9.628  0.00  0.00    +0.003 A 
ATOM     16  C   UNL     1       7.353   6.108  -9.574  0.00  0.00    +0.000 A 
ATOM     17  C   UNL     1       7.592   7.050 -10.567  0.00  0.00    +0.000 A 
ATOM     18  C   UNL     1       6.513   7.741 -11.058  0.00  0.00    +0.000 A 
ATOM     19  C   UNL     1       5.224   7.256 -10.874  0.00  0.00    +0.003 A 
ENDBRANCH  12  14
ENDBRANCH   3  12
TORSDOF 4
ENDMDL
MODEL 2
REMARK VINA RESULT:      -7.5      4.166      5.755
REMARK  Name = 
REMARK  4 active torsions:
REMARK  status: ('A' for Active; 'I' for Inactive)
REMARK    1  A    between atoms: C_2  and  C_3
REMARK    2  A    between atoms: C_2  and  C_6
REMARK    3  A    between atoms: C_10  and  C_11
REMARK    4  A    between atoms: C_11  and  C_13
REMARK                            x       y       z     vdW  Elec       q    Type
REMARK                         _______ _______ _______ _____ _____    ______ ____
ROOT
ATOM      1  C   UNL     1      -1.679   7.083  -4.529  0.00  0.00    -0.012 A 
ATOM      2  C   UNL     1      -0.350   7.075  -4.958  0.00  0.00    -0.001 A 
ATOM      3  C   UNL     1       0.113   6.285  -5.984  0.00  0.00    +0.039 A 
ATOM      4  C   UNL     1      -0.774   5.414  -6.606  0.00  0.00    +0.003 A 
ATOM      5  C   UNL     1      -2.136   5.604  -6.411  0.00  0.00    -0.000 A 
ATOM      6  C   UNL     1      -2.483   6.216  -5.221  0.00  0.00    -0.004 A 
ENDROOT
BRANCH   1   8
ATOM      7  C   UNL     1      -0.759   5.591  -2.858  0.00  0.00    +0.017 C 
ATOM      8  C   UNL     1      -1.757   6.927  -2.899  0.00  0.00    +0.126 C 
BRANCH   8   9
ATOM      9  C   UNL     1      -3.079   5.969  -3.002  0.00  0.00    +0.368 C 
ATOM     10  O   UNL     1      -2.800   4.643  -2.659  0.00  0.00    -0.245 OA
ATOM     11  O   UNL     1      -4.128   6.537  -2.635  0.00  0.00    -0.245 OA
ENDBRANCH   8   9
ENDBRANCH   1   8
BRANCH   3  12
ATOM     12  C   UNL     1       1.365   6.552  -6.711  0.00  0.00    +0.196 C 
ATOM     13  O   UNL     1       1.354   6.294  -7.955  0.00  0.00    -0.287 OA
BRANCH  12  14
ATOM     14  C   UNL     1       2.626   6.203  -6.043  0.00  0.00    +0.039 A 
ATOM     15  C   UNL     1       2.874   4.906  -5.603  0.00  0.00    +0.003 A 
ATOM     16  C   UNL     1       3.678   4.691  -4.494  0.00  0.00    +0.000 A 
ATOM     17  C   UNL     1       4.758   5.556  -4.368  0.00  0.00    +0.000 A 
ATOM     18  C   UNL     1       4.614   6.826  -4.866  0.00  0.00    +0.000 A 
ATOM     19  C   UNL     1       3.618   7.110  -5.792  0.00  0.00    +0.003 A 
ENDBRANCH  12  14
ENDBRANCH   3  12
TORSDOF 4
ENDMDL
MODEL 3
REMARK VINA RESULT:      -7.5      2.125      6.202
REMARK  Name = 
REMARK  4 active torsions:
REMARK  status: ('A' for Active; 'I' for Inactive)
REMARK    1  A    between atoms: C_2  and  C_3
REMARK    2  A    between atoms: C_2  and  C_6
REMARK    3  A    between atoms: C_10  and  C_11
REMARK    4  A    between atoms: C_11  and  C_13
REMARK                            x       y       z     vdW  Elec       q    Type
REMARK                         _______ _______ _______ _____ _____    ______ ____
ROOT
ATOM      1  C   UNL     1       5.582   5.694 -10.263  0.00  0.00    -0.012 A 
ATOM      2  C   UNL     1       5.420   5.357  -8.916  0.00  0.00    -0.001 A 
ATOM      3  C   UNL     1       4.352   5.767  -8.153  0.00  0.00    +0.039 A 
ATOM      4  C   UNL     1       3.399   6.598  -8.733  0.00  0.00    +0.003 A 
ATOM      5  C   UNL     1       3.371   6.709 -10.116  0.00  0.00    -0.000 A 
ATOM      6  C   UNL     1       4.578   6.488 -10.753  0.00  0.00    -0.004 A 
ENDROOT
BRANCH   1   8
ATOM      7  C   UNL     1       6.565   7.748 -11.088  0.00  0.00    +0.017 C 
ATOM      8  C   UNL     1       7.094   6.266 -10.533  0.00  0.00    +0.126 C 
BRANCH   8   9
ATOM      9  C   UNL     1       7.103   5.669 -12.056  0.00  0.00    +0.368 C 
ATOM     10  O   UNL     1       7.212   6.677 -13.019  0.00  0.00    -0.245 OA
ATOM     11  O   UNL     1       7.724   4.592 -12.159  0.00  0.00    -0.245 OA
ENDBRANCH   8   9
ENDBRANCH   1   8
BRANCH   3  12
ATOM     12  C   UNL     1       3.950   5.108  -6.900  0.00  0.00    +0.196 C 
ATOM     13  O   UNL     1       2.761   4.664  -6.860  0.00  0.00    -0.287 OA
BRANCH  12  14
ATOM     14  C   UNL     1       4.402   5.712  -5.639  0.00  0.00    +0.039 A 
ATOM     15  C   UNL     1       4.643   4.933  -4.512  0.00  0.00    +0.003 A 
ATOM     16  C   UNL     1       4.450   5.465  -3.246  0.00  0.00    +0.000 A 
ATOM     17  C   UNL     1       4.800   6.801  -3.105  0.00  0.00    +0.000 A 
ATOM     18  C   UNL     1       4.676   7.610  -4.207  0.00  0.00    +0.000 A 
ATOM     19  C   UNL     1       4.595   7.056  -5.479  0.00  0.00    +0.003 A 
ENDBRANCH  12  14
ENDBRANCH   3  12
TORSDOF 4
ENDMDL
MODEL 4
REMARK VINA RESULT:      -7.4      3.315      6.608
REMARK  Name = 
REMARK  4 active torsions:
REMARK  status: ('A' for Active; 'I' for Inactive)
REMARK    1  A    between atoms: C_2  and  C_3
REMARK    2  A    between atoms: C_2  and  C_6
REMARK    3  A    between atoms: C_10  and  C_11
REMARK    4  A    between atoms: C_11  and  C_13
REMARK                            x       y       z     vdW  Elec       q    Type
REMARK                         _______ _______ _______ _____ _____    ______ ____
ROOT
ATOM      1  C   UNL     1       6.847   7.155 -11.077  0.00  0.00    -0.012 A 
ATOM      2  C   UNL     1       5.454   7.148 -10.971  0.00  0.00    -0.001 A 
ATOM      3  C   UNL     1       4.764   6.376 -10.066  0.00  0.00    +0.039 A 
ATOM      4  C   UNL     1       5.482   5.522  -9.235  0.00  0.00    +0.003 A 
ATOM      5  C   UNL     1       6.851   5.716  -9.110  0.00  0.00    -0.000 A 
ATOM      6  C   UNL     1       7.467   6.306 -10.198  0.00  0.00    -0.004 A 
ENDROOT
BRANCH   1   8
ATOM      7  C   UNL     1       6.061   5.917 -13.004  0.00  0.00    +0.017 C 
ATOM      8  C   UNL     1       7.304   6.968 -12.639  0.00  0.00    +0.126 C 
BRANCH   8   9
ATOM      9  C   UNL     1       8.285   5.716 -12.255  0.00  0.00    +0.368 C 
ATOM     10  O   UNL     1       7.755   4.485 -12.657  0.00  0.00    -0.245 OA
ATOM     11  O   UNL     1       9.497   5.982 -12.383  0.00  0.00    -0.245 OA
ENDBRANCH   8   9
ENDBRANCH   1   8
BRANCH   3  12
ATOM     12  C   UNL     1       3.377   6.650  -9.657  0.00  0.00    +0.196 C 
ATOM     13  O   UNL     1       3.186   6.831  -8.415  0.00  0.00    -0.287 OA
BRANCH  12  14
ATOM     14  C   UNL     1       2.310   5.883 -10.318  0.00  0.00    +0.039 A 
ATOM     15  C   UNL     1       2.160   5.903 -11.700  0.00  0.00    +0.003 A 
ATOM     16  C   UNL     1       0.902   5.749 -12.263  0.00  0.00    +0.000 A 
ATOM     17  C   UNL     1       0.063   4.856 -11.607  0.00  0.00    +0.000 A 
ATOM     18  C   UNL     1       0.222   4.718 -10.251  0.00  0.00    +0.000 A 
ATOM     19  C   UNL     1       1.397   5.129  -9.635  0.00  0.00    +0.003 A 
ENDBRANCH  12  14
ENDBRANCH   3  12
TORSDOF 4
ENDMDL
MODEL 5
REMARK VINA RESULT:      -7.2      3.744      7.413
REMARK  Name = 
REMARK  4 active torsions:
REMARK  status: ('A' for Active; 'I' for Inactive)
REMARK    1  A    between atoms: C_2  and  C_3
REMARK    2  A    between atoms: C_2  and  C_6
REMARK    3  A    between atoms: C_10  and  C_11
REMARK    4  A    between atoms: C_11  and  C_13
REMARK                            x       y       z     vdW  Elec       q    Type
REMARK                         _______ _______ _______ _____ _____    ______ ____
ROOT
ATOM      1  C   UNL     1       1.034   6.058  -9.909  0.00  0.00    -0.012 A 
ATOM      2  C   UNL     1       0.609   5.937  -8.583  0.00  0.00    -0.001 A 
ATOM      3  C   UNL     1       1.236   5.142  -7.653  0.00  0.00    +0.039 A 
ATOM      4  C   UNL     1       2.328   4.381  -8.055  0.00  0.00    +0.003 A 
ATOM      5  C   UNL     1       2.946   4.693  -9.258  0.00  0.00    -0.000 A 
ATOM      6  C   UNL     1       2.134   5.295 -10.201  0.00  0.00    -0.004 A 
ENDROOT
BRANCH   1   8
ATOM      7  C   UNL     1       0.668   5.001 -12.058  0.00  0.00    +0.017 C 
ATOM      8  C   UNL     1      -0.226   5.855 -10.936  0.00  0.00    +0.126 C 
BRANCH   8   9
ATOM      9  C   UNL     1       0.106   7.262 -11.703  0.00  0.00    +0.368 C 
ATOM     10  O   UNL     1       0.658   7.056 -12.971  0.00  0.00    -0.245 OA
ATOM     11  O   UNL     1      -0.744   8.150 -11.493  0.00  0.00    -0.245 OA
ENDBRANCH   8   9
ENDBRANCH   1   8
BRANCH   3  12
ATOM     12  C   UNL     1       1.074   5.313  -6.200  0.00  0.00    +0.196 C 
ATOM     13  O   UNL     1       1.496   4.360  -5.475  0.00  0.00    -0.287 OA
BRANCH  12  14
ATOM     14  C   UNL     1      -0.180   5.914  -5.722  0.00  0.00    +0.039 A 
ATOM     15  C   UNL     1      -1.413   5.352  -6.035  0.00  0.00    +0.003 A 
ATOM     16  C   UNL     1      -2.533   6.160  -6.158  0.00  0.00    +0.000 A 
ATOM     17  C   UNL     1      -2.597   7.224  -5.267  0.00  0.00    +0.000 A 
ATOM     18  C   UNL     1      -1.411   7.767  -4.842  0.00  0.00    +0.000 A 
ATOM     19  C   UNL     1      -0.226   7.054  -4.968  0.00  0.00    +0.003 A 
ENDBRANCH  12  14
ENDBRANCH   3  12
TORSDOF 4
ENDMDL
MODEL 6
REMARK VINA RESULT:      -7.2      3.954      6.908
REMARK  Name = 
REMARK  4 active torsions:
REMARK  status: ('A' for Active; 'I' for Inactive)
REMARK    1  A    between atoms: C_2  and  C_3
REMARK    2  A    between atoms: C_2  and  C_6
REMARK    3  A    between atoms: C_10  and  C_11
REMARK    4  A    between atoms: C_11  and  C_13
REMARK                            x       y       z     vdW  Elec       q    Type
REMARK                         _______ _______ _______ _____ _____    ______ ____
ROOT
ATOM      1  C   UNL     1       2.962   6.509  -4.876  0.00  0.00    -0.012 A 
ATOM      2  C   UNL     1       1.602   6.216  -4.747  0.00  0.00    -0.001 A 
ATOM      3  C   UNL     1       0.671   6.473  -5.725  0.00  0.00    +0.039 A 
ATOM      4  C   UNL     1       1.091   7.097  -6.895  0.00  0.00    +0.003 A 
ATOM      5  C   UNL     1       2.450   7.134  -7.176  0.00  0.00    -0.000 A 
ATOM      6  C   UNL     1       3.283   7.093  -6.073  0.00  0.00    -0.004 A 
ENDROOT
BRANCH   1   8
ATOM      7  C   UNL     1       5.002   7.636  -4.218  0.00  0.00    +0.017 C 
ATOM      8  C   UNL     1       3.502   7.319  -3.558  0.00  0.00    +0.126 C 
BRANCH   8   9
ATOM      9  C   UNL     1       4.064   5.940  -2.878  0.00  0.00    +0.368 C 
ATOM     10  O   UNL     1       4.928   5.244  -3.729  0.00  0.00    -0.245 OA
ATOM     11  O   UNL     1       4.293   6.051  -1.657  0.00  0.00    -0.245 OA
ENDBRANCH   8   9
ENDBRANCH   1   8
BRANCH   3  12
ATOM     12  C   UNL     1      -0.644   5.816  -5.787  0.00  0.00    +0.196 C 
ATOM     13  O   UNL     1      -1.139   5.664  -6.946  0.00  0.00    -0.287 OA
BRANCH  12  14
ATOM     14  C   UNL     1      -1.633   6.179  -4.761  0.00  0.00    +0.039 A 
ATOM     15  C   UNL     1      -1.706   7.473  -4.257  0.00  0.00    +0.003 A 
ATOM     16  C   UNL     1      -2.127   7.687  -2.952  0.00  0.00    +0.000 A 
ATOM     17  C   UNL     1      -3.134   6.840  -2.508  0.00  0.00    +0.000 A 
ATOM     18  C   UNL     1      -3.177   5.575  -3.036  0.00  0.00    +0.000 A 
ATOM     19  C   UNL     1      -2.519   5.286  -4.225  0.00  0.00    +0.003 A 
ENDBRANCH  12  14
ENDBRANCH   3  12
TORSDOF 4
ENDMDL
MODEL 7
REMARK VINA RESULT:      -7.1      4.583      8.278
REMARK  Name = 
REMARK  4 active torsions:
REMARK  status: ('A' for Active; 'I' for Inactive)
REMARK    1  A    between atoms: C_2  and  C_3
REMARK    2  A    between atoms: C_2  and  C_6
REMARK    3  A    between atoms: C_10  and  C_11
REMARK    4  A    between atoms: C_11  and  C_13
REMARK                            x       y       z     vdW  Elec       q    Type
REMARK                         _______ _______ _______ _____ _____    ______ ____
ROOT
ATOM      1  C   UNL     1      -0.010   5.194  -6.229  0.00  0.00    -0.012 A 
ATOM      2  C   UNL     1      -0.143   5.282  -4.841  0.00  0.00    -0.001 A 
ATOM      3  C   UNL     1      -1.315   5.626  -4.210  0.00  0.00    +0.039 A 
ATOM      4  C   UNL     1      -2.422   5.946  -4.988  0.00  0.00    +0.003 A 
ATOM      5  C   UNL     1      -2.413   5.592  -6.330  0.00  0.00    -0.000 A 
ATOM      6  C   UNL     1      -1.161   5.498  -6.909  0.00  0.00    -0.004 A 
ENDROOT
BRANCH   1   8
ATOM      7  C   UNL     1       1.066   5.674  -8.346  0.00  0.00    +0.017 C 
ATOM      8  C   UNL     1       1.314   6.020  -6.732  0.00  0.00    +0.126 C 
BRANCH   8   9
ATOM      9  C   UNL     1       2.264   4.698  -6.567  0.00  0.00    +0.368 C 
ATOM     10  O   UNL     1       2.333   3.945  -7.744  0.00  0.00    -0.245 OA
ATOM     11  O   UNL     1       3.268   4.899  -5.855  0.00  0.00    -0.245 OA
ENDBRANCH   8   9
ENDBRANCH   1   8
BRANCH   3  12
ATOM     12  C   UNL     1      -1.592   5.328  -2.795  0.00  0.00    +0.196 C 
ATOM     13  O   UNL     1      -2.718   4.797  -2.547  0.00  0.00    -0.287 OA
BRANCH  12  14
ATOM     14  C   UNL     1      -1.168   6.320  -1.796  0.00  0.00    +0.039 A 
ATOM     15  C   UNL     1       0.106   6.282  -1.238  0.00  0.00    +0.003 A 
ATOM     16  C   UNL     1       0.310   6.738   0.055  0.00  0.00    +0.000 A 
ATOM     17  C   UNL     1      -0.443   7.847   0.419  0.00  0.00    +0.000 A 
ATOM     18  C   UNL     1      -1.675   7.997  -0.167  0.00  0.00    +0.000 A 
ATOM     19  C   UNL     1      -1.983   7.318  -1.339  0.00  0.00    +0.003 A 
ENDBRANCH  12  14
ENDBRANCH   3  12
TORSDOF 4
ENDMDL
MODEL 8
REMARK VINA RESULT:      -7.1      4.520      5.864
REMARK  Name = 
REMARK  4 active torsions:
REMARK  status: ('A' for Active; 'I' for Inactive)
REMARK    1  A    between atoms: C_2  and  C_3
REMARK    2  A    between atoms: C_2  and  C_6
REMARK    3  A    between atoms: C_10  and  C_11
REMARK    4  A    between atoms: C_11  and  C_13
REMARK                            x       y       z     vdW  Elec       q    Type
REMARK                         _______ _______ _______ _____ _____    ______ ____
ROOT
ATOM      1  C   UNL     1      -1.617   7.253  -4.268  0.00  0.00    -0.012 A 
ATOM      2  C   UNL     1      -0.575   6.366  -4.546  0.00  0.00    -0.001 A 
ATOM      3  C   UNL     1      -0.606   5.453  -5.574  0.00  0.00    +0.039 A 
ATOM      4  C   UNL     1      -1.753   5.373  -6.358  0.00  0.00    +0.003 A 
ATOM      5  C   UNL     1      -2.669   6.414  -6.300  0.00  0.00    -0.000 A 
ATOM      6  C   UNL     1      -2.689   7.119  -5.111  0.00  0.00    -0.004 A 
ENDROOT
BRANCH   1   8
ATOM      7  C   UNL     1      -0.898   6.004  -2.321  0.00  0.00    +0.017 C 
ATOM      8  C   UNL     1      -1.998   7.208  -2.674  0.00  0.00    +0.126 C 
BRANCH   8   9
ATOM      9  C   UNL     1      -3.171   6.097  -2.933  0.00  0.00    +0.368 C 
ATOM     10  O   UNL     1      -2.746   4.799  -2.634  0.00  0.00    -0.245 OA
ATOM     11  O   UNL     1      -4.310   6.503  -2.626  0.00  0.00    -0.245 OA
ENDBRANCH   8   9
ENDBRANCH   1   8
BRANCH   3  12
ATOM     12  C   UNL     1       0.599   4.821  -6.135  0.00  0.00    +0.196 C 
ATOM     13  O   UNL     1       1.370   4.251  -5.302  0.00  0.00    -0.287 OA
BRANCH  12  14
ATOM     14  C   UNL     1       1.306   5.538  -7.206  0.00  0.00    +0.039 A 
ATOM     15  C   UNL     1       2.191   6.572  -6.918  0.00  0.00    +0.003 A 
ATOM     16  C   UNL     1       2.361   7.612  -7.820  0.00  0.00    +0.000 A 
ATOM     17  C   UNL     1       2.320   7.247  -9.160  0.00  0.00    +0.000 A 
ATOM     18  C   UNL     1       1.537   6.173  -9.501  0.00  0.00    +0.000 A 
ATOM     19  C   UNL     1       1.134   5.262  -8.534  0.00  0.00    +0.003 A 
ENDBRANCH  12  14
ENDBRANCH   3  12
TORSDOF 4
ENDMDL
MODEL 9
REMARK VINA RESULT:      -7.0      3.380      6.783
REMARK  Name = 
REMARK  4 active torsions:
REMARK  status: ('A' for Active; 'I' for Inactive)
REMARK    1  A    between atoms: C_2  and  C_3
REMARK    2  A    between atoms: C_2  and  C_6
REMARK    3  A    between atoms: C_10  and  C_11
REMARK    4  A    between atoms: C_11  and  C_13
REMARK                            x       y       z     vdW  Elec       q    Type
REMARK                         _______ _______ _______ _____ _____    ______ ____
ROOT
ATOM      1  C   UNL     1       2.942   5.430  -9.474  0.00  0.00    -0.012 A 
ATOM      2  C   UNL     1       2.583   5.501  -8.126  0.00  0.00    -0.001 A 
ATOM      3  C   UNL     1       1.281   5.516  -7.685  0.00  0.00    +0.039 A 
ATOM      4  C   UNL     1       0.259   5.503  -8.628  0.00  0.00    +0.003 A 
ATOM      5  C   UNL     1       0.566   5.142  -9.933  0.00  0.00    -0.000 A 
ATOM      6  C   UNL     1       1.868   5.390 -10.324  0.00  0.00    -0.004 A 
ENDROOT
BRANCH   1   8
ATOM      7  C   UNL     1       3.794   6.487 -11.480  0.00  0.00    +0.017 C 
ATOM      8  C   UNL     1       4.051   6.582  -9.834  0.00  0.00    +0.126 C 
BRANCH   8   9
ATOM      9  C   UNL     1       5.249   5.471  -9.931  0.00  0.00    +0.368 C 
ATOM     10  O   UNL     1       5.786   5.382 -11.219  0.00  0.00    -0.245 OA
ATOM     11  O   UNL     1       5.970   5.434  -8.913  0.00  0.00    -0.245 OA
ENDBRANCH   8   9
ENDBRANCH   1   8
BRANCH   3  12
ATOM     12  C   UNL     1       0.887   5.176  -6.308  0.00  0.00    +0.196 C 
ATOM     13  O   UNL     1       0.964   3.949  -5.992  0.00  0.00    -0.287 OA
BRANCH  12  14
ATOM     14  C   UNL     1      -0.288   5.861  -5.750  0.00  0.00    +0.039 A 
ATOM     15  C   UNL     1      -1.575   5.383  -5.975  0.00  0.00    +0.003 A 
ATOM     16  C   UNL     1      -2.644   6.265  -6.026  0.00  0.00    +0.000 A 
ATOM     17  C   UNL     1      -2.575   7.332  -5.139  0.00  0.00    +0.000 A 
ATOM     18  C   UNL     1      -1.329   7.795  -4.799  0.00  0.00    +0.000 A 
ATOM     19  C   UNL     1      -0.205   7.003  -5.002  0.00  0.00    +0.003 A 
ENDBRANCH  12  14
ENDBRANCH   3  12
TORSDOF 4
ENDMDL
