MODEL 1
REMARK VINA RESULT:      -9.3      0.000      0.000
REMARK  Name = 
REMARK  4 active torsions:
REMARK  status: ('A' for Active; 'I' for Inactive)
REMARK    1  A    between atoms: C_2  and  C_3
REMARK    2  A    between atoms: C_10  and  N_11
REMARK    3  A    between atoms: N_11  and  C_12
REMARK    4  A    between atoms: C_22  and  C_24
REMARK                            x       y       z     vdW  Elec       q    Type
REMARK                         _______ _______ _______ _____ _____    ______ ____
ROOT
ATOM      1  C   UNL     1       3.430   5.599  -7.113  0.00  0.00    +0.071 A 
ATOM      2  C   UNL     1       2.207   5.899  -7.708  0.00  0.00    +0.105 A 
ATOM      3  C   UNL     1       2.321   6.446  -8.983  0.00  0.00    +0.183 A 
ATOM      4  F   UNL     1       1.327   7.255  -9.380  0.00  0.00    -0.200 F 
ATOM      5  C   UNL     1       3.463   6.391  -9.738  0.00  0.00    +0.169 A 
ATOM      6  F   UNL     1       3.483   6.688 -11.070  0.00  0.00    -0.202 F 
ATOM      7  C   UNL     1       4.626   5.915  -9.148  0.00  0.00    +0.032 A 
ATOM      8  C   UNL     1       4.591   5.452  -7.844  0.00  0.00    +0.008 A 
ENDROOT
BRANCH   1  10
ATOM      9  O   UNL     1       3.339   4.537  -5.758  0.00  0.00    -0.270 OA
ATOM     10  C   UNL     1       3.382   4.954  -5.790  0.00  0.00    +0.250 C 
ATOM     11  N   UNL     1       3.739   5.793  -4.677  0.00  0.00    -0.271 N 
ATOM     12  C   UNL     1       3.341   7.029  -4.068  0.00  0.00    +0.127 C 
ATOM     13  C   UNL     1       3.413   6.371  -2.743  0.00  0.00    +0.177 C 
ATOM     14  O   UNL     1       2.254   5.944  -2.149  0.00  0.00    -0.221 OA
ATOM     15  C   UNL     1       4.300   5.387  -3.385  0.00  0.00    +0.127 C 
BRANCH  13  16
ATOM     16  C   UNL     1       4.246   7.302  -1.685  0.00  0.00    +0.104 C 
ATOM     17  N   UNL     1       2.932   7.918  -1.076  0.00  0.00    -0.217 NA
ATOM     18  C   UNL     1       3.370   8.813  -0.037  0.00  0.00    +0.089 C 
ATOM     19  C   UNL     1       4.714   8.345   0.504  0.00  0.00    +0.019 C 
ATOM     20  C   UNL     1       4.725   6.853   0.705  0.00  0.00    +0.003 C 
ATOM     21  C   UNL     1       4.304   6.120  -0.546  0.00  0.00    +0.020 C 
ENDBRANCH  13  16
ENDBRANCH   1  10
BRANCH   2  22
ATOM     22  N   UNL     1       1.010   5.214  -7.423  0.00  0.00    -0.208 NA
BRANCH  22  23
ATOM     23  C   UNL     1       0.009   5.554  -6.511  0.00  0.00    +0.098 A 
ATOM     24  C   UNL     1       0.162   6.729  -5.782  0.00  0.00    +0.156 A 
ATOM     25  F   UNL     1       0.934   7.770  -6.211  0.00  0.00    -0.203 F 
ATOM     26  C   UNL     1      -0.850   7.045  -4.882  0.00  0.00    +0.037 A 
ATOM     27  C   UNL     1      -2.039   6.328  -4.830  0.00  0.00    +0.032 A 
ATOM     28  I   UNL     1      -3.143   6.136  -3.034  0.00  0.00    -0.042 I 
ATOM     29  C   UNL     1      -2.354   5.540  -5.930  0.00  0.00    +0.007 A 
ATOM     30  C   UNL     1      -1.308   5.166  -6.751  0.00  0.00    +0.019 A 
ENDBRANCH  22  23
ENDBRANCH   2  22
TORSDOF 4
ENDMDL
MODEL 2
REMARK VINA RESULT:      -9.0      3.449      7.536
REMARK  Name = 
REMARK  4 active torsions:
REMARK  status: ('A' for Active; 'I' for Inactive)
REMARK    1  A    between atoms: C_2  and  C_3
REMARK    2  A    between atoms: C_10  and  N_11
REMARK    3  A    between atoms: N_11  and  C_12
REMARK    4  A    between atoms: C_22  and  C_24
REMARK                            x       y       z     vdW  Elec       q    Type
REMARK                         _______ _______ _______ _____ _____    ______ ____
ROOT
ATOM      1  C   UNL     1       2.122   6.064  -7.489  0.00  0.00    +0.071 A 
ATOM      2  C   UNL     1       1.628   5.789  -6.215  0.00  0.00    +0.105 A 
ATOM      3  C   UNL     1       0.245   5.633  -6.170  0.00  0.00    +0.183 A 
ATOM      4  F   UNL     1      -0.355   5.929  -5.007  0.00  0.00    -0.200 F 
ATOM      5  C   UNL     1      -0.535   5.422  -7.276  0.00  0.00    +0.169 A 
ATOM      6  F   UNL     1      -1.834   5.008  -7.195  0.00  0.00    -0.202 F 
ATOM      7  C   UNL     1       0.047   5.535  -8.532  0.00  0.00    +0.032 A 
ATOM      8  C   UNL     1       1.403   5.792  -8.634  0.00  0.00    +0.008 A 
ENDROOT
BRANCH   1  10
ATOM      9  O   UNL     1       3.827   6.204  -7.280  0.00  0.00    -0.270 OA
ATOM     10  C   UNL     1       3.583   6.175  -7.621  0.00  0.00    +0.250 C 
ATOM     11  N   UNL     1       4.108   5.928  -8.938  0.00  0.00    -0.271 N 
ATOM     12  C   UNL     1       3.969   6.415 -10.280  0.00  0.00    +0.127 C 
ATOM     13  C   UNL     1       5.444   6.405 -10.410  0.00  0.00    +0.177 C 
ATOM     14  O   UNL     1       6.132   7.582 -10.274  0.00  0.00    -0.221 OA
ATOM     15  C   UNL     1       5.442   5.438  -9.300  0.00  0.00    +0.127 C 
BRANCH  13  16
ATOM     16  C   UNL     1       5.892   5.682 -11.809  0.00  0.00    +0.104 C 
ATOM     17  N   UNL     1       5.947   7.050 -12.586  0.00  0.00    -0.217 NA
ATOM     18  C   UNL     1       6.363   6.718 -13.923  0.00  0.00    +0.089 C 
ATOM     19  C   UNL     1       7.188   5.439 -13.897  0.00  0.00    +0.019 C 
ATOM     20  C   UNL     1       8.171   5.454 -12.757  0.00  0.00    +0.003 C 
ATOM     21  C   UNL     1       7.491   5.746 -11.441  0.00  0.00    +0.020 C 
ENDBRANCH  13  16
ENDBRANCH   1  10
BRANCH   2  22
ATOM     22  N   UNL     1       2.368   5.128  -5.216  0.00  0.00    -0.208 NA
BRANCH  22  23
ATOM     23  C   UNL     1       2.960   5.668  -4.072  0.00  0.00    +0.098 A 
ATOM     24  C   UNL     1       4.139   5.090  -3.612  0.00  0.00    +0.156 A 
ATOM     25  F   UNL     1       4.981   4.383  -4.422  0.00  0.00    -0.203 F 
ATOM     26  C   UNL     1       4.707   5.648  -2.472  0.00  0.00    +0.037 A 
ATOM     27  C   UNL     1       4.231   6.827  -1.914  0.00  0.00    +0.032 A 
ATOM     28  I   UNL     1       4.390   7.218   0.160  0.00  0.00    -0.042 I 
ATOM     29  C   UNL     1       3.432   7.632  -2.717  0.00  0.00    +0.007 A 
ATOM     30  C   UNL     1       2.807   7.023  -3.787  0.00  0.00    +0.019 A 
ENDBRANCH  22  23
ENDBRANCH   2  22
TORSDOF 4
ENDMDL
MODEL 3
REMARK VINA RESULT:      -8.9      2.867      6.710
REMARK  Name = 
REMARK  4 active torsions:
REMARK  status: ('A' for Active; 'I' for Inactive)
REMARK    1  A    between atoms: C_2  and  C_3
REMARK    2  A    between atoms: C_10  and  N_11
REMARK    3  A    between atoms: N_11  and  C_12
REMARK    4  A    between atoms: C_22  and  C_24
REMARK                            x       y       z     vdW  Elec       q    Type
REMARK                         _______ _______ _______ _____ _____    ______ ____
ROOT
ATOM      1  C   UNL     1       0.267   5.245  -6.145  0.00  0.00    +0.071 A 
ATOM      2  C   UNL     1       0.174   5.799  -4.870  0.00  0.00    +0.105 A 
ATOM      3  C   UNL     1      -0.991   6.531  -4.659  0.00  0.00    +0.183 A 
ATOM      4  F   UNL     1      -0.924   7.519  -3.754  0.00  0.00    -0.200 F 
ATOM      5  C   UNL     1      -2.099   6.451  -5.461  0.00  0.00    +0.169 A 
ATOM      6  F   UNL     1      -3.313   6.959  -5.098  0.00  0.00    -0.202 F 
ATOM      7  C   UNL     1      -2.010   5.733  -6.647  0.00  0.00    +0.032 A 
ATOM      8  C   UNL     1      -0.834   5.069  -6.956  0.00  0.00    +0.008 A 
ENDROOT
BRANCH   1  10
ATOM      9  O   UNL     1       1.490   4.032  -6.221  0.00  0.00    -0.270 OA
ATOM     10  C   UNL     1       1.443   4.402  -6.415  0.00  0.00    +0.250 C 
ATOM     11  N   UNL     1       2.250   4.803  -7.537  0.00  0.00    -0.271 N 
ATOM     12  C   UNL     1       2.985   5.944  -8.003  0.00  0.00    +0.127 C 
ATOM     13  C   UNL     1       4.105   5.045  -8.364  0.00  0.00    +0.177 C 
ATOM     14  O   UNL     1       5.183   4.953  -7.523  0.00  0.00    -0.221 OA
ATOM     15  C   UNL     1       3.107   3.962  -8.378  0.00  0.00    +0.127 C 
BRANCH  13  16
ATOM     16  C   UNL     1       4.633   5.367  -9.879  0.00  0.00    +0.104 C 
ATOM     17  N   UNL     1       4.557   6.924  -9.655  0.00  0.00    -0.217 NA
ATOM     18  C   UNL     1       5.015   7.514 -10.885  0.00  0.00    +0.089 C 
ATOM     19  C   UNL     1       5.964   6.554 -11.589  0.00  0.00    +0.019 C 
ATOM     20  C   UNL     1       6.931   5.940 -10.613  0.00  0.00    +0.003 C 
ATOM     21  C   UNL     1       6.215   5.311  -9.441  0.00  0.00    +0.020 C 
ENDBRANCH  13  16
ENDBRANCH   1  10
BRANCH   2  22
ATOM     22  N   UNL     1       0.782   5.241  -3.729  0.00  0.00    -0.208 NA
BRANCH  22  23
ATOM     23  C   UNL     1       1.614   5.862  -2.795  0.00  0.00    +0.098 A 
ATOM     24  C   UNL     1       2.636   6.676  -3.271  0.00  0.00    +0.156 A 
ATOM     25  F   UNL     1       2.597   7.272  -4.499  0.00  0.00    -0.203 F 
ATOM     26  C   UNL     1       3.449   7.283  -2.320  0.00  0.00    +0.037 A 
ATOM     27  C   UNL     1       3.158   7.231  -0.962  0.00  0.00    +0.032 A 
ATOM     28  I   UNL     1       4.684   7.295   0.504  0.00  0.00    -0.042 I 
ATOM     29  C   UNL     1       1.860   6.890  -0.604  0.00  0.00    +0.007 A 
ATOM     30  C   UNL     1       1.113   6.204  -1.540  0.00  0.00    +0.019 A 
ENDBRANCH  22  23
ENDBRANCH   2  22
TORSDOF 4
ENDMDL
MODEL 4
REMARK VINA RESULT:      -8.8      2.939      5.194
REMARK  Name = 
REMARK  4 active torsions:
REMARK  status: ('A' for Active; 'I' for Inactive)
REMARK    1  A    between atoms: C_2  and  C_3
REMARK    2  A    between atoms: C_10  and  N_11
REMARK    3  A    between atoms: N_11  and  C_12
REMARK    4  A    between atoms: C_22  and  C_24
REMARK                            x       y       z     vdW  Elec       q    Type
REMARK                         _______ _______ _______ _____ _____    ______ ____
ROOT
ATOM      1  C   UNL     1      -0.268   5.500  -3.101  0.00  0.00    +0.071 A 
ATOM      2  C   UNL     1      -0.838   5.939  -4.294  0.00  0.00    +0.105 A 
ATOM      3  C   UNL     1      -2.229   5.986  -4.270  0.00  0.00    +0.183 A 
ATOM      4  F   UNL     1      -2.857   5.835  -5.445  0.00  0.00    -0.200 F 
ATOM      5  C   UNL     1      -2.974   5.948  -3.120  0.00  0.00    +0.169 A 
ATOM      6  F   UNL     1      -4.302   6.262  -3.089  0.00  0.00    -0.202 F 
ATOM      7  C   UNL     1      -2.329   5.680  -1.919  0.00  0.00    +0.032 A 
ATOM      8  C   UNL     1      -0.953   5.522  -1.904  0.00  0.00    +0.008 A 
ENDROOT
BRANCH   1  10
ATOM      9  O   UNL     1       1.428   5.308  -3.339  0.00  0.00    -0.270 OA
ATOM     10  C   UNL     1       1.202   5.490  -3.035  0.00  0.00    +0.250 C 
ATOM     11  N   UNL     1       1.785   6.339  -2.030  0.00  0.00    -0.271 N 
ATOM     12  C   UNL     1       1.742   6.540  -0.610  0.00  0.00    +0.127 C 
ATOM     13  C   UNL     1       3.220   6.635  -0.604  0.00  0.00    +0.177 C 
ATOM     14  O   UNL     1       3.955   5.544  -0.219  0.00  0.00    -0.221 OA
ATOM     15  C   UNL     1       3.111   6.963  -2.035  0.00  0.00    +0.127 C 
BRANCH  13  16
ATOM     16  C   UNL     1       3.707   7.940   0.256  0.00  0.00    +0.104 C 
ATOM     17  N   UNL     1       3.036   7.412   1.579  0.00  0.00    -0.217 NA
ATOM     18  C   UNL     1       3.335   8.399   2.584  0.00  0.00    +0.089 C 
ATOM     19  C   UNL     1       4.627   9.119   2.222  0.00  0.00    +0.019 C 
ATOM     20  C   UNL     1       5.674   8.145   1.751  0.00  0.00    +0.003 C 
ATOM     21  C   UNL     1       5.155   7.266   0.639  0.00  0.00    +0.020 C 
ENDBRANCH  13  16
ENDBRANCH   1  10
BRANCH   2  22
ATOM     22  N   UNL     1      -0.196   6.813  -5.193  0.00  0.00    -0.208 NA
BRANCH  22  23
ATOM     23  C   UNL     1       0.668   6.498  -6.244  0.00  0.00    +0.098 A 
ATOM     24  C   UNL     1       0.199   5.651  -7.243  0.00  0.00    +0.156 A 
ATOM     25  F   UNL     1      -1.129   5.495  -7.518  0.00  0.00    -0.203 F 
ATOM     26  C   UNL     1       1.079   5.357  -8.279  0.00  0.00    +0.037 A 
ATOM     27  C   UNL     1       2.300   6.005  -8.414  0.00  0.00    +0.032 A 
ATOM     28  I   UNL     1       3.969   5.056  -9.307  0.00  0.00    -0.042 I 
ATOM     29  C   UNL     1       2.464   7.201  -7.727  0.00  0.00    +0.007 A 
ATOM     30  C   UNL     1       1.634   7.419  -6.645  0.00  0.00    +0.019 A 
ENDBRANCH  22  23
ENDBRANCH   2  22
TORSDOF 4
ENDMDL
MODEL 5
REMARK VINA RESULT:      -8.7      2.901      4.759
REMARK  Name = 
REMARK  4 active torsions:
REMARK  status: ('A' for Active; 'I' for Inactive)
REMARK    1  A    between atoms: C_2  and  C_3
REMARK    2  A    between atoms: C_10  and  N_11
REMARK    3  A    between atoms: N_11  and  C_12
REMARK    4  A    between atoms: C_22  and  C_24
REMARK                            x       y       z     vdW  Elec       q    Type
REMARK                         _______ _______ _______ _____ _____    ______ ____
ROOT
ATOM      1  C   UNL     1       1.246   5.335  -4.717  0.00  0.00    +0.071 A 
ATOM      2  C   UNL     1       1.250   5.833  -6.018  0.00  0.00    +0.105 A 
ATOM      3  C   UNL     1      -0.018   5.951  -6.580  0.00  0.00    +0.183 A 
ATOM      4  F   UNL     1      -0.094   5.864  -7.916  0.00  0.00    -0.200 F 
ATOM      5  C   UNL     1      -1.180   5.922  -5.854  0.00  0.00    +0.169 A 
ATOM      6  F   UNL     1      -2.385   6.303  -6.371  0.00  0.00    -0.202 F 
ATOM      7  C   UNL     1      -1.113   5.590  -4.507  0.00  0.00    +0.032 A 
ATOM      8  C   UNL     1       0.120   5.361  -3.921  0.00  0.00    +0.008 A 
ENDROOT
BRANCH   1  10
ATOM      9  O   UNL     1       2.863   5.025  -4.208  0.00  0.00    -0.270 OA
ATOM     10  C   UNL     1       2.549   5.248  -4.038  0.00  0.00    +0.250 C 
ATOM     11  N   UNL     1       2.736   6.151  -2.934  0.00  0.00    -0.271 N 
ATOM     12  C   UNL     1       2.126   6.485  -1.679  0.00  0.00    +0.127 C 
ATOM     13  C   UNL     1       3.471   6.496  -1.057  0.00  0.00    +0.177 C 
ATOM     14  O   UNL     1       3.878   5.405  -0.335  0.00  0.00    -0.221 OA
ATOM     15  C   UNL     1       3.996   6.696  -2.419  0.00  0.00    +0.127 C 
BRANCH  13  16
ATOM     16  C   UNL     1       3.673   7.845  -0.152  0.00  0.00    +0.104 C 
ATOM     17  N   UNL     1       2.766   7.292   1.010  0.00  0.00    -0.217 NA
ATOM     18  C   UNL     1       2.774   8.312   2.025  0.00  0.00    +0.089 C 
ATOM     19  C   UNL     1       4.064   9.115   1.929  0.00  0.00    +0.019 C 
ATOM     20  C   UNL     1       5.249   8.210   1.726  0.00  0.00    +0.003 C 
ATOM     21  C   UNL     1       5.043   7.280   0.554  0.00  0.00    +0.020 C 
ENDBRANCH  13  16
ENDBRANCH   1  10
BRANCH   2  22
ATOM     22  N   UNL     1       2.243   6.696  -6.522  0.00  0.00    -0.208 NA
BRANCH  22  23
ATOM     23  C   UNL     1       3.162   6.460  -7.546  0.00  0.00    +0.098 A 
ATOM     24  C   UNL     1       3.711   5.185  -7.650  0.00  0.00    +0.156 A 
ATOM     25  F   UNL     1       3.093   4.072  -7.157  0.00  0.00    -0.203 F 
ATOM     26  C   UNL     1       4.622   4.977  -8.679  0.00  0.00    +0.037 A 
ATOM     27  C   UNL     1       4.849   5.929  -9.665  0.00  0.00    +0.032 A 
ATOM     28  I   UNL     1       6.722   6.097 -10.637  0.00  0.00    -0.042 I 
ATOM     29  C   UNL     1       3.892   6.923  -9.820  0.00  0.00    +0.007 A 
ATOM     30  C   UNL     1       3.064   7.168  -8.742  0.00  0.00    +0.019 A 
ENDBRANCH  22  23
ENDBRANCH   2  22
TORSDOF 4
ENDMDL
MODEL 6
REMARK VINA RESULT:      -8.6      4.614      6.299
REMARK  Name = 
REMARK  4 active torsions:
REMARK  status: ('A' for Active; 'I' for Inactive)
REMARK    1  A    between atoms: C_2  and  C_3
REMARK    2  A    between atoms: C_10  and  N_11
REMARK    3  A    between atoms: N_11  and  C_12
REMARK    4  A    between atoms: C_22  and  C_24
REMARK                            x       y       z     vdW  Elec       q    Type
REMARK                         _______ _______ _______ _____ _____    ______ ____
ROOT
ATOM      1  C   UNL     1       4.478   5.387  -9.065  0.00  0.00    +0.071 A 
ATOM      2  C   UNL     1       4.275   5.909 -10.340  0.00  0.00    +0.105 A 
ATOM      3  C   UNL     1       5.389   6.559 -10.865  0.00  0.00    +0.183 A 
ATOM      4  F   UNL     1       5.151   7.532 -11.758  0.00  0.00    -0.200 F 
ATOM      5  C   UNL     1       6.657   6.423 -10.366  0.00  0.00    +0.169 A 
ATOM      6  F   UNL     1       7.766   6.844 -11.042  0.00  0.00    -0.202 F 
ATOM      7  C   UNL     1       6.832   5.736  -9.172  0.00  0.00    +0.032 A 
ATOM      8  C   UNL     1       5.737   5.155  -8.553  0.00  0.00    +0.008 A 
ENDROOT
BRANCH   1  10
ATOM      9  O   UNL     1       3.346   4.209  -8.514  0.00  0.00    -0.270 OA
ATOM     10  C   UNL     1       3.362   4.628  -8.476  0.00  0.00    +0.250 C 
ATOM     11  N   UNL     1       2.511   5.368  -7.583  0.00  0.00    -0.271 N 
ATOM     12  C   UNL     1       1.688   6.543  -7.579  0.00  0.00    +0.127 C 
ATOM     13  C   UNL     1       0.631   5.770  -6.885  0.00  0.00    +0.177 C 
ATOM     14  O   UNL     1      -0.424   5.284  -7.612  0.00  0.00    -0.221 OA
ATOM     15  C   UNL     1       1.705   4.852  -6.471  0.00  0.00    +0.127 C 
BRANCH  13  16
ATOM     16  C   UNL     1       0.057   6.609  -5.602  0.00  0.00    +0.104 C 
ATOM     17  N   UNL     1      -1.437   6.451  -6.072  0.00  0.00    -0.217 NA
ATOM     18  C   UNL     1      -2.230   7.108  -5.066  0.00  0.00    +0.089 C 
ATOM     19  C   UNL     1      -1.491   7.076  -3.735  0.00  0.00    +0.019 C 
ATOM     20  C   UNL     1      -0.884   5.721  -3.487  0.00  0.00    +0.003 C 
ATOM     21  C   UNL     1      -0.030   5.274  -4.649  0.00  0.00    +0.020 C 
ENDBRANCH  13  16
ENDBRANCH   1  10
BRANCH   2  22
ATOM     22  N   UNL     1       3.366   5.370 -11.271  0.00  0.00    -0.208 NA
BRANCH  22  23
ATOM     23  C   UNL     1       2.700   6.019 -12.313  0.00  0.00    +0.098 A 
ATOM     24  C   UNL     1       3.006   5.644 -13.617  0.00  0.00    +0.156 A 
ATOM     25  F   UNL     1       3.524   4.420 -13.932  0.00  0.00    -0.203 F 
ATOM     26  C   UNL     1       2.328   6.305 -14.635  0.00  0.00    +0.037 A 
ATOM     27  C   UNL     1       1.273   7.170 -14.375  0.00  0.00    +0.032 A 
ATOM     28  I   UNL     1       0.836   8.803 -15.649  0.00  0.00    -0.042 I 
ATOM     29  C   UNL     1       0.667   7.076 -13.129  0.00  0.00    +0.007 A 
ATOM     30  C   UNL     1       1.407   6.498 -12.116  0.00  0.00    +0.019 A 
ENDBRANCH  22  23
ENDBRANCH   2  22
TORSDOF 4
ENDMDL
MODEL 7
REMARK VINA RESULT:      -8.6      3.358      6.641
REMARK  Name = 
REMARK  4 active torsions:
REMARK  status: ('A' for Active; 'I' for Inactive)
REMARK    1  A    between atoms: C_2  and  C_3
REMARK    2  A    between atoms: C_10  and  N_11
REMARK    3  A    between atoms: N_11  and  C_12
REMARK    4  A    between atoms: C_22  and  C_24
REMARK                            x       y       z     vdW  Elec       q    Type
REMARK                         _______ _______ _______ _____ _____    ______ ____
ROOT
ATOM      1  C   UNL     1       4.488   6.077  -4.126  0.00  0.00    +0.071 A 
ATOM      2  C   UNL     1       3.822   5.744  -2.949  0.00  0.00    +0.105 A 
ATOM      3  C   UNL     1       3.912   6.716  -1.957  0.00  0.00    +0.183 A 
ATOM      4  F   UNL     1       3.824   6.290  -0.688  0.00  0.00    -0.200 F 
ATOM      5  C   UNL     1       4.304   8.008  -2.188  0.00  0.00    +0.169 A 
ATOM      6  F   UNL     1       4.133   9.008  -1.274  0.00  0.00    -0.202 F 
ATOM      7  C   UNL     1       4.801   8.338  -3.443  0.00  0.00    +0.032 A 
ATOM      8  C   UNL     1       4.829   7.376  -4.440  0.00  0.00    +0.008 A 
ENDROOT
BRANCH   1  10
ATOM      9  O   UNL     1       4.591   4.761  -5.235  0.00  0.00    -0.270 OA
ATOM     10  C   UNL     1       4.377   5.123  -5.241  0.00  0.00    +0.250 C 
ATOM     11  N   UNL     1       3.329   5.394  -6.189  0.00  0.00    -0.271 N 
ATOM     12  C   UNL     1       2.893   6.441  -7.067  0.00  0.00    +0.127 C 
ATOM     13  C   UNL     1       2.688   5.430  -8.131  0.00  0.00    +0.177 C 
ATOM     14  O   UNL     1       3.639   5.289  -9.107  0.00  0.00    -0.221 OA
ATOM     15  C   UNL     1       2.617   4.439  -7.044  0.00  0.00    +0.127 C 
BRANCH  13  16
ATOM     16  C   UNL     1       1.223   5.627  -8.834  0.00  0.00    +0.104 C 
ATOM     17  N   UNL     1       1.792   6.619  -9.915  0.00  0.00    -0.217 NA
ATOM     18  C   UNL     1       0.670   6.968 -10.748  0.00  0.00    +0.089 C 
ATOM     19  C   UNL     1      -0.349   5.837 -10.727  0.00  0.00    +0.019 C 
ATOM     20  C   UNL     1       0.327   4.498 -10.851  0.00  0.00    +0.003 C 
ATOM     21  C   UNL     1       1.418   4.329  -9.822  0.00  0.00    +0.020 C 
ENDBRANCH  13  16
ENDBRANCH   1  10
BRANCH   2  22
ATOM     22  N   UNL     1       2.696   4.899  -2.900  0.00  0.00    -0.208 NA
BRANCH  22  23
ATOM     23  C   UNL     1       1.345   5.250  -2.899  0.00  0.00    +0.098 A 
ATOM     24  C   UNL     1       0.635   5.114  -1.710  0.00  0.00    +0.156 A 
ATOM     25  F   UNL     1       1.237   5.122  -0.485  0.00  0.00    -0.203 F 
ATOM     26  C   UNL     1      -0.708   5.472  -1.737  0.00  0.00    +0.037 A 
ATOM     27  C   UNL     1      -1.280   6.100  -2.836  0.00  0.00    +0.032 A 
ATOM     28  I   UNL     1      -3.327   5.851  -3.316  0.00  0.00    -0.042 I 
ATOM     29  C   UNL     1      -0.418   6.697  -3.747  0.00  0.00    +0.007 A 
ATOM     30  C   UNL     1       0.888   6.249  -3.757  0.00  0.00    +0.019 A 
ENDBRANCH  22  23
ENDBRANCH   2  22
TORSDOF 4
ENDMDL
MODEL 8
REMARK VINA RESULT:      -8.6      3.349      8.145
REMARK  Name = 
REMARK  4 active torsions:
REMARK  status: ('A' for Active; 'I' for Inactive)
REMARK    1  A    between atoms: C_2  and  C_3
REMARK    2  A    between atoms: C_10  and  N_11
REMARK    3  A    between atoms: N_11  and  C_12
REMARK    4  A    between atoms: C_22  and  C_24
REMARK                            x       y       z     vdW  Elec       q    Type
REMARK                         _______ _______ _______ _____ _____    ______ ____
ROOT
ATOM      1  C   UNL     1       0.092   5.582  -6.575  0.00  0.00    +0.071 A 
ATOM      2  C   UNL     1       0.328   5.694  -5.206  0.00  0.00    +0.105 A 
ATOM      3  C   UNL     1      -0.819   5.938  -4.456  0.00  0.00    +0.183 A 
ATOM      4  F   UNL     1      -0.652   6.597  -3.300  0.00  0.00    -0.200 F 
ATOM      5  C   UNL     1      -2.092   5.751  -4.926  0.00  0.00    +0.169 A 
ATOM      6  F   UNL     1      -3.187   5.735  -4.110  0.00  0.00    -0.202 F 
ATOM      7  C   UNL     1      -2.268   5.465  -6.274  0.00  0.00    +0.032 A 
ATOM      8  C   UNL     1      -1.159   5.313  -7.089  0.00  0.00    +0.008 A 
ENDROOT
BRANCH   1  10
ATOM      9  O   UNL     1       1.593   5.075  -7.255  0.00  0.00    -0.270 OA
ATOM     10  C   UNL     1       1.252   5.257  -7.421  0.00  0.00    +0.250 C 
ATOM     11  N   UNL     1       1.037   5.370  -8.839  0.00  0.00    -0.271 N 
ATOM     12  C   UNL     1       0.626   6.344  -9.809  0.00  0.00    +0.127 C 
ATOM     13  C   UNL     1       1.742   5.910 -10.681  0.00  0.00    +0.177 C 
ATOM     14  O   UNL     1       2.888   6.659 -10.718  0.00  0.00    -0.221 OA
ATOM     15  C   UNL     1       1.726   4.652  -9.916  0.00  0.00    +0.127 C 
BRANCH  13  16
ATOM     16  C   UNL     1       1.212   5.666 -12.211  0.00  0.00    +0.104 C 
ATOM     17  N   UNL     1       0.953   7.201 -12.446  0.00  0.00    -0.217 NA
ATOM     18  C   UNL     1       0.476   7.309 -13.800  0.00  0.00    +0.089 C 
ATOM     19  C   UNL     1       1.018   6.150 -14.625  0.00  0.00    +0.019 C 
ATOM     20  C   UNL     1       2.475   5.913 -14.329  0.00  0.00    +0.003 C 
ATOM     21  C   UNL     1       2.723   5.751 -12.849  0.00  0.00    +0.020 C 
ENDBRANCH  13  16
ENDBRANCH   1  10
BRANCH   2  22
ATOM     22  N   UNL     1       1.389   5.050  -4.541  0.00  0.00    -0.208 NA
BRANCH  22  23
ATOM     23  C   UNL     1       2.279   5.582  -3.605  0.00  0.00    +0.098 A 
ATOM     24  C   UNL     1       3.433   4.861  -3.319  0.00  0.00    +0.156 A 
ATOM     25  F   UNL     1       3.976   3.958  -4.187  0.00  0.00    -0.203 F 
ATOM     26  C   UNL     1       4.303   5.414  -2.385  0.00  0.00    +0.037 A 
ATOM     27  C   UNL     1       4.128   6.699  -1.888  0.00  0.00    +0.032 A 
ATOM     28  I   UNL     1       4.774   7.236   0.055  0.00  0.00    -0.042 I 
ATOM     29  C   UNL     1       3.301   7.552  -2.608  0.00  0.00    +0.007 A 
ATOM     30  C   UNL     1       2.384   6.963  -3.457  0.00  0.00    +0.019 A 
ENDBRANCH  22  23
ENDBRANCH   2  22
TORSDOF 4
ENDMDL
MODEL 9
REMARK VINA RESULT:      -8.6      3.447      7.513
REMARK  Name = 
REMARK  4 active torsions:
REMARK  status: ('A' for Active; 'I' for Inactive)
REMARK    1  A    between atoms: C_2  and  C_3
REMARK    2  A    between atoms: C_10  and  N_11
REMARK    3  A    between atoms: N_11  and  C_12
REMARK    4  A    between atoms: C_22  and  C_24
REMARK                            x       y       z     vdW  Elec       q    Type
REMARK                         _______ _______ _______ _____ _____    ______ ____
ROOT
ATOM      1  C   UNL     1       2.389   6.161  -6.334  0.00  0.00    +0.071 A 
ATOM      2  C   UNL     1       2.277   5.236  -5.299  0.00  0.00    +0.105 A 
ATOM      3  C   UNL     1       3.379   5.210  -4.447  0.00  0.00    +0.183 A 
ATOM      4  F   UNL     1       3.626   4.050  -3.820  0.00  0.00    -0.200 F 
ATOM      5  C   UNL     1       4.326   6.198  -4.394  0.00  0.00    +0.169 A 
ATOM      6  F   UNL     1       5.240   6.293  -3.384  0.00  0.00    -0.202 F 
ATOM      7  C   UNL     1       4.291   7.205  -5.350  0.00  0.00    +0.032 A 
ATOM      8  C   UNL     1       3.271   7.221  -6.287  0.00  0.00    +0.008 A 
ENDROOT
BRANCH   1  10
ATOM      9  O   UNL     1       0.857   6.414  -7.084  0.00  0.00    -0.270 OA
ATOM     10  C   UNL     1       1.231   6.290  -7.233  0.00  0.00    +0.250 C 
ATOM     11  N   UNL     1       1.524   6.211  -8.640  0.00  0.00    -0.271 N 
ATOM     12  C   UNL     1       2.132   5.316  -9.582  0.00  0.00    +0.127 C 
ATOM     13  C   UNL     1       1.000   5.560 -10.506  0.00  0.00    +0.177 C 
ATOM     14  O   UNL     1      -0.006   4.633 -10.586  0.00  0.00    -0.221 OA
ATOM     15  C   UNL     1       0.775   6.805  -9.752  0.00  0.00    +0.127 C 
BRANCH  13  16
ATOM     16  C   UNL     1       1.551   5.885 -12.013  0.00  0.00    +0.104 C 
ATOM     17  N   UNL     1       0.730   4.701 -12.649  0.00  0.00    -0.217 NA
ATOM     18  C   UNL     1       1.009   4.752 -14.060  0.00  0.00    +0.089 C 
ATOM     19  C   UNL     1       1.362   6.179 -14.458  0.00  0.00    +0.019 C 
ATOM     20  C   UNL     1       0.427   7.166 -13.813  0.00  0.00    +0.003 C 
ATOM     21  C   UNL     1       0.356   6.969 -12.318  0.00  0.00    +0.020 C 
ENDBRANCH  13  16
ENDBRANCH   1  10
BRANCH   2  22
ATOM     22  N   UNL     1       1.049   4.822  -4.749  0.00  0.00    -0.208 NA
BRANCH  22  23
ATOM     23  C   UNL     1       0.354   5.363  -3.665  0.00  0.00    +0.098 A 
ATOM     24  C   UNL     1      -0.940   5.825  -3.884  0.00  0.00    +0.156 A 
ATOM     25  F   UNL     1      -1.722   5.376  -4.909  0.00  0.00    -0.203 F 
ATOM     26  C   UNL     1      -1.609   6.358  -2.788  0.00  0.00    +0.037 A 
ATOM     27  C   UNL     1      -1.094   6.277  -1.501  0.00  0.00    +0.032 A 
ATOM     28  I   UNL     1      -1.523   7.747  -0.039  0.00  0.00    -0.042 I 
ATOM     29  C   UNL     1      -0.095   5.340  -1.274  0.00  0.00    +0.007 A 
ATOM     30  C   UNL     1       0.614   4.903  -2.376  0.00  0.00    +0.019 A 
ENDBRANCH  22  23
ENDBRANCH   2  22
TORSDOF 4
ENDMDL
