MODEL 1
REMARK VINA RESULT:      -4.6      0.000      0.000
REMARK  Name = 
REMARK  2 active torsions:
REMARK  status: ('A' for Active; 'I' for Inactive)
REMARK    1  A    between atoms: C_2  and  CA_5
REMARK    2  A    between atoms: CA_5  and  C_7
REMARK                            x       y       z     vdW  Elec       q    Type
REMARK                         _______ _______ _______ _____ _____    ______ ____
ROOT
ATOM      1  CA  UNL     1       7.165   6.578 -12.780  0.00  0.00    +0.204 C 
ATOM      2  N   UNL     1       6.206   5.339 -12.987  0.00  0.00    -0.120 NA
ENDROOT
BRANCH   1   4
ATOM      3  C   UNL     1       6.300   8.248 -11.368  0.00  0.00    +0.014 C 
ATOM      4  C   UNL     1       6.483   6.986 -11.341  0.00  0.00    +0.076 C 
ATOM      5  S   UNL     1       5.023   6.066 -11.057  0.00  0.00    -0.082 S 
ATOM      6  C   UNL     1       7.580   6.839 -10.300  0.00  0.00    +0.014 C 
ENDBRANCH   1   4
BRANCH   1   7
ATOM      7  C   UNL     1       8.323   5.638 -12.163  0.00  0.00    +0.383 C 
ATOM      8  OXT UNL     1       9.616   5.890 -12.394  0.00  0.00    -0.244 OA
ATOM      9  O   UNL     1       7.923   4.458 -12.424  0.00  0.00    -0.244 OA
ENDBRANCH   1   7
TORSDOF 2
ENDMDL
MODEL 2
REMARK VINA RESULT:      -4.4     11.968     12.597
REMARK  Name = 
REMARK  2 active torsions:
REMARK  status: ('A' for Active; 'I' for Inactive)
REMARK    1  A    between atoms: C_2  and  CA_5
REMARK    2  A    between atoms: CA_5  and  C_7
REMARK                            x       y       z     vdW  Elec       q    Type
REMARK                         _______ _______ _______ _____ _____    ______ ____
ROOT
ATOM      1  CA  UNL     1      -1.400   6.510  -2.873  0.00  0.00    +0.204 C 
ATOM      2  N   UNL     1      -0.721   5.101  -3.106  0.00  0.00    -0.120 NA
ENDROOT
BRANCH   1   4
ATOM      3  C   UNL     1      -0.122   7.012  -4.782  0.00  0.00    +0.014 C 
ATOM      4  C   UNL     1      -1.353   6.903  -4.468  0.00  0.00    +0.076 C 
ATOM      5  S   UNL     1      -2.225   5.729  -5.428  0.00  0.00    -0.082 S 
ATOM      6  C   UNL     1      -1.841   8.338  -4.562  0.00  0.00    +0.014 C 
ENDBRANCH   1   4
BRANCH   1   7
ATOM      7  C   UNL     1      -2.874   5.854  -2.898  0.00  0.00    +0.383 C 
ATOM      8  OXT UNL     1      -3.948   6.549  -2.506  0.00  0.00    -0.244 OA
ATOM      9  O   UNL     1      -2.708   4.717  -2.353  0.00  0.00    -0.244 OA
ENDBRANCH   1   7
TORSDOF 2
ENDMDL
MODEL 3
REMARK VINA RESULT:      -4.3      1.881      2.462
REMARK  Name = 
REMARK  2 active torsions:
REMARK  status: ('A' for Active; 'I' for Inactive)
REMARK    1  A    between atoms: C_2  and  CA_5
REMARK    2  A    between atoms: CA_5  and  C_7
REMARK                            x       y       z     vdW  Elec       q    Type
REMARK                         _______ _______ _______ _____ _____    ______ ____
ROOT
ATOM      1  CA  UNL     1       7.522   5.083 -11.624  0.00  0.00    +0.204 C 
ATOM      2  N   UNL     1       8.703   5.944 -12.227  0.00  0.00    -0.120 NA
ENDROOT
BRANCH   1   4
ATOM      3  C   UNL     1       7.759   6.640  -9.878  0.00  0.00    +0.014 C 
ATOM      4  C   UNL     1       6.904   6.348 -10.777  0.00  0.00    +0.076 C 
ATOM      5  S   UNL     1       6.514   7.682 -11.840  0.00  0.00    -0.082 S 
ATOM      6  C   UNL     1       5.754   5.784  -9.961  0.00  0.00    +0.014 C 
ENDBRANCH   1   4
BRANCH   1   7
ATOM      7  C   UNL     1       6.625   5.303 -12.947  0.00  0.00    +0.383 C 
ATOM      8  OXT UNL     1       5.400   4.775 -13.050  0.00  0.00    -0.244 OA
ATOM      9  O   UNL     1       7.429   5.053 -13.902  0.00  0.00    -0.244 OA
ENDBRANCH   1   7
TORSDOF 2
ENDMDL
MODEL 4
REMARK VINA RESULT:      -4.2      1.616      2.034
REMARK  Name = 
REMARK  2 active torsions:
REMARK  status: ('A' for Active; 'I' for Inactive)
REMARK    1  A    between atoms: C_2  and  CA_5
REMARK    2  A    between atoms: CA_5  and  C_7
REMARK                            x       y       z     vdW  Elec       q    Type
REMARK                         _______ _______ _______ _____ _____    ______ ____
ROOT
ATOM      1  CA  UNL     1       6.906   5.658 -10.981  0.00  0.00    +0.204 C 
ATOM      2  N   UNL     1       7.719   6.849 -10.334  0.00  0.00    -0.120 NA
ENDROOT
BRANCH   1   4
ATOM      3  C   UNL     1       6.354   7.737 -11.932  0.00  0.00    +0.014 C 
ATOM      4  C   UNL     1       5.761   6.655 -11.610  0.00  0.00    +0.076 C 
ATOM      5  S   UNL     1       4.924   5.886 -12.940  0.00  0.00    -0.082 S 
ATOM      6  C   UNL     1       4.897   7.093 -10.440  0.00  0.00    +0.014 C 
ENDBRANCH   1   4
BRANCH   1   7
ATOM      7  C   UNL     1       7.863   5.650 -12.280  0.00  0.00    +0.383 C 
ATOM      8  OXT UNL     1       7.771   4.685 -13.203  0.00  0.00    -0.244 OA
ATOM      9  O   UNL     1       9.023   5.864 -11.802  0.00  0.00    -0.244 OA
ENDBRANCH   1   7
TORSDOF 2
ENDMDL
MODEL 5
REMARK VINA RESULT:      -4.2     12.103     12.665
REMARK  Name = 
REMARK  2 active torsions:
REMARK  status: ('A' for Active; 'I' for Inactive)
REMARK    1  A    between atoms: C_2  and  CA_5
REMARK    2  A    between atoms: CA_5  and  C_7
REMARK                            x       y       z     vdW  Elec       q    Type
REMARK                         _______ _______ _______ _____ _____    ______ ____
ROOT
ATOM      1  CA  UNL     1      -2.223   5.386  -3.733  0.00  0.00    +0.204 C 
ATOM      2  N   UNL     1      -3.580   5.936  -3.138  0.00  0.00    -0.120 NA
ENDROOT
BRANCH   1   4
ATOM      3  C   UNL     1      -1.975   7.679  -3.270  0.00  0.00    +0.014 C 
ATOM      4  C   UNL     1      -1.726   6.873  -4.227  0.00  0.00    +0.076 C 
ATOM      5  S   UNL     1      -0.044   6.844  -4.706  0.00  0.00    -0.082 S 
ATOM      6  C   UNL     1      -2.717   7.314  -5.290  0.00  0.00    +0.014 C 
ENDBRANCH   1   4
BRANCH   1   7
ATOM      7  C   UNL     1      -1.513   5.438  -2.284  0.00  0.00    +0.383 C 
ATOM      8  OXT UNL     1      -0.328   4.856  -2.072  0.00  0.00    -0.244 OA
ATOM      9  O   UNL     1      -2.448   5.125  -1.479  0.00  0.00    -0.244 OA
ENDBRANCH   1   7
TORSDOF 2
ENDMDL
MODEL 6
REMARK VINA RESULT:      -4.0      6.468      7.059
REMARK  Name = 
REMARK  2 active torsions:
REMARK  status: ('A' for Active; 'I' for Inactive)
REMARK    1  A    between atoms: C_2  and  CA_5
REMARK    2  A    between atoms: CA_5  and  C_7
REMARK                            x       y       z     vdW  Elec       q    Type
REMARK                         _______ _______ _______ _____ _____    ______ ____
ROOT
ATOM      1  CA  UNL     1       3.452   6.065  -7.980  0.00  0.00    +0.204 C 
ATOM      2  N   UNL     1       4.177   5.656  -6.636  0.00  0.00    -0.120 NA
ENDROOT
BRANCH   1   4
ATOM      3  C   UNL     1       2.640   3.972  -8.680  0.00  0.00    +0.014 C 
ATOM      4  C   UNL     1       2.322   4.880  -7.842  0.00  0.00    +0.076 C 
ATOM      5  S   UNL     1       2.210   4.310  -6.192  0.00  0.00    -0.082 S 
ATOM      6  C   UNL     1       1.047   5.444  -8.443  0.00  0.00    +0.014 C 
ENDBRANCH   1   4
BRANCH   1   7
ATOM      7  C   UNL     1       2.599   7.208  -7.226  0.00  0.00    +0.383 C 
ATOM      8  OXT UNL     1       2.155   8.286  -7.880  0.00  0.00    -0.244 OA
ATOM      9  O   UNL     1       3.263   7.427  -6.162  0.00  0.00    -0.244 OA
ENDBRANCH   1   7
TORSDOF 2
ENDMDL
MODEL 7
REMARK VINA RESULT:      -4.0      2.346      2.658
REMARK  Name = 
REMARK  2 active torsions:
REMARK  status: ('A' for Active; 'I' for Inactive)
REMARK    1  A    between atoms: C_2  and  CA_5
REMARK    2  A    between atoms: CA_5  and  C_7
REMARK                            x       y       z     vdW  Elec       q    Type
REMARK                         _______ _______ _______ _____ _____    ______ ____
ROOT
ATOM      1  CA  UNL     1       5.669   6.317 -12.951  0.00  0.00    +0.204 C 
ATOM      2  N   UNL     1       6.150   4.825 -13.153  0.00  0.00    -0.120 NA
ENDROOT
BRANCH   1   4
ATOM      3  C   UNL     1       6.334   6.052 -10.711  0.00  0.00    +0.014 C 
ATOM      4  C   UNL     1       6.771   6.614 -11.770  0.00  0.00    +0.076 C 
ATOM      5  S   UNL     1       8.364   6.073 -12.249  0.00  0.00    -0.082 S 
ATOM      6  C   UNL     1       6.639   8.089 -11.433  0.00  0.00    +0.014 C 
ENDBRANCH   1   4
BRANCH   1   7
ATOM      7  C   UNL     1       6.585   6.827 -14.177  0.00  0.00    +0.383 C 
ATOM      8  OXT UNL     1       6.323   7.978 -14.806  0.00  0.00    -0.244 OA
ATOM      9  O   UNL     1       6.704   5.796 -14.914  0.00  0.00    -0.244 OA
ENDBRANCH   1   7
TORSDOF 2
ENDMDL
MODEL 8
REMARK VINA RESULT:      -4.0      1.858      2.316
REMARK  Name = 
REMARK  2 active torsions:
REMARK  status: ('A' for Active; 'I' for Inactive)
REMARK    1  A    between atoms: C_2  and  CA_5
REMARK    2  A    between atoms: CA_5  and  C_7
REMARK                            x       y       z     vdW  Elec       q    Type
REMARK                         _______ _______ _______ _____ _____    ______ ____
ROOT
ATOM      1  CA  UNL     1       7.120   5.256 -11.948  0.00  0.00    +0.204 C 
ATOM      2  N   UNL     1       8.092   6.332 -12.577  0.00  0.00    -0.120 NA
ENDROOT
BRANCH   1   4
ATOM      3  C   UNL     1       7.214   7.378 -10.939  0.00  0.00    +0.014 C 
ATOM      4  C   UNL     1       6.558   6.292 -10.803  0.00  0.00    +0.076 C 
ATOM      5  S   UNL     1       4.825   6.493 -10.938  0.00  0.00    -0.082 S 
ATOM      6  C   UNL     1       7.070   5.767  -9.474  0.00  0.00    +0.014 C 
ENDBRANCH   1   4
BRANCH   1   7
ATOM      7  C   UNL     1       5.982   5.574 -13.046  0.00  0.00    +0.383 C 
ATOM      8  OXT UNL     1       5.118   4.633 -13.443  0.00  0.00    -0.244 OA
ATOM      9  O   UNL     1       6.614   6.184 -13.968  0.00  0.00    -0.244 OA
ENDBRANCH   1   7
TORSDOF 2
ENDMDL
MODEL 9
REMARK VINA RESULT:      -3.9      7.290      7.790
REMARK  Name = 
REMARK  2 active torsions:
REMARK  status: ('A' for Active; 'I' for Inactive)
REMARK    1  A    between atoms: C_2  and  CA_5
REMARK    2  A    between atoms: CA_5  and  C_7
REMARK                            x       y       z     vdW  Elec       q    Type
REMARK                         _______ _______ _______ _____ _____    ______ ____
ROOT
ATOM      1  CA  UNL     1       1.005   6.104  -8.143  0.00  0.00    +0.204 C 
ATOM      2  N   UNL     1       2.051   4.923  -8.241  0.00  0.00    -0.120 NA
ENDROOT
BRANCH   1   4
ATOM      3  C   UNL     1      -0.798   5.304  -6.862  0.00  0.00    +0.014 C 
ATOM      4  C   UNL     1       0.430   5.602  -6.687  0.00  0.00    +0.076 C 
ATOM      5  S   UNL     1       1.393   4.286  -6.054  0.00  0.00    -0.082 S 
ATOM      6  C   UNL     1       0.342   6.845  -5.819  0.00  0.00    +0.014 C 
ENDBRANCH   1   4
BRANCH   1   7
ATOM      7  C   UNL     1       2.122   7.107  -7.552  0.00  0.00    +0.383 C 
ATOM      8  OXT UNL     1       2.120   8.408  -7.863  0.00  0.00    -0.244 OA
ATOM      9  O   UNL     1       3.216   6.484  -7.741  0.00  0.00    -0.244 OA
ENDBRANCH   1   7
TORSDOF 2
ENDMDL
