MODEL 1
REMARK VINA RESULT:      -7.5      0.000      0.000
REMARK  Name = 
REMARK  4 active torsions:
REMARK  status: ('A' for Active; 'I' for Inactive)
REMARK    1  A    between atoms: CA_6  and  N_7
REMARK    2  A    between atoms: C_8  and  CA_10
REMARK    3  A    between atoms: CA_10  and  C_12
REMARK    4  A    between atoms: CA_22  and  C_23
REMARK                            x       y       z     vdW  Elec       q    Type
REMARK                         _______ _______ _______ _____ _____    ______ ____
ROOT
ATOM      1  C   UNL     1       4.637   7.957  -4.870  0.00  0.00    +0.013 C 
ATOM      2  C   UNL     1       4.304   6.732  -4.347  0.00  0.00    +0.068 C 
ATOM      3  CA  UNL     1       2.661   6.844  -4.036  0.00  0.00    +0.189 C 
ATOM      4  N   UNL     1       2.276   6.740  -5.576  0.00  0.00    -0.259 N 
ATOM      5  C   UNL     1       2.543   5.277  -5.869  0.00  0.00    +0.153 C 
ATOM      6  CA  UNL     1       2.361   5.770  -7.480  0.00  0.00    +0.200 C 
ATOM      7  C   UNL     1       2.443   7.271  -6.863  0.00  0.00    +0.249 C 
ATOM      8  O   UNL     1       1.869   8.193  -7.473  0.00  0.00    -0.273 OA
ATOM      9  S   UNL     1       4.413   5.479  -5.528  0.00  0.00    -0.118 S 
ATOM     10  C   UNL     1       4.950   6.602  -3.026  0.00  0.00    +0.013 C 
ENDROOT
BRANCH   3  11
ATOM     11  C   UNL     1       2.450   5.248  -3.703  0.00  0.00    +0.383 C 
ATOM     12  OXT UNL     1       1.110   4.987  -3.878  0.00  0.00    -0.244 OA
ATOM     13  O   UNL     1       3.220   4.738  -2.907  0.00  0.00    -0.244 OA
ENDBRANCH   3  11
BRANCH   6  14
ATOM     14  N   UNL     1       3.910   5.752  -7.903  0.00  0.00    -0.194 NA
ATOM     15  C   UNL     1       3.992   5.680  -9.302  0.00  0.00    +0.264 C 
ATOM     16  O   UNL     1       3.347   4.929 -10.023  0.00  0.00    -0.271 OA
BRANCH  15  17
ATOM     17  CA  UNL     1       4.707   6.961 -10.043  0.00  0.00    +0.191 C 
ATOM     18  N   UNL     1       3.884   6.720 -11.410  0.00  0.00    -0.118 NA
BRANCH  17  19
ATOM     19  C   UNL     1       5.992   6.059 -10.495  0.00  0.00    +0.004 A 
ATOM     20  C   UNL     1       6.916   5.699  -9.623  0.00  0.00    +0.001 A 
ATOM     21  C   UNL     1       8.149   5.329 -10.162  0.00  0.00    +0.042 A 
ATOM     22  C   UNL     1       8.353   5.353 -11.539  0.00  0.00    +0.196 A 
ATOM     23  O   UNL     1       9.528   5.852 -12.095  0.00  0.00    -0.287 OA
ATOM     24  C   UNL     1       7.191   5.122 -12.273  0.00  0.00    +0.042 A 
ATOM     25  C   UNL     1       5.972   5.579 -11.768  0.00  0.00    +0.001 A 
ENDBRANCH  17  19
ENDBRANCH  15  17
ENDBRANCH   6  14
TORSDOF 4
ENDMDL
MODEL 2
REMARK VINA RESULT:      -7.5      2.110      2.756
REMARK  Name = 
REMARK  4 active torsions:
REMARK  status: ('A' for Active; 'I' for Inactive)
REMARK    1  A    between atoms: CA_6  and  N_7
REMARK    2  A    between atoms: C_8  and  CA_10
REMARK    3  A    between atoms: CA_10  and  C_12
REMARK    4  A    between atoms: CA_22  and  C_23
REMARK                            x       y       z     vdW  Elec       q    Type
REMARK                         _______ _______ _______ _____ _____    ______ ____
ROOT
ATOM      1  C   UNL     1       3.314   7.722  -3.142  0.00  0.00    +0.013 C 
ATOM      2  C   UNL     1       3.196   6.515  -2.499  0.00  0.00    +0.068 C 
ATOM      3  CA  UNL     1       1.645   6.529  -1.865  0.00  0.00    +0.189 C 
ATOM      4  N   UNL     1       0.971   6.291  -3.286  0.00  0.00    -0.259 N 
ATOM      5  C   UNL     1       1.297   4.835  -3.550  0.00  0.00    +0.153 C 
ATOM      6  CA  UNL     1       0.755   5.202  -5.113  0.00  0.00    +0.200 C 
ATOM      7  C   UNL     1       0.831   6.744  -4.606  0.00  0.00    +0.249 C 
ATOM      8  O   UNL     1       0.072   7.578  -5.132  0.00  0.00    -0.273 OA
ATOM      9  S   UNL     1       3.174   5.195  -3.609  0.00  0.00    -0.118 S 
ATOM     10  C   UNL     1       4.102   6.523  -1.332  0.00  0.00    +0.013 C 
ENDROOT
BRANCH   3  11
ATOM     11  C   UNL     1       1.641   4.948  -1.412  0.00  0.00    +0.383 C 
ATOM     12  OXT UNL     1       0.326   4.540  -1.433  0.00  0.00    -0.244 OA
ATOM     13  O   UNL     1       2.533   4.580  -0.668  0.00  0.00    -0.244 OA
ENDBRANCH   3  11
BRANCH   6  14
ATOM     14  N   UNL     1       2.184   5.267  -5.842  0.00  0.00    -0.194 NA
ATOM     15  C   UNL     1       1.991   5.669  -7.173  0.00  0.00    +0.264 C 
ATOM     16  O   UNL     1       1.143   5.233  -7.941  0.00  0.00    -0.271 OA
BRANCH  15  17
ATOM     17  CA  UNL     1       2.688   7.096  -7.596  0.00  0.00    +0.191 C 
ATOM     18  N   UNL     1       1.663   7.313  -8.824  0.00  0.00    -0.118 NA
BRANCH  17  19
ATOM     19  C   UNL     1       3.825   6.343  -8.496  0.00  0.00    +0.004 A 
ATOM     20  C   UNL     1       4.659   5.474  -7.957  0.00  0.00    +0.001 A 
ATOM     21  C   UNL     1       5.830   5.230  -8.675  0.00  0.00    +0.042 A 
ATOM     22  C   UNL     1       6.068   5.883  -9.882  0.00  0.00    +0.196 A 
ATOM     23  O   UNL     1       7.319   6.406 -10.196  0.00  0.00    -0.287 OA
ATOM     24  C   UNL     1       4.902   6.212 -10.570  0.00  0.00    +0.042 A 
ATOM     25  C   UNL     1       3.758   6.545  -9.840  0.00  0.00    +0.001 A 
ENDBRANCH  17  19
ENDBRANCH  15  17
ENDBRANCH   6  14
TORSDOF 4
ENDMDL
MODEL 3
REMARK VINA RESULT:      -7.4      3.818      7.975
REMARK  Name = 
REMARK  4 active torsions:
REMARK  status: ('A' for Active; 'I' for Inactive)
REMARK    1  A    between atoms: CA_6  and  N_7
REMARK    2  A    between atoms: C_8  and  CA_10
REMARK    3  A    between atoms: CA_10  and  C_12
REMARK    4  A    between atoms: CA_22  and  C_23
REMARK                            x       y       z     vdW  Elec       q    Type
REMARK                         _______ _______ _______ _____ _____    ______ ____
ROOT
ATOM      1  C   UNL     1       1.224   7.738  -6.568  0.00  0.00    +0.013 C 
ATOM      2  C   UNL     1       1.722   6.535  -7.002  0.00  0.00    +0.068 C 
ATOM      3  CA  UNL     1       3.368   6.631  -6.701  0.00  0.00    +0.189 C 
ATOM      4  N   UNL     1       3.178   6.443  -5.133  0.00  0.00    -0.259 N 
ATOM      5  C   UNL     1       2.825   4.973  -5.032  0.00  0.00    +0.153 C 
ATOM      6  CA  UNL     1       2.421   5.382  -3.438  0.00  0.00    +0.200 C 
ATOM      7  C   UNL     1       2.564   6.913  -3.963  0.00  0.00    +0.249 C 
ATOM      8  O   UNL     1       2.882   7.793  -3.142  0.00  0.00    -0.273 OA
ATOM      9  S   UNL     1       1.199   5.227  -6.006  0.00  0.00    -0.118 S 
ATOM     10  C   UNL     1       1.589   6.483  -8.472  0.00  0.00    +0.013 C 
ENDROOT
BRANCH   3  11
ATOM     11  C   UNL     1       3.683   5.050  -7.022  0.00  0.00    +0.383 C 
ATOM     12  OXT UNL     1       4.854   4.745  -6.364  0.00  0.00    -0.244 OA
ATOM     13  O   UNL     1       3.275   4.604  -8.080  0.00  0.00    -0.244 OA
ENDBRANCH   3  11
BRANCH   6  14
ATOM     14  N   UNL     1       0.823   5.372  -3.596  0.00  0.00    -0.194 NA
ATOM     15  C   UNL     1       0.248   5.215  -2.326  0.00  0.00    +0.264 C 
ATOM     16  O   UNL     1       0.594   4.407  -1.473  0.00  0.00    -0.271 OA
BRANCH  15  17
ATOM     17  CA  UNL     1      -0.686   6.463  -1.805  0.00  0.00    +0.191 C 
ATOM     18  N   UNL     1      -1.578   5.497  -0.869  0.00  0.00    -0.118 NA
BRANCH  17  19
ATOM     19  C   UNL     1      -1.673   6.345  -3.102  0.00  0.00    +0.004 A 
ATOM     20  C   UNL     1      -2.476   5.310  -3.258  0.00  0.00    +0.001 A 
ATOM     21  C   UNL     1      -2.932   5.084  -4.558  0.00  0.00    +0.042 A 
ATOM     22  C   UNL     1      -2.539   5.921  -5.599  0.00  0.00    +0.196 A 
ATOM     23  O   UNL     1      -2.172   5.417  -6.843  0.00  0.00    -0.287 OA
ATOM     24  C   UNL     1      -2.271   7.225  -5.187  0.00  0.00    +0.042 A 
ATOM     25  C   UNL     1      -1.728   7.434  -3.917  0.00  0.00    +0.001 A 
ENDBRANCH  17  19
ENDBRANCH  15  17
ENDBRANCH   6  14
TORSDOF 4
ENDMDL
MODEL 4
REMARK VINA RESULT:      -7.3      2.438      3.640
REMARK  Name = 
REMARK  4 active torsions:
REMARK  status: ('A' for Active; 'I' for Inactive)
REMARK    1  A    between atoms: CA_6  and  N_7
REMARK    2  A    between atoms: C_8  and  CA_10
REMARK    3  A    between atoms: CA_10  and  C_12
REMARK    4  A    between atoms: CA_22  and  C_23
REMARK                            x       y       z     vdW  Elec       q    Type
REMARK                         _______ _______ _______ _____ _____    ______ ____
ROOT
ATOM      1  C   UNL     1      -1.036   5.324  -6.899  0.00  0.00    +0.013 C 
ATOM      2  C   UNL     1      -0.888   6.184  -5.840  0.00  0.00    +0.068 C 
ATOM      3  CA  UNL     1      -0.616   5.183  -4.524  0.00  0.00    +0.189 C 
ATOM      4  N   UNL     1       0.872   4.848  -4.978  0.00  0.00    -0.259 N 
ATOM      5  C   UNL     1       1.595   6.143  -4.669  0.00  0.00    +0.153 C 
ATOM      6  CA  UNL     1       2.839   5.435  -5.576  0.00  0.00    +0.200 C 
ATOM      7  C   UNL     1       1.702   4.352  -5.994  0.00  0.00    +0.249 C 
ATOM      8  O   UNL     1       2.065   3.200  -6.295  0.00  0.00    -0.273 OA
ATOM      9  S   UNL     1       0.565   7.106  -5.961  0.00  0.00    -0.118 S 
ATOM     10  C   UNL     1      -2.190   6.831  -5.584  0.00  0.00    +0.013 C 
ENDROOT
BRANCH   3  11
ATOM     11  C   UNL     1      -0.205   6.389  -3.485  0.00  0.00    +0.383 C 
ATOM     12  OXT UNL     1       0.668   5.838  -2.574  0.00  0.00    -0.244 OA
ATOM     13  O   UNL     1      -1.026   7.272  -3.304  0.00  0.00    -0.244 OA
ENDBRANCH   3  11
BRANCH   6  14
ATOM     14  N   UNL     1       2.659   6.293  -6.922  0.00  0.00    -0.194 NA
ATOM     15  C   UNL     1       3.578   5.829  -7.875  0.00  0.00    +0.264 C 
ATOM     16  O   UNL     1       4.763   5.594  -7.678  0.00  0.00    -0.271 OA
BRANCH  15  17
ATOM     17  CA  UNL     1       2.927   5.182  -9.239  0.00  0.00    +0.191 C 
ATOM     18  N   UNL     1       3.675   3.770  -9.009  0.00  0.00    -0.118 NA
BRANCH  17  19
ATOM     19  C   UNL     1       4.109   5.812 -10.174  0.00  0.00    +0.004 A 
ATOM     20  C   UNL     1       4.878   5.040 -10.918  0.00  0.00    +0.001 A 
ATOM     21  C   UNL     1       6.093   5.596 -11.318  0.00  0.00    +0.042 A 
ATOM     22  C   UNL     1       6.438   6.890 -10.935  0.00  0.00    +0.196 A 
ATOM     23  O   UNL     1       7.722   7.206 -10.501  0.00  0.00    -0.287 OA
ATOM     24  C   UNL     1       5.335   7.721 -10.748  0.00  0.00    +0.042 A 
ATOM     25  C   UNL     1       4.149   7.170 -10.259  0.00  0.00    +0.001 A 
ENDBRANCH  17  19
ENDBRANCH  15  17
ENDBRANCH   6  14
TORSDOF 4
ENDMDL
MODEL 5
REMARK VINA RESULT:      -7.1      5.556      7.549
REMARK  Name = 
REMARK  4 active torsions:
REMARK  status: ('A' for Active; 'I' for Inactive)
REMARK    1  A    between atoms: CA_6  and  N_7
REMARK    2  A    between atoms: C_8  and  CA_10
REMARK    3  A    between atoms: CA_10  and  C_12
REMARK    4  A    between atoms: CA_22  and  C_23
REMARK                            x       y       z     vdW  Elec       q    Type
REMARK                         _______ _______ _______ _____ _____    ______ ____
ROOT
ATOM      1  C   UNL     1       2.785   7.762  -3.255  0.00  0.00    +0.013 C 
ATOM      2  C   UNL     1       3.323   6.501  -3.182  0.00  0.00    +0.068 C 
ATOM      3  CA  UNL     1       3.860   6.368  -1.600  0.00  0.00    +0.189 C 
ATOM      4  N   UNL     1       2.386   6.208  -1.023  0.00  0.00    -0.259 N 
ATOM      5  C   UNL     1       2.028   4.801  -1.459  0.00  0.00    +0.153 C 
ATOM      6  CA  UNL     1       0.469   5.263  -0.982  0.00  0.00    +0.200 C 
ATOM      7  C   UNL     1       1.100   6.759  -0.928  0.00  0.00    +0.249 C 
ATOM      8  O   UNL     1       0.596   7.586  -0.146  0.00  0.00    -0.273 OA
ATOM      9  S   UNL     1       2.112   5.279  -3.308  0.00  0.00    -0.118 S 
ATOM     10  C   UNL     1       4.539   6.468  -4.018  0.00  0.00    +0.013 C 
ENDROOT
BRANCH   3  11
ATOM     11  C   UNL     1       4.185   4.757  -1.676  0.00  0.00    +0.383 C 
ATOM     12  OXT UNL     1       4.427   4.348  -0.383  0.00  0.00    -0.244 OA
ATOM     13  O   UNL     1       4.684   4.337  -2.705  0.00  0.00    -0.244 OA
ENDBRANCH   3  11
BRANCH   6  14
ATOM     14  N   UNL     1      -0.164   5.475  -2.443  0.00  0.00    -0.194 NA
ATOM     15  C   UNL     1      -1.551   5.644  -2.310  0.00  0.00    +0.264 C 
ATOM     16  O   UNL     1      -2.297   4.961  -1.620  0.00  0.00    -0.271 OA
BRANCH  15  17
ATOM     17  CA  UNL     1      -2.144   7.097  -2.798  0.00  0.00    +0.191 C 
ATOM     18  N   UNL     1      -3.640   6.514  -2.953  0.00  0.00    -0.118 NA
BRANCH  17  19
ATOM     19  C   UNL     1      -1.724   6.814  -4.352  0.00  0.00    +0.004 A 
ATOM     20  C   UNL     1      -2.467   6.051  -5.132  0.00  0.00    +0.001 A 
ATOM     21  C   UNL     1      -1.827   5.525  -6.255  0.00  0.00    +0.042 A 
ATOM     22  C   UNL     1      -0.486   5.809  -6.501  0.00  0.00    +0.196 A 
ATOM     23  O   UNL     1       0.404   4.826  -6.925  0.00  0.00    -0.287 OA
ATOM     24  C   UNL     1      -0.085   7.048  -6.005  0.00  0.00    +0.042 A 
ATOM     25  C   UNL     1      -0.667   7.525  -4.828  0.00  0.00    +0.001 A 
ENDBRANCH  17  19
ENDBRANCH  15  17
ENDBRANCH   6  14
TORSDOF 4
ENDMDL
MODEL 6
REMARK VINA RESULT:      -6.9      3.067      7.529
REMARK  Name = 
REMARK  4 active torsions:
REMARK  status: ('A' for Active; 'I' for Inactive)
REMARK    1  A    between atoms: CA_6  and  N_7
REMARK    2  A    between atoms: C_8  and  CA_10
REMARK    3  A    between atoms: CA_10  and  C_12
REMARK    4  A    between atoms: CA_22  and  C_23
REMARK                            x       y       z     vdW  Elec       q    Type
REMARK                         _______ _______ _______ _____ _____    ______ ____
ROOT
ATOM      1  C   UNL     1       4.434   5.601  -8.504  0.00  0.00    +0.013 C 
ATOM      2  C   UNL     1       3.376   6.284  -9.051  0.00  0.00    +0.068 C 
ATOM      3  CA  UNL     1       2.255   5.093  -9.416  0.00  0.00    +0.189 C 
ATOM      4  N   UNL     1       1.852   4.887  -7.890  0.00  0.00    -0.259 N 
ATOM      5  C   UNL     1       1.048   6.139  -7.605  0.00  0.00    +0.153 C 
ATOM      6  CA  UNL     1       1.196   5.629  -5.995  0.00  0.00    +0.200 C 
ATOM      7  C   UNL     1       2.293   4.590  -6.593  0.00  0.00    +0.249 C 
ATOM      8  O   UNL     1       2.476   3.514  -5.993  0.00  0.00    -0.273 OA
ATOM      9  S   UNL     1       2.570   7.262  -7.881  0.00  0.00    -0.118 S 
ATOM     10  C   UNL     1       3.805   6.836 -10.351  0.00  0.00    +0.013 C 
ENDROOT
BRANCH   3  11
ATOM     11  C   UNL     1       1.029   6.130  -9.773  0.00  0.00    +0.383 C 
ATOM     12  OXT UNL     1      -0.138   5.489  -9.421  0.00  0.00    -0.244 OA
ATOM     13  O   UNL     1       1.212   6.915 -10.686  0.00  0.00    -0.244 OA
ENDBRANCH   3  11
BRANCH   6  14
ATOM     14  N   UNL     1       2.309   6.686  -5.521  0.00  0.00    -0.194 NA
ATOM     15  C   UNL     1       2.590   6.462  -4.165  0.00  0.00    +0.264 C 
ATOM     16  O   UNL     1       1.763   6.290  -3.277  0.00  0.00    -0.271 OA
BRANCH  15  17
ATOM     17  CA  UNL     1       4.131   6.007  -3.820  0.00  0.00    +0.191 C 
ATOM     18  N   UNL     1       3.642   4.650  -3.096  0.00  0.00    -0.118 NA
BRANCH  17  19
ATOM     19  C   UNL     1       4.150   6.895  -2.448  0.00  0.00    +0.004 A 
ATOM     20  C   UNL     1       4.398   6.339  -1.277  0.00  0.00    +0.001 A 
ATOM     21  C   UNL     1       3.970   7.057  -0.160  0.00  0.00    +0.042 A 
ATOM     22  C   UNL     1       3.324   8.281  -0.313  0.00  0.00    +0.196 A 
ATOM     23  O   UNL     1       2.204   8.616   0.442  0.00  0.00    -0.287 OA
ATOM     24  C   UNL     1       3.713   8.971  -1.460  0.00  0.00    +0.042 A 
ATOM     25  C   UNL     1       4.052   8.243  -2.603  0.00  0.00    +0.001 A 
ENDBRANCH  17  19
ENDBRANCH  15  17
ENDBRANCH   6  14
TORSDOF 4
ENDMDL
MODEL 7
REMARK VINA RESULT:      -6.9      3.288      7.726
REMARK  Name = 
REMARK  4 active torsions:
REMARK  status: ('A' for Active; 'I' for Inactive)
REMARK    1  A    between atoms: CA_6  and  N_7
REMARK    2  A    between atoms: C_8  and  CA_10
REMARK    3  A    between atoms: CA_10  and  C_12
REMARK    4  A    between atoms: CA_22  and  C_23
REMARK                            x       y       z     vdW  Elec       q    Type
REMARK                         _______ _______ _______ _____ _____    ______ ____
ROOT
ATOM      1  C   UNL     1       1.674   7.715  -7.537  0.00  0.00    +0.013 C 
ATOM      2  C   UNL     1       1.620   6.532  -8.232  0.00  0.00    +0.068 C 
ATOM      3  CA  UNL     1       3.223   6.154  -8.541  0.00  0.00    +0.189 C 
ATOM      4  N   UNL     1       3.498   5.720  -7.035  0.00  0.00    -0.259 N 
ATOM      5  C   UNL     1       2.769   4.394  -6.951  0.00  0.00    +0.153 C 
ATOM      6  CA  UNL     1       3.041   4.575  -5.288  0.00  0.00    +0.200 C 
ATOM      7  C   UNL     1       3.463   6.093  -5.684  0.00  0.00    +0.249 C 
ATOM      8  O   UNL     1       4.278   6.690  -4.955  0.00  0.00    -0.273 OA
ATOM      9  S   UNL     1       1.074   5.230  -7.241  0.00  0.00    -0.118 S 
ATOM     10  C   UNL     1       1.014   6.800  -9.552  0.00  0.00    +0.013 C 
ENDROOT
BRANCH   3  11
ATOM     11  C   UNL     1       2.926   4.637  -9.100  0.00  0.00    +0.383 C 
ATOM     12  OXT UNL     1       4.121   3.955  -9.030  0.00  0.00    -0.244 OA
ATOM     13  O   UNL     1       2.033   4.509  -9.919  0.00  0.00    -0.244 OA
ENDBRANCH   3  11
BRANCH   6  14
ATOM     14  N   UNL     1       1.552   4.995  -4.857  0.00  0.00    -0.194 NA
ATOM     15  C   UNL     1       1.553   5.306  -3.488  0.00  0.00    +0.264 C 
ATOM     16  O   UNL     1       2.081   4.648  -2.601  0.00  0.00    -0.271 OA
BRANCH  15  17
ATOM     17  CA  UNL     1       1.162   6.856  -3.108  0.00  0.00    +0.191 C 
ATOM     18  N   UNL     1       0.834   6.471  -1.575  0.00  0.00    -0.118 NA
BRANCH  17  19
ATOM     19  C   UNL     1      -0.374   6.662  -3.630  0.00  0.00    +0.004 A 
ATOM     20  C   UNL     1      -1.197   5.818  -3.036  0.00  0.00    +0.001 A 
ATOM     21  C   UNL     1      -2.294   5.406  -3.792  0.00  0.00    +0.042 A 
ATOM     22  C   UNL     1      -2.475   5.876  -5.089  0.00  0.00    +0.196 A 
ATOM     23  O   UNL     1      -2.869   5.033  -6.125  0.00  0.00    -0.287 OA
ATOM     24  C   UNL     1      -1.947   7.149  -5.293  0.00  0.00    +0.042 A 
ATOM     25  C   UNL     1      -0.792   7.520  -4.599  0.00  0.00    +0.001 A 
ENDBRANCH  17  19
ENDBRANCH  15  17
ENDBRANCH   6  14
TORSDOF 4
ENDMDL
MODEL 8
REMARK VINA RESULT:      -6.9      3.935      8.919
REMARK  Name = 
REMARK  4 active torsions:
REMARK  status: ('A' for Active; 'I' for Inactive)
REMARK    1  A    between atoms: CA_6  and  N_7
REMARK    2  A    between atoms: C_8  and  CA_10
REMARK    3  A    between atoms: CA_10  and  C_12
REMARK    4  A    between atoms: CA_22  and  C_23
REMARK                            x       y       z     vdW  Elec       q    Type
REMARK                         _______ _______ _______ _____ _____    ______ ____
ROOT
ATOM      1  C   UNL     1       2.356   3.982  -6.177  0.00  0.00    +0.013 C 
ATOM      2  C   UNL     1       2.763   5.153  -6.766  0.00  0.00    +0.068 C 
ATOM      3  CA  UNL     1       1.824   5.275  -8.148  0.00  0.00    +0.189 C 
ATOM      4  N   UNL     1       0.519   5.673  -7.328  0.00  0.00    -0.259 N 
ATOM      5  C   UNL     1       0.830   7.096  -6.912  0.00  0.00    +0.153 C 
ATOM      6  CA  UNL     1      -0.519   6.888  -5.908  0.00  0.00    +0.200 C 
ATOM      7  C   UNL     1      -0.375   5.320  -6.307  0.00  0.00    +0.249 C 
ATOM      8  O   UNL     1      -1.397   4.610  -6.293  0.00  0.00    -0.273 OA
ATOM      9  S   UNL     1       2.306   6.532  -5.836  0.00  0.00    -0.118 S 
ATOM     10  C   UNL     1       4.149   4.973  -7.243  0.00  0.00    +0.013 C 
ENDROOT
BRANCH   3  11
ATOM     11  C   UNL     1       2.269   6.816  -8.511  0.00  0.00    +0.383 C 
ATOM     12  OXT UNL     1       1.261   7.339  -9.290  0.00  0.00    -0.244 OA
ATOM     13  O   UNL     1       3.463   7.053  -8.563  0.00  0.00    -0.244 OA
ENDBRANCH   3  11
BRANCH   6  14
ATOM     14  N   UNL     1       0.259   6.708  -4.514  0.00  0.00    -0.194 NA
ATOM     15  C   UNL     1      -0.687   6.605  -3.483  0.00  0.00    +0.264 C 
ATOM     16  O   UNL     1      -1.668   7.323  -3.331  0.00  0.00    -0.271 OA
BRANCH  15  17
ATOM     17  CA  UNL     1      -0.696   5.182  -2.660  0.00  0.00    +0.191 C 
ATOM     18  N   UNL     1      -2.303   5.065  -2.740  0.00  0.00    -0.118 NA
BRANCH  17  19
ATOM     19  C   UNL     1      -0.686   5.948  -1.217  0.00  0.00    +0.004 A 
ATOM     20  C   UNL     1      -1.773   6.016  -0.471  0.00  0.00    +0.001 A 
ATOM     21  C   UNL     1      -1.788   7.027   0.490  0.00  0.00    +0.042 A 
ATOM     22  C   UNL     1      -0.705   7.892   0.623  0.00  0.00    +0.196 A 
ATOM     23  O   UNL     1      -0.880   9.261   0.806  0.00  0.00    -0.287 OA
ATOM     24  C   UNL     1       0.510   7.313   0.261  0.00  0.00    +0.042 A 
ATOM     25  C   UNL     1       0.528   6.367  -0.767  0.00  0.00    +0.001 A 
ENDBRANCH  17  19
ENDBRANCH  15  17
ENDBRANCH   6  14
TORSDOF 4
ENDMDL
MODEL 9
REMARK VINA RESULT:      -6.9      3.772      8.255
REMARK  Name = 
REMARK  4 active torsions:
REMARK  status: ('A' for Active; 'I' for Inactive)
REMARK    1  A    between atoms: CA_6  and  N_7
REMARK    2  A    between atoms: C_8  and  CA_10
REMARK    3  A    between atoms: CA_10  and  C_12
REMARK    4  A    between atoms: CA_22  and  C_23
REMARK                            x       y       z     vdW  Elec       q    Type
REMARK                         _______ _______ _______ _____ _____    ______ ____
ROOT
ATOM      1  C   UNL     1       2.475   7.589  -7.354  0.00  0.00    +0.013 C 
ATOM      2  C   UNL     1       2.203   6.345  -7.867  0.00  0.00    +0.068 C 
ATOM      3  CA  UNL     1       3.047   5.290  -6.874  0.00  0.00    +0.189 C 
ATOM      4  N   UNL     1       2.016   5.461  -5.674  0.00  0.00    -0.259 N 
ATOM      5  C   UNL     1       0.816   4.685  -6.177  0.00  0.00    +0.153 C 
ATOM      6  CA  UNL     1       0.035   5.430  -4.870  0.00  0.00    +0.200 C 
ATOM      7  C   UNL     1       1.372   6.351  -4.802  0.00  0.00    +0.249 C 
ATOM      8  O   UNL     1       1.701   6.836  -3.704  0.00  0.00    -0.273 OA
ATOM      9  S   UNL     1       0.554   5.899  -7.631  0.00  0.00    -0.118 S 
ATOM     10  C   UNL     1       2.846   6.241  -9.193  0.00  0.00    +0.013 C 
ENDROOT
BRANCH   3  11
ATOM     11  C   UNL     1       2.370   3.920  -7.481  0.00  0.00    +0.383 C 
ATOM     12  OXT UNL     1       2.180   3.073  -6.413  0.00  0.00    -0.244 OA
ATOM     13  O   UNL     1       2.636   3.631  -8.635  0.00  0.00    -0.244 OA
ENDBRANCH   3  11
BRANCH   6  14
ATOM     14  N   UNL     1      -0.799   6.527  -5.696  0.00  0.00    -0.194 NA
ATOM     15  C   UNL     1      -2.167   6.306  -5.480  0.00  0.00    +0.264 C 
ATOM     16  O   UNL     1      -2.737   5.222  -5.521  0.00  0.00    -0.271 OA
BRANCH  15  17
ATOM     17  CA  UNL     1      -2.979   7.524  -4.734  0.00  0.00    +0.191 C 
ATOM     18  N   UNL     1      -1.742   8.546  -4.902  0.00  0.00    -0.118 NA
BRANCH  17  19
ATOM     19  C   UNL     1      -2.526   7.001  -3.254  0.00  0.00    +0.004 A 
ATOM     20  C   UNL     1      -1.798   7.759  -2.454  0.00  0.00    +0.001 A 
ATOM     21  C   UNL     1      -1.112   7.089  -1.441  0.00  0.00    +0.042 A 
ATOM     22  C   UNL     1      -1.212   5.706  -1.315  0.00  0.00    +0.196 A 
ATOM     23  O   UNL     1      -0.099   4.913  -1.050  0.00  0.00    -0.287 OA
ATOM     24  C   UNL     1      -2.429   5.199  -1.765  0.00  0.00    +0.042 A 
ATOM     25  C   UNL     1      -3.065   5.822  -2.841  0.00  0.00    +0.001 A 
ENDBRANCH  17  19
ENDBRANCH  15  17
ENDBRANCH   6  14
TORSDOF 4
ENDMDL
