MODEL 1
REMARK VINA RESULT:      -7.2      0.000      0.000
REMARK  Name = 
REMARK  4 active torsions:
REMARK  status: ('A' for Active; 'I' for Inactive)
REMARK    1  A    between atoms: C_2  and  C_4
REMARK    2  A    between atoms: N_6  and  C_7
REMARK    3  A    between atoms: C_10  and  N_11
REMARK    4  A    between atoms: C_14  and  C_15
REMARK                            x       y       z     vdW  Elec       q    Type
REMARK                         _______ _______ _______ _____ _____    ______ ____
ROOT
ATOM      1  C   UNL     1       1.401   5.599  -5.501  0.00  0.00    +0.074 A 
ATOM      2  C   UNL     1       0.159   5.629  -6.125  0.00  0.00    +0.027 A 
ATOM      3  C   UNL     1      -1.016   5.569  -5.386  0.00  0.00    +0.142 A 
ATOM      4  C   UNL     1      -0.937   5.787  -4.036  0.00  0.00    +0.294 A 
ATOM      5  C   UNL     1       0.279   5.669  -3.374  0.00  0.00    +0.077 A 
ATOM      6  C   UNL     1       1.369   5.348  -4.134  0.00  0.00    +0.023 A 
ENDROOT
BRANCH   3   7
ATOM      7  C   UNL     1      -2.292   5.862  -6.074  0.00  0.00    +0.424 C 
ATOM      8  F   UNL     1      -2.747   7.099  -5.697  0.00  0.00    -0.166 F 
ATOM      9  F   UNL     1      -2.058   5.792  -7.442  0.00  0.00    -0.166 F 
ATOM     10  F   UNL     1      -3.223   4.889  -5.763  0.00  0.00    -0.166 F 
ENDBRANCH   3   7
BRANCH   1  12
ATOM     11  C   UNL     1       3.223   6.353  -7.020  0.00  0.00    +0.245 C 
ATOM     12  N   UNL     1       2.586   5.331  -6.259  0.00  0.00    -0.179 NA
ATOM     13  O   UNL     1       2.933   7.541  -6.705  0.00  0.00    -0.273 OA
BRANCH  11  15
ATOM     14  C   UNL     1       5.135   5.307  -8.033  0.00  0.00    +0.010 C 
ATOM     15  C   UNL     1       3.871   6.090  -8.341  0.00  0.00    +0.079 C 
ATOM     16  C   UNL     1       2.945   5.171  -9.122  0.00  0.00    +0.010 C 
ENDBRANCH  11  15
ENDBRANCH   1  12
BRANCH   4  17
ATOM     17  N   UNL     1      -2.083   5.927  -3.188  0.00  0.00    +0.081 N 
ATOM     18  O   UNL     1      -2.545   4.756  -2.609  0.00  0.00    -0.576 OA
ATOM     19  O   UNL     1      -2.191   6.954  -2.472  0.00  0.00    +0.041 OA
ENDBRANCH   4  17
TORSDOF 4
ENDMDL
MODEL 2
REMARK VINA RESULT:      -7.1      1.722      2.072
REMARK  Name = 
REMARK  4 active torsions:
REMARK  status: ('A' for Active; 'I' for Inactive)
REMARK    1  A    between atoms: C_2  and  C_4
REMARK    2  A    between atoms: N_6  and  C_7
REMARK    3  A    between atoms: C_10  and  N_11
REMARK    4  A    between atoms: C_14  and  C_15
REMARK                            x       y       z     vdW  Elec       q    Type
REMARK                         _______ _______ _______ _____ _____    ______ ____
ROOT
ATOM      1  C   UNL     1       1.060   6.695  -4.830  0.00  0.00    +0.074 A 
ATOM      2  C   UNL     1       0.010   6.429  -5.701  0.00  0.00    +0.027 A 
ATOM      3  C   UNL     1      -1.212   5.966  -5.228  0.00  0.00    +0.142 A 
ATOM      4  C   UNL     1      -1.462   6.069  -3.886  0.00  0.00    +0.294 A 
ATOM      5  C   UNL     1      -0.417   6.241  -2.986  0.00  0.00    +0.077 A 
ATOM      6  C   UNL     1       0.844   6.318  -3.510  0.00  0.00    +0.023 A 
ENDROOT
BRANCH   3   7
ATOM      7  C   UNL     1      -2.361   5.946  -6.160  0.00  0.00    +0.424 C 
ATOM      8  F   UNL     1      -3.072   7.111  -6.041  0.00  0.00    -0.166 F 
ATOM      9  F   UNL     1      -1.858   5.775  -7.444  0.00  0.00    -0.166 F 
ATOM     10  F   UNL     1      -3.166   4.858  -5.883  0.00  0.00    -0.166 F 
ENDBRANCH   3   7
BRANCH   1  12
ATOM     11  C   UNL     1       3.280   5.738  -5.426  0.00  0.00    +0.245 C 
ATOM     12  N   UNL     1       2.394   6.850  -5.329  0.00  0.00    -0.179 NA
ATOM     13  O   UNL     1       2.740   4.597  -5.415  0.00  0.00    -0.273 OA
BRANCH  11  15
ATOM     14  C   UNL     1       4.949   7.224  -4.543  0.00  0.00    +0.010 C 
ATOM     15  C   UNL     1       4.746   5.850  -5.158  0.00  0.00    +0.079 C 
ATOM     16  C   UNL     1       5.092   4.819  -4.096  0.00  0.00    +0.010 C 
ENDBRANCH  11  15
ENDBRANCH   1  12
BRANCH   4  17
ATOM     17  N   UNL     1      -2.738   5.795  -3.295  0.00  0.00    +0.081 N 
ATOM     18  O   UNL     1      -2.835   4.594  -2.611  0.00  0.00    -0.576 OA
ATOM     19  O   UNL     1      -3.399   6.744  -2.801  0.00  0.00    +0.041 OA
ENDBRANCH   4  17
TORSDOF 4
ENDMDL
MODEL 3
REMARK VINA RESULT:      -7.0      5.521      8.759
REMARK  Name = 
REMARK  4 active torsions:
REMARK  status: ('A' for Active; 'I' for Inactive)
REMARK    1  A    between atoms: C_2  and  C_4
REMARK    2  A    between atoms: N_6  and  C_7
REMARK    3  A    between atoms: C_10  and  N_11
REMARK    4  A    between atoms: C_14  and  C_15
REMARK                            x       y       z     vdW  Elec       q    Type
REMARK                         _______ _______ _______ _____ _____    ______ ____
ROOT
ATOM      1  C   UNL     1       3.691   6.057  -9.465  0.00  0.00    +0.074 A 
ATOM      2  C   UNL     1       5.070   5.987  -9.310  0.00  0.00    +0.027 A 
ATOM      3  C   UNL     1       5.907   5.825 -10.407  0.00  0.00    +0.142 A 
ATOM      4  C   UNL     1       5.382   6.042 -11.653  0.00  0.00    +0.294 A 
ATOM      5  C   UNL     1       4.007   6.022 -11.850  0.00  0.00    +0.077 A 
ATOM      6  C   UNL     1       3.227   5.797 -10.750  0.00  0.00    +0.023 A 
ENDROOT
BRANCH   3   7
ATOM      7  C   UNL     1       7.362   6.015 -10.212  0.00  0.00    +0.424 C 
ATOM      8  F   UNL     1       8.051   5.098 -10.962  0.00  0.00    -0.166 F 
ATOM      9  F   UNL     1       7.669   7.319 -10.579  0.00  0.00    -0.166 F 
ATOM     10  F   UNL     1       7.674   5.877  -8.873  0.00  0.00    -0.166 F 
ENDBRANCH   3   7
BRANCH   1  12
ATOM     11  C   UNL     1       2.382   7.012  -7.575  0.00  0.00    +0.245 C 
ATOM     12  N   UNL     1       2.825   5.892  -8.336  0.00  0.00    -0.179 NA
ATOM     13  O   UNL     1       2.470   8.137  -8.143  0.00  0.00    -0.273 OA
BRANCH  11  15
ATOM     14  C   UNL     1       1.661   5.572  -5.792  0.00  0.00    +0.010 C 
ATOM     15  C   UNL     1       2.202   6.959  -6.092  0.00  0.00    +0.079 C 
ATOM     16  C   UNL     1       3.584   7.055  -5.466  0.00  0.00    +0.010 C 
ENDBRANCH  11  15
ENDBRANCH   1  12
BRANCH   4  17
ATOM     17  N   UNL     1       6.170   6.082 -12.848  0.00  0.00    +0.081 N 
ATOM     18  O   UNL     1       6.110   4.948 -13.642  0.00  0.00    -0.576 OA
ATOM     19  O   UNL     1       6.274   7.166 -13.476  0.00  0.00    +0.041 OA
ENDBRANCH   4  17
TORSDOF 4
ENDMDL
MODEL 4
REMARK VINA RESULT:      -6.9      2.162      2.698
REMARK  Name = 
REMARK  4 active torsions:
REMARK  status: ('A' for Active; 'I' for Inactive)
REMARK    1  A    between atoms: C_2  and  C_4
REMARK    2  A    between atoms: N_6  and  C_7
REMARK    3  A    between atoms: C_10  and  N_11
REMARK    4  A    between atoms: C_14  and  C_15
REMARK                            x       y       z     vdW  Elec       q    Type
REMARK                         _______ _______ _______ _____ _____    ______ ____
ROOT
ATOM      1  C   UNL     1       0.607   5.379  -7.279  0.00  0.00    +0.074 A 
ATOM      2  C   UNL     1      -0.666   5.789  -6.897  0.00  0.00    +0.027 A 
ATOM      3  C   UNL     1      -1.046   5.792  -5.561  0.00  0.00    +0.142 A 
ATOM      4  C   UNL     1      -0.064   5.681  -4.613  0.00  0.00    +0.294 A 
ATOM      5  C   UNL     1       1.189   5.183  -4.953  0.00  0.00    +0.077 A 
ATOM      6  C   UNL     1       1.383   4.837  -6.261  0.00  0.00    +0.023 A 
ENDROOT
BRANCH   3   7
ATOM      7  C   UNL     1      -2.307   6.474  -5.193  0.00  0.00    +0.424 C 
ATOM      8  F   UNL     1      -2.024   7.660  -4.567  0.00  0.00    -0.166 F 
ATOM      9  F   UNL     1      -3.036   6.666  -6.359  0.00  0.00    -0.166 F 
ATOM     10  F   UNL     1      -3.054   5.657  -4.366  0.00  0.00    -0.166 F 
ENDBRANCH   3   7
BRANCH   1  12
ATOM     11  C   UNL     1       1.143   6.089  -9.603  0.00  0.00    +0.245 C 
ATOM     12  N   UNL     1       0.886   5.064  -8.648  0.00  0.00    -0.179 NA
ATOM     13  O   UNL     1       1.479   7.212  -9.135  0.00  0.00    -0.273 OA
BRANCH  11  15
ATOM     14  C   UNL     1      -0.058   4.679 -11.135  0.00  0.00    +0.010 C 
ATOM     15  C   UNL     1       0.679   6.003 -11.022  0.00  0.00    +0.079 C 
ATOM     16  C   UNL     1      -0.340   7.111 -11.231  0.00  0.00    +0.010 C 
ENDBRANCH  11  15
ENDBRANCH   1  12
BRANCH   4  17
ATOM     17  N   UNL     1      -0.296   5.845  -3.209  0.00  0.00    +0.081 N 
ATOM     18  O   UNL     1      -0.878   4.763  -2.568  0.00  0.00    -0.576 OA
ATOM     19  O   UNL     1       0.541   6.484  -2.522  0.00  0.00    +0.041 OA
ENDBRANCH   4  17
TORSDOF 4
ENDMDL
MODEL 5
REMARK VINA RESULT:      -6.7      6.979      8.062
REMARK  Name = 
REMARK  4 active torsions:
REMARK  status: ('A' for Active; 'I' for Inactive)
REMARK    1  A    between atoms: C_2  and  C_4
REMARK    2  A    between atoms: N_6  and  C_7
REMARK    3  A    between atoms: C_10  and  N_11
REMARK    4  A    between atoms: C_14  and  C_15
REMARK                            x       y       z     vdW  Elec       q    Type
REMARK                         _______ _______ _______ _____ _____    ______ ____
ROOT
ATOM      1  C   UNL     1       4.096   5.510 -11.672  0.00  0.00    +0.074 A 
ATOM      2  C   UNL     1       2.861   6.046 -11.324  0.00  0.00    +0.027 A 
ATOM      3  C   UNL     1       1.901   6.320 -12.291  0.00  0.00    +0.142 A 
ATOM      4  C   UNL     1       2.070   5.775 -13.536  0.00  0.00    +0.294 A 
ATOM      5  C   UNL     1       3.318   5.319 -13.941  0.00  0.00    +0.077 A 
ATOM      6  C   UNL     1       4.340   5.426 -13.038  0.00  0.00    +0.023 A 
ENDROOT
BRANCH   3   7
ATOM      7  C   UNL     1       0.529   6.643 -11.842  0.00  0.00    +0.424 C 
ATOM      8  F   UNL     1      -0.021   7.579 -12.679  0.00  0.00    -0.166 F 
ATOM      9  F   UNL     1      -0.201   5.461 -11.838  0.00  0.00    -0.166 F 
ATOM     10  F   UNL     1       0.562   7.114 -10.544  0.00  0.00    -0.166 F 
ENDBRANCH   3   7
BRANCH   1  12
ATOM     11  C   UNL     1       6.018   6.686 -10.614  0.00  0.00    +0.245 C 
ATOM     12  N   UNL     1       5.185   5.537 -10.743  0.00  0.00    -0.179 NA
ATOM     13  O   UNL     1       5.541   7.768 -11.057  0.00  0.00    -0.273 OA
BRANCH  11  15
ATOM     14  C   UNL     1       7.652   5.498  -9.314  0.00  0.00    +0.010 C 
ATOM     15  C   UNL     1       7.487   6.592 -10.355  0.00  0.00    +0.079 C 
ATOM     16  C   UNL     1       8.142   6.104 -11.638  0.00  0.00    +0.010 C 
ENDBRANCH  11  15
ENDBRANCH   1  12
BRANCH   4  17
ATOM     17  N   UNL     1       1.075   5.830 -14.566  0.00  0.00    +0.081 N 
ATOM     18  O   UNL     1       1.339   6.708 -15.605  0.00  0.00    -0.576 OA
ATOM     19  O   UNL     1       0.482   4.774 -14.899  0.00  0.00    +0.041 OA
ENDBRANCH   4  17
TORSDOF 4
ENDMDL
MODEL 6
REMARK VINA RESULT:      -6.7      3.283      6.353
REMARK  Name = 
REMARK  4 active torsions:
REMARK  status: ('A' for Active; 'I' for Inactive)
REMARK    1  A    between atoms: C_2  and  C_4
REMARK    2  A    between atoms: N_6  and  C_7
REMARK    3  A    between atoms: C_10  and  N_11
REMARK    4  A    between atoms: C_14  and  C_15
REMARK                            x       y       z     vdW  Elec       q    Type
REMARK                         _______ _______ _______ _____ _____    ______ ____
ROOT
ATOM      1  C   UNL     1      -0.614   6.017  -6.006  0.00  0.00    +0.074 A 
ATOM      2  C   UNL     1       0.681   6.522  -6.022  0.00  0.00    +0.027 A 
ATOM      3  C   UNL     1       1.494   6.373  -7.139  0.00  0.00    +0.142 A 
ATOM      4  C   UNL     1       0.903   6.000  -8.317  0.00  0.00    +0.294 A 
ATOM      5  C   UNL     1      -0.352   5.405  -8.317  0.00  0.00    +0.077 A 
ATOM      6  C   UNL     1      -0.958   5.236  -7.104  0.00  0.00    +0.023 A 
ENDROOT
BRANCH   3   7
ATOM      7  C   UNL     1       2.754   7.146  -7.195  0.00  0.00    +0.424 C 
ATOM      8  F   UNL     1       2.583   8.251  -7.988  0.00  0.00    -0.166 F 
ATOM      9  F   UNL     1       3.094   7.491  -5.893  0.00  0.00    -0.166 F 
ATOM     10  F   UNL     1       3.767   6.348  -7.690  0.00  0.00    -0.166 F 
ENDBRANCH   3   7
BRANCH   1  12
ATOM     11  C   UNL     1      -2.177   6.909  -4.286  0.00  0.00    +0.245 C 
ATOM     12  N   UNL     1      -1.322   5.877  -4.768  0.00  0.00    -0.179 NA
ATOM     13  O   UNL     1      -2.566   7.752  -5.142  0.00  0.00    -0.273 OA
BRANCH  11  15
ATOM     14  C   UNL     1      -3.567   6.546  -2.360  0.00  0.00    +0.010 C 
ATOM     15  C   UNL     1      -2.301   7.239  -2.833  0.00  0.00    +0.079 C 
ATOM     16  C   UNL     1      -1.129   6.585  -2.119  0.00  0.00    +0.010 C 
ENDBRANCH  11  15
ENDBRANCH   1  12
BRANCH   4  17
ATOM     17  N   UNL     1       1.589   5.981  -9.575  0.00  0.00    +0.081 N 
ATOM     18  O   UNL     1       2.163   4.770  -9.925  0.00  0.00    -0.576 OA
ATOM     19  O   UNL     1       1.124   6.647 -10.534  0.00  0.00    +0.041 OA
ENDBRANCH   4  17
TORSDOF 4
ENDMDL
MODEL 7
REMARK VINA RESULT:      -6.7      2.841      5.948
REMARK  Name = 
REMARK  4 active torsions:
REMARK  status: ('A' for Active; 'I' for Inactive)
REMARK    1  A    between atoms: C_2  and  C_4
REMARK    2  A    between atoms: N_6  and  C_7
REMARK    3  A    between atoms: C_10  and  N_11
REMARK    4  A    between atoms: C_14  and  C_15
REMARK                            x       y       z     vdW  Elec       q    Type
REMARK                         _______ _______ _______ _____ _____    ______ ____
ROOT
ATOM      1  C   UNL     1      -0.873   5.227  -6.357  0.00  0.00    +0.074 A 
ATOM      2  C   UNL     1      -0.715   5.608  -7.685  0.00  0.00    +0.027 A 
ATOM      3  C   UNL     1       0.537   5.606  -8.287  0.00  0.00    +0.142 A 
ATOM      4  C   UNL     1       1.552   4.938  -7.654  0.00  0.00    +0.294 A 
ATOM      5  C   UNL     1       1.457   4.631  -6.303  0.00  0.00    +0.077 A 
ATOM      6  C   UNL     1       0.310   5.007  -5.661  0.00  0.00    +0.023 A 
ENDROOT
BRANCH   3   7
ATOM      7  C   UNL     1       0.608   5.770  -9.755  0.00  0.00    +0.424 C 
ATOM      8  F   UNL     1       1.732   6.481 -10.086  0.00  0.00    -0.166 F 
ATOM      9  F   UNL     1       0.614   4.500 -10.320  0.00  0.00    -0.166 F 
ATOM     10  F   UNL     1      -0.526   6.418 -10.207  0.00  0.00    -0.166 F 
ENDBRANCH   3   7
BRANCH   1  12
ATOM     11  C   UNL     1      -2.176   6.696  -4.827  0.00  0.00    +0.245 C 
ATOM     12  N   UNL     1      -2.080   5.539  -5.652  0.00  0.00    -0.179 NA
ATOM     13  O   UNL     1      -1.319   7.599  -5.038  0.00  0.00    -0.273 OA
BRANCH  11  15
ATOM     14  C   UNL     1      -3.078   5.259  -3.126  0.00  0.00    +0.010 C 
ATOM     15  C   UNL     1      -2.948   6.712  -3.547  0.00  0.00    +0.079 C 
ATOM     16  C   UNL     1      -2.085   7.412  -2.509  0.00  0.00    +0.010 C 
ENDBRANCH  11  15
ENDBRANCH   1  12
BRANCH   4  17
ATOM     17  N   UNL     1       2.837   4.709  -8.245  0.00  0.00    +0.081 N 
ATOM     18  O   UNL     1       3.898   5.363  -7.641  0.00  0.00    -0.576 OA
ATOM     19  O   UNL     1       3.105   3.569  -8.702  0.00  0.00    +0.041 OA
ENDBRANCH   4  17
TORSDOF 4
ENDMDL
MODEL 8
REMARK VINA RESULT:      -6.5      3.772      5.327
REMARK  Name = 
REMARK  4 active torsions:
REMARK  status: ('A' for Active; 'I' for Inactive)
REMARK    1  A    between atoms: C_2  and  C_4
REMARK    2  A    between atoms: N_6  and  C_7
REMARK    3  A    between atoms: C_10  and  N_11
REMARK    4  A    between atoms: C_14  and  C_15
REMARK                            x       y       z     vdW  Elec       q    Type
REMARK                         _______ _______ _______ _____ _____    ______ ____
ROOT
ATOM      1  C   UNL     1       5.084   5.809  -9.346  0.00  0.00    +0.074 A 
ATOM      2  C   UNL     1       3.793   6.323  -9.401  0.00  0.00    +0.027 A 
ATOM      3  C   UNL     1       2.951   6.264  -8.298  0.00  0.00    +0.142 A 
ATOM      4  C   UNL     1       3.507   5.974  -7.080  0.00  0.00    +0.294 A 
ATOM      5  C   UNL     1       4.757   5.372  -7.003  0.00  0.00    +0.077 A 
ATOM      6  C   UNL     1       5.392   5.109  -8.185  0.00  0.00    +0.023 A 
ENDROOT
BRANCH   3   7
ATOM      7  C   UNL     1       1.697   7.047  -8.331  0.00  0.00    +0.424 C 
ATOM      8  F   UNL     1       1.897   8.265  -7.735  0.00  0.00    -0.166 F 
ATOM      9  F   UNL     1       1.319   7.179  -9.662  0.00  0.00    -0.166 F 
ATOM     10  F   UNL     1       0.695   6.351  -7.683  0.00  0.00    -0.166 F 
ENDBRANCH   3   7
BRANCH   1  12
ATOM     11  C   UNL     1       7.068   6.220 -10.791  0.00  0.00    +0.245 C 
ATOM     12  N   UNL     1       5.822   5.573 -10.550  0.00  0.00    -0.179 NA
ATOM     13  O   UNL     1       7.654   6.690  -9.776  0.00  0.00    -0.273 OA
BRANCH  11  15
ATOM     14  C   UNL     1       8.731   5.874 -12.491  0.00  0.00    +0.010 C 
ATOM     15  C   UNL     1       7.489   6.678 -12.151  0.00  0.00    +0.079 C 
ATOM     16  C   UNL     1       6.396   6.266 -13.124  0.00  0.00    +0.010 C 
ENDBRANCH  11  15
ENDBRANCH   1  12
BRANCH   4  17
ATOM     17  N   UNL     1       2.789   6.053  -5.843  0.00  0.00    +0.081 N 
ATOM     18  O   UNL     1       2.392   4.840  -5.303  0.00  0.00    -0.576 OA
ATOM     19  O   UNL     1       3.115   6.929  -5.002  0.00  0.00    +0.041 OA
ENDBRANCH   4  17
TORSDOF 4
ENDMDL
MODEL 9
REMARK VINA RESULT:      -6.4      4.713      6.459
REMARK  Name = 
REMARK  4 active torsions:
REMARK  status: ('A' for Active; 'I' for Inactive)
REMARK    1  A    between atoms: C_2  and  C_4
REMARK    2  A    between atoms: N_6  and  C_7
REMARK    3  A    between atoms: C_10  and  N_11
REMARK    4  A    between atoms: C_14  and  C_15
REMARK                            x       y       z     vdW  Elec       q    Type
REMARK                         _______ _______ _______ _____ _____    ______ ____
ROOT
ATOM      1  C   UNL     1       4.655   5.728 -10.678  0.00  0.00    +0.074 A 
ATOM      2  C   UNL     1       4.279   6.232  -9.438  0.00  0.00    +0.027 A 
ATOM      3  C   UNL     1       2.978   6.657  -9.203  0.00  0.00    +0.142 A 
ATOM      4  C   UNL     1       2.011   6.292 -10.101  0.00  0.00    +0.294 A 
ATOM      5  C   UNL     1       2.359   5.876 -11.380  0.00  0.00    +0.077 A 
ATOM      6  C   UNL     1       3.693   5.835 -11.676  0.00  0.00    +0.023 A 
ENDROOT
BRANCH   3   7
ATOM      7  C   UNL     1       2.574   6.938  -7.808  0.00  0.00    +0.424 C 
ATOM      8  F   UNL     1       1.825   8.086  -7.766  0.00  0.00    -0.166 F 
ATOM      9  F   UNL     1       1.861   5.838  -7.346  0.00  0.00    -0.166 F 
ATOM     10  F   UNL     1       3.698   7.066  -7.015  0.00  0.00    -0.166 F 
ENDBRANCH   3   7
BRANCH   1  12
ATOM     11  C   UNL     1       6.754   6.680 -11.620  0.00  0.00    +0.245 C 
ATOM     12  N   UNL     1       6.041   5.603 -11.019  0.00  0.00    -0.179 NA
ATOM     13  O   UNL     1       6.238   7.826 -11.492  0.00  0.00    -0.273 OA
BRANCH  11  15
ATOM     14  C   UNL     1       8.937   5.735 -11.960  0.00  0.00    +0.010 C 
ATOM     15  C   UNL     1       7.807   6.469 -12.660  0.00  0.00    +0.079 C 
ATOM     16  C   UNL     1       7.228   5.526 -13.703  0.00  0.00    +0.010 C 
ENDBRANCH  11  15
ENDBRANCH   1  12
BRANCH   4  17
ATOM     17  N   UNL     1       0.610   6.512  -9.890  0.00  0.00    +0.081 N 
ATOM     18  O   UNL     1       0.017   7.437 -10.733  0.00  0.00    -0.576 OA
ATOM     19  O   UNL     1      -0.119   5.540  -9.569  0.00  0.00    +0.041 OA
ENDBRANCH   4  17
TORSDOF 4
ENDMDL
