MODEL 1
REMARK VINA RESULT:      -7.2      0.000      0.000
REMARK  Name = 
REMARK  6 active torsions:
REMARK  status: ('A' for Active; 'I' for Inactive)
REMARK    1  A    between atoms: C_7  and  C_8
REMARK    2  A    between atoms: C_13  and  C_14
REMARK    3  A    between atoms: C_21  and  C_22
REMARK    4  A    between atoms: C_23  and  C_24
REMARK    5  A    between atoms: C_24  and  C_25
REMARK    6  A    between atoms: C_30  and  C_31
REMARK                            x       y       z     vdW  Elec       q    Type
REMARK                         _______ _______ _______ _____ _____    ______ ____
ROOT
ATOM      1  C   UNL     1      -4.080   5.621  -3.005  0.00  0.00    +0.032 C 
ATOM      2  C   UNL     1      -3.286   6.618  -3.424  0.00  0.00    -0.005 C 
ATOM      3  C   UNL     1      -1.989   6.359  -3.526  0.00  0.00    +0.124 C 
ATOM      4  C   UNL     1      -0.955   7.296  -3.990  0.00  0.00    +0.280 C 
ATOM      5  O   UNL     1      -1.285   8.487  -4.167  0.00  0.00    -0.267 OA
ATOM      6  N   UNL     1       0.223   6.645  -4.510  0.00  0.00    -0.191 NA
ATOM      7  C   UNL     1      -0.090   5.294  -5.270  0.00  0.00    +0.194 C 
ATOM      8  C   UNL     1       1.356   5.047  -5.952  0.00  0.00    +0.337 C 
ATOM      9  O   UNL     1       1.266   4.357  -7.026  0.00  0.00    -0.248 OA
ATOM     10  O   UNL     1       2.034   4.389  -4.914  0.00  0.00    -0.446 OA
ATOM     11  C   UNL     1       2.778   5.598  -4.309  0.00  0.00    +0.198 C 
ATOM     12  C   UNL     1       3.231   4.709  -2.995  0.00  0.00    +0.113 C 
ATOM     13  C   UNL     1       4.211   5.471  -2.243  0.00  0.00    +0.155 C 
ATOM     14  O   UNL     1       5.128   4.774  -1.789  0.00  0.00    -0.296 OA
ATOM     15  C   UNL     1       4.338   6.862  -1.941  0.00  0.00    +0.074 C 
ATOM     16  C   UNL     1       2.898   7.566  -1.649  0.00  0.00    +0.086 C 
ATOM     17  C   UNL     1       2.279   6.367  -0.794  0.00  0.00    +0.242 C 
ATOM     18  O   UNL     1       2.954   5.676  -0.065  0.00  0.00    -0.273 OA
ATOM     19  N   UNL     1       0.924   6.644  -0.422  0.00  0.00    -0.197 NA
ATOM     20  C   UNL     1      -0.011   7.005  -1.629  0.00  0.00    +0.185 C 
ATOM     21  C   UNL     1      -0.213   5.488  -2.127  0.00  0.00    +0.266 C 
ATOM     22  O   UNL     1       0.524   4.593  -1.703  0.00  0.00    -0.271 OA
ATOM     23  N   UNL     1      -1.348   5.211  -2.957  0.00  0.00    -0.173 NA
ENDROOT
BRANCH   7  24
ATOM     24  C   UNL     1      -0.566   6.046  -6.651  0.00  0.00    +0.031 C 
ATOM     25  C   UNL     1      -1.672   5.327  -7.269  0.00  0.00    +0.002 C 
ATOM     26  C   UNL     1       0.530   6.562  -7.396  0.00  0.00    +0.002 C 
ENDBRANCH   7  24
BRANCH  16  27
ATOM     27  C   UNL     1       3.453   8.375  -0.339  0.00  0.00    +0.009 C 
ATOM     28  C   UNL     1       3.522   9.808  -0.867  0.00  0.00    +0.001 C 
ATOM     29  C   UNL     1       4.865   8.044  -0.067  0.00  0.00    +0.001 C 
ENDBRANCH  16  27
BRANCH  20  30
ATOM     30  C   UNL     1      -1.358   6.946  -0.682  0.00  0.00    +0.100 C 
ATOM     31  S   UNL     1      -1.043   8.093   0.693  0.00  0.00    -0.080 S 
ENDBRANCH  20  30
BRANCH  11  32
ATOM     32  C   UNL     1       4.189   5.249  -5.027  0.00  0.00    +0.013 C 
ATOM     33  C   UNL     1       4.579   5.893  -6.067  0.00  0.00    -0.026 C 
BRANCH  33  34
ATOM     34  C   UNL     1       5.369   5.323  -7.214  0.00  0.00    +0.038 C 
BRANCH  34  35
ATOM     35  C   UNL     1       4.373   5.233  -8.368  0.00  0.00    +0.073 C 
ATOM     36  S   UNL     1       5.126   5.591  -9.961  0.00  0.00    -0.082 S 
ENDBRANCH  34  35
ENDBRANCH  33  34
ENDBRANCH  11  32
TORSDOF 6
ENDMDL
MODEL 2
REMARK VINA RESULT:      -6.2      2.152      6.667
REMARK  Name = 
REMARK  6 active torsions:
REMARK  status: ('A' for Active; 'I' for Inactive)
REMARK    1  A    between atoms: C_7  and  C_8
REMARK    2  A    between atoms: C_13  and  C_14
REMARK    3  A    between atoms: C_21  and  C_22
REMARK    4  A    between atoms: C_23  and  C_24
REMARK    5  A    between atoms: C_24  and  C_25
REMARK    6  A    between atoms: C_30  and  C_31
REMARK                            x       y       z     vdW  Elec       q    Type
REMARK                         _______ _______ _______ _____ _____    ______ ____
ROOT
ATOM      1  C   UNL     1       4.484   4.439  -8.383  0.00  0.00    +0.032 C 
ATOM      2  C   UNL     1       4.176   5.649  -7.892  0.00  0.00    -0.005 C 
ATOM      3  C   UNL     1       3.492   5.686  -6.756  0.00  0.00    +0.124 C 
ATOM      4  C   UNL     1       3.079   6.901  -6.037  0.00  0.00    +0.280 C 
ATOM      5  O   UNL     1       3.249   8.000  -6.603  0.00  0.00    -0.267 OA
ATOM      6  N   UNL     1       2.848   6.687  -4.628  0.00  0.00    -0.191 NA
ATOM      7  C   UNL     1       3.823   5.619  -3.987  0.00  0.00    +0.194 C 
ATOM      8  C   UNL     1       3.496   5.883  -2.425  0.00  0.00    +0.337 C 
ATOM      9  O   UNL     1       4.481   5.573  -1.671  0.00  0.00    -0.248 OA
ATOM     10  O   UNL     1       2.368   5.067  -2.246  0.00  0.00    -0.446 OA
ATOM     11  C   UNL     1       1.268   6.133  -2.423  0.00  0.00    +0.198 C 
ATOM     12  C   UNL     1       0.099   4.971  -2.487  0.00  0.00    +0.113 C 
ATOM     13  C   UNL     1      -1.197   5.620  -2.411  0.00  0.00    +0.155 C 
ATOM     14  O   UNL     1      -2.014   5.001  -1.717  0.00  0.00    -0.296 OA
ATOM     15  C   UNL     1      -1.708   6.837  -2.958  0.00  0.00    +0.074 C 
ATOM     16  C   UNL     1      -1.148   7.124  -4.460  0.00  0.00    +0.086 C 
ATOM     17  C   UNL     1      -1.256   5.619  -4.986  0.00  0.00    +0.242 C 
ATOM     18  O   UNL     1      -2.137   4.871  -4.628  0.00  0.00    -0.273 OA
ATOM     19  N   UNL     1      -0.748   5.501  -6.319  0.00  0.00    -0.197 NA
ATOM     20  C   UNL     1       0.711   6.048  -6.501  0.00  0.00    +0.185 C 
ATOM     21  C   UNL     1       1.439   4.764  -5.860  0.00  0.00    +0.266 C 
ATOM     22  O   UNL     1       0.784   3.936  -5.220  0.00  0.00    -0.271 OA
ATOM     23  N   UNL     1       2.821   4.559  -6.180  0.00  0.00    -0.173 NA
ENDROOT
BRANCH   7  24
ATOM     24  C   UNL     1       5.079   6.673  -3.858  0.00  0.00    +0.031 C 
ATOM     25  C   UNL     1       4.601   7.990  -3.459  0.00  0.00    +0.002 C 
ATOM     26  C   UNL     1       6.056   6.482  -4.874  0.00  0.00    +0.002 C 
ENDBRANCH   7  24
BRANCH  16  27
ATOM     27  C   UNL     1      -2.620   7.557  -5.029  0.00  0.00    +0.009 C 
ATOM     28  C   UNL     1      -2.576   9.078  -4.874  0.00  0.00    +0.001 C 
ATOM     29  C   UNL     1      -3.691   7.151  -4.099  0.00  0.00    +0.001 C 
ENDBRANCH  16  27
BRANCH  20  30
ATOM     30  C   UNL     1       0.817   5.434  -8.025  0.00  0.00    +0.100 C 
ATOM     31  S   UNL     1       0.913   6.875  -9.131  0.00  0.00    -0.080 S 
ENDBRANCH  20  30
BRANCH  11  32
ATOM     32  C   UNL     1       1.003   6.308  -0.834  0.00  0.00    +0.013 C 
ATOM     33  C   UNL     1       1.107   7.455  -0.267  0.00  0.00    -0.026 C 
BRANCH  33  34
ATOM     34  C   UNL     1       1.603   7.709   1.130  0.00  0.00    +0.038 C 
BRANCH  34  35
ATOM     35  C   UNL     1       3.094   7.995   0.972  0.00  0.00    +0.073 C 
ATOM     36  S   UNL     1       3.418   9.421  -0.074  0.00  0.00    -0.082 S 
ENDBRANCH  34  35
ENDBRANCH  33  34
ENDBRANCH  11  32
TORSDOF 6
ENDMDL
MODEL 3
REMARK VINA RESULT:      -5.7      2.423      7.522
REMARK  Name = 
REMARK  6 active torsions:
REMARK  status: ('A' for Active; 'I' for Inactive)
REMARK    1  A    between atoms: C_7  and  C_8
REMARK    2  A    between atoms: C_13  and  C_14
REMARK    3  A    between atoms: C_21  and  C_22
REMARK    4  A    between atoms: C_23  and  C_24
REMARK    5  A    between atoms: C_24  and  C_25
REMARK    6  A    between atoms: C_30  and  C_31
REMARK                            x       y       z     vdW  Elec       q    Type
REMARK                         _______ _______ _______ _____ _____    ______ ____
ROOT
ATOM      1  C   UNL     1       5.467   4.261  -3.603  0.00  0.00    +0.032 C 
ATOM      2  C   UNL     1       4.994   5.508  -3.748  0.00  0.00    -0.005 C 
ATOM      3  C   UNL     1       3.919   5.835  -3.043  0.00  0.00    +0.124 C 
ATOM      4  C   UNL     1       3.260   7.151  -3.033  0.00  0.00    +0.280 C 
ATOM      5  O   UNL     1       3.642   8.000  -3.865  0.00  0.00    -0.267 OA
ATOM      6  N   UNL     1       2.494   7.404  -1.837  0.00  0.00    -0.191 NA
ATOM      7  C   UNL     1       3.136   6.775  -0.535  0.00  0.00    +0.194 C 
ATOM      8  C   UNL     1       2.223   7.510   0.579  0.00  0.00    +0.337 C 
ATOM      9  O   UNL     1       2.832   7.624   1.697  0.00  0.00    -0.248 OA
ATOM     10  O   UNL     1       1.113   6.652   0.625  0.00  0.00    -0.446 OA
ATOM     11  C   UNL     1       0.174   7.422  -0.327  0.00  0.00    +0.198 C 
ATOM     12  C   UNL     1      -0.880   6.153  -0.374  0.00  0.00    +0.113 C 
ATOM     13  C   UNL     1      -2.100   6.595  -1.025  0.00  0.00    +0.155 C 
ATOM     14  O   UNL     1      -3.125   6.142  -0.500  0.00  0.00    -0.296 OA
ATOM     15  C   UNL     1      -2.351   7.462  -2.132  0.00  0.00    +0.074 C 
ATOM     16  C   UNL     1      -1.246   7.291  -3.316  0.00  0.00    +0.086 C 
ATOM     17  C   UNL     1      -1.143   5.699  -3.242  0.00  0.00    +0.242 C 
ATOM     18  O   UNL     1      -2.096   5.001  -2.979  0.00  0.00    -0.273 OA
ATOM     19  N   UNL     1      -0.153   5.203  -4.150  0.00  0.00    -0.197 NA
ATOM     20  C   UNL     1       1.262   5.858  -3.976  0.00  0.00    +0.185 C 
ATOM     21  C   UNL     1       1.677   4.992  -2.684  0.00  0.00    +0.266 C 
ATOM     22  O   UNL     1       0.820   4.350  -2.068  0.00  0.00    -0.271 OA
ATOM     23  N   UNL     1       3.073   4.892  -2.376  0.00  0.00    -0.173 NA
ENDROOT
BRANCH   7  24
ATOM     24  C   UNL     1       4.244   7.977  -0.360  0.00  0.00    +0.031 C 
ATOM     25  C   UNL     1       5.348   7.536   0.482  0.00  0.00    +0.002 C 
ATOM     26  C   UNL     1       3.640   9.259  -0.232  0.00  0.00    +0.002 C 
ENDBRANCH   7  24
BRANCH  16  27
ATOM     27  C   UNL     1      -2.375   7.285  -4.500  0.00  0.00    +0.009 C 
ATOM     28  C   UNL     1      -1.561   6.807  -5.702  0.00  0.00    +0.001 C 
ATOM     29  C   UNL     1      -2.762   8.659  -4.875  0.00  0.00    +0.001 C 
ENDBRANCH  16  27
BRANCH  20  30
ATOM     30  C   UNL     1       1.956   4.779  -5.008  0.00  0.00    +0.100 C 
ATOM     31  S   UNL     1       2.274   5.700  -6.543  0.00  0.00    -0.080 S 
ENDBRANCH  20  30
BRANCH  11  32
ATOM     32  C   UNL     1      -0.693   8.093   0.867  0.00  0.00    +0.013 C 
ATOM     33  C   UNL     1      -0.796   9.368   0.974  0.00  0.00    -0.026 C 
BRANCH  33  34
ATOM     34  C   UNL     1      -0.887  10.142   2.261  0.00  0.00    +0.038 C 
BRANCH  34  35
ATOM     35  C   UNL     1       0.184   9.534   3.162  0.00  0.00    +0.073 C 
ATOM     36  S   UNL     1       1.613  10.607   3.362  0.00  0.00    -0.082 S 
ENDBRANCH  34  35
ENDBRANCH  33  34
ENDBRANCH  11  32
TORSDOF 6
ENDMDL
MODEL 4
REMARK VINA RESULT:      -5.6      1.940      3.221
REMARK  Name = 
REMARK  6 active torsions:
REMARK  status: ('A' for Active; 'I' for Inactive)
REMARK    1  A    between atoms: C_7  and  C_8
REMARK    2  A    between atoms: C_13  and  C_14
REMARK    3  A    between atoms: C_21  and  C_22
REMARK    4  A    between atoms: C_23  and  C_24
REMARK    5  A    between atoms: C_24  and  C_25
REMARK    6  A    between atoms: C_30  and  C_31
REMARK                            x       y       z     vdW  Elec       q    Type
REMARK                         _______ _______ _______ _____ _____    ______ ____
ROOT
ATOM      1  C   UNL     1      -2.674   5.634   1.017  0.00  0.00    +0.032 C 
ATOM      2  C   UNL     1      -2.330   6.677   0.247  0.00  0.00    -0.005 C 
ATOM      3  C   UNL     1      -1.637   6.416  -0.854  0.00  0.00    +0.124 C 
ATOM      4  C   UNL     1      -1.187   7.405  -1.846  0.00  0.00    +0.280 C 
ATOM      5  O   UNL     1      -1.331   8.613  -1.571  0.00  0.00    -0.267 OA
ATOM      6  N   UNL     1      -0.953   6.844  -3.155  0.00  0.00    -0.191 NA
ATOM      7  C   UNL     1      -1.953   5.675  -3.525  0.00  0.00    +0.194 C 
ATOM      8  C   UNL     1      -1.608   5.537  -5.100  0.00  0.00    +0.337 C 
ATOM      9  O   UNL     1      -2.597   5.074  -5.767  0.00  0.00    -0.248 OA
ATOM     10  O   UNL     1      -0.502   4.674  -5.057  0.00  0.00    -0.446 OA
ATOM     11  C   UNL     1       0.626   5.723  -5.135  0.00  0.00    +0.198 C 
ATOM     12  C   UNL     1       1.762   4.584  -4.771  0.00  0.00    +0.113 C 
ATOM     13  C   UNL     1       3.076   5.163  -4.988  0.00  0.00    +0.155 C 
ATOM     14  O   UNL     1       3.880   4.371  -5.497  0.00  0.00    -0.296 OA
ATOM     15  C   UNL     1       3.616   6.464  -4.752  0.00  0.00    +0.074 C 
ATOM     16  C   UNL     1       3.054   7.127  -3.374  0.00  0.00    +0.086 C 
ATOM     17  C   UNL     1       3.118   5.796  -2.492  0.00  0.00    +0.242 C 
ATOM     18  O   UNL     1       3.981   4.962  -2.642  0.00  0.00    -0.273 OA
ATOM     19  N   UNL     1       2.599   6.024  -1.177  0.00  0.00    -0.197 NA
ATOM     20  C   UNL     1       1.154   6.635  -1.155  0.00  0.00    +0.185 C 
ATOM     21  C   UNL     1       0.395   5.250  -1.468  0.00  0.00    +0.266 C 
ATOM     22  O   UNL     1       1.032   4.273  -1.876  0.00  0.00    -0.271 OA
ATOM     23  N   UNL     1      -0.994   5.165  -1.126  0.00  0.00    -0.173 NA
ENDROOT
BRANCH   7  24
ATOM     24  C   UNL     1      -3.178   6.694  -3.926  0.00  0.00    +0.031 C 
ATOM     25  C   UNL     1      -2.657   7.886  -4.583  0.00  0.00    +0.002 C 
ATOM     26  C   UNL     1      -4.193   6.744  -2.931  0.00  0.00    +0.002 C 
ENDBRANCH   7  24
BRANCH  16  27
ATOM     27  C   UNL     1       4.534   7.650  -2.911  0.00  0.00    +0.009 C 
ATOM     28  C   UNL     1       4.184   8.922  -2.138  0.00  0.00    +0.001 C 
ATOM     29  C   UNL     1       5.306   8.153  -4.064  0.00  0.00    +0.001 C 
ENDBRANCH  16  27
BRANCH  20  30
ATOM     30  C   UNL     1       1.021   6.419   0.472  0.00  0.00    +0.100 C 
ATOM     31  S   UNL     1       1.182   8.077   1.203  0.00  0.00    -0.080 S 
ENDBRANCH  20  30
BRANCH  11  32
ATOM     32  C   UNL     1       0.905   5.493  -6.714  0.00  0.00    +0.013 C 
ATOM     33  C   UNL     1       1.225   6.473  -7.480  0.00  0.00    -0.026 C 
BRANCH  33  34
ATOM     34  C   UNL     1       0.832   6.631  -8.924  0.00  0.00    +0.038 C 
BRANCH  34  35
ATOM     35  C   UNL     1      -0.077   5.440  -9.215  0.00  0.00    +0.073 C 
ATOM     36  S   UNL     1       0.252   4.693 -10.818  0.00  0.00    -0.082 S 
ENDBRANCH  34  35
ENDBRANCH  33  34
ENDBRANCH  11  32
TORSDOF 6
ENDMDL
MODEL 5
REMARK VINA RESULT:      -5.6      3.175      4.972
REMARK  Name = 
REMARK  6 active torsions:
REMARK  status: ('A' for Active; 'I' for Inactive)
REMARK    1  A    between atoms: C_7  and  C_8
REMARK    2  A    between atoms: C_13  and  C_14
REMARK    3  A    between atoms: C_21  and  C_22
REMARK    4  A    between atoms: C_23  and  C_24
REMARK    5  A    between atoms: C_24  and  C_25
REMARK    6  A    between atoms: C_30  and  C_31
REMARK                            x       y       z     vdW  Elec       q    Type
REMARK                         _______ _______ _______ _____ _____    ______ ____
ROOT
ATOM      1  C   UNL     1      -2.906   6.521   3.085  0.00  0.00    +0.032 C 
ATOM      2  C   UNL     1      -2.579   7.362   2.092  0.00  0.00    -0.005 C 
ATOM      3  C   UNL     1      -1.313   7.371   1.697  0.00  0.00    +0.124 C 
ATOM      4  C   UNL     1      -0.754   8.192   0.612  0.00  0.00    +0.280 C 
ATOM      5  O   UNL     1      -1.485   9.068   0.107  0.00  0.00    -0.267 OA
ATOM      6  N   UNL     1       0.454   7.646   0.039  0.00  0.00    -0.191 NA
ATOM      7  C   UNL     1       0.467   6.065  -0.009  0.00  0.00    +0.194 C 
ATOM      8  C   UNL     1       1.757   5.852  -0.962  0.00  0.00    +0.337 C 
ATOM      9  O   UNL     1       1.699   4.748  -1.605  0.00  0.00    -0.248 OA
ATOM     10  O   UNL     1       2.796   5.903  -0.020  0.00  0.00    -0.446 OA
ATOM     11  C   UNL     1       3.201   7.382  -0.187  0.00  0.00    +0.198 C 
ATOM     12  C   UNL     1       4.160   7.311   1.153  0.00  0.00    +0.113 C 
ATOM     13  C   UNL     1       4.957   8.523   1.210  0.00  0.00    +0.155 C 
ATOM     14  O   UNL     1       6.120   8.325   1.583  0.00  0.00    -0.296 OA
ATOM     15  C   UNL     1       4.672   9.889   0.903  0.00  0.00    +0.074 C 
ATOM     16  C   UNL     1       3.163  10.320   1.340  0.00  0.00    +0.086 C 
ATOM     17  C   UNL     1       3.147   9.541   2.735  0.00  0.00    +0.242 C 
ATOM     18  O   UNL     1       4.137   9.422   3.420  0.00  0.00    -0.273 OA
ATOM     19  N   UNL     1       1.873   9.659   3.376  0.00  0.00    -0.197 NA
ATOM     20  C   UNL     1       0.661   9.220   2.481  0.00  0.00    +0.185 C 
ATOM     21  C   UNL     1       0.881   7.638   2.689  0.00  0.00    +0.266 C 
ATOM     22  O   UNL     1       1.938   7.217   3.169  0.00  0.00    -0.271 OA
ATOM     23  N   UNL     1      -0.234   6.776   2.428  0.00  0.00    -0.173 NA
ENDROOT
BRANCH   7  24
ATOM     24  C   UNL     1      -0.483   5.983  -1.349  0.00  0.00    +0.031 C 
ATOM     25  C   UNL     1      -0.143   7.049  -2.282  0.00  0.00    +0.002 C 
ATOM     26  C   UNL     1      -1.825   5.624  -1.044  0.00  0.00    +0.002 C 
ENDBRANCH   7  24
BRANCH  16  27
ATOM     27  C   UNL     1       3.657  11.735   1.997  0.00  0.00    +0.009 C 
ATOM     28  C   UNL     1       3.993  12.555   0.751  0.00  0.00    +0.001 C 
ATOM     29  C   UNL     1       4.962  11.585   2.669  0.00  0.00    +0.001 C 
ENDBRANCH  16  27
BRANCH  20  30
ATOM     30  C   UNL     1      -0.387   9.310   3.749  0.00  0.00    +0.100 C 
ATOM     31  S   UNL     1      -1.400  10.789   3.445  0.00  0.00    -0.080 S 
ENDBRANCH  20  30
BRANCH  11  32
ATOM     32  C   UNL     1       4.485   7.057  -1.121  0.00  0.00    +0.013 C 
ATOM     33  C   UNL     1       4.635   7.627  -2.261  0.00  0.00    -0.026 C 
BRANCH  33  34
ATOM     34  C   UNL     1       5.252   7.005  -3.485  0.00  0.00    +0.038 C 
BRANCH  34  35
ATOM     35  C   UNL     1       4.363   7.454  -4.642  0.00  0.00    +0.073 C 
ATOM     36  S   UNL     1       2.790   6.585  -4.684  0.00  0.00    -0.082 S 
ENDBRANCH  34  35
ENDBRANCH  33  34
ENDBRANCH  11  32
TORSDOF 6
ENDMDL
MODEL 6
REMARK VINA RESULT:      -5.0      2.541      5.773
REMARK  Name = 
REMARK  6 active torsions:
REMARK  status: ('A' for Active; 'I' for Inactive)
REMARK    1  A    between atoms: C_7  and  C_8
REMARK    2  A    between atoms: C_13  and  C_14
REMARK    3  A    between atoms: C_21  and  C_22
REMARK    4  A    between atoms: C_23  and  C_24
REMARK    5  A    between atoms: C_24  and  C_25
REMARK    6  A    between atoms: C_30  and  C_31
REMARK                            x       y       z     vdW  Elec       q    Type
REMARK                         _______ _______ _______ _____ _____    ______ ____
ROOT
ATOM      1  C   UNL     1       1.600   4.553  -9.792  0.00  0.00    +0.032 C 
ATOM      2  C   UNL     1       1.770   5.699  -9.117  0.00  0.00    -0.005 C 
ATOM      3  C   UNL     1       1.837   5.621  -7.794  0.00  0.00    +0.124 C 
ATOM      4  C   UNL     1       2.047   6.747  -6.872  0.00  0.00    +0.280 C 
ATOM      5  O   UNL     1       2.015   7.902  -7.344  0.00  0.00    -0.267 OA
ATOM      6  N   UNL     1       2.606   6.355  -5.600  0.00  0.00    -0.191 NA
ATOM      7  C   UNL     1       3.629   5.153  -5.708  0.00  0.00    +0.194 C 
ATOM      8  C   UNL     1       4.253   5.218  -4.217  0.00  0.00    +0.337 C 
ATOM      9  O   UNL     1       5.442   4.749  -4.176  0.00  0.00    -0.248 OA
ATOM     10  O   UNL     1       3.319   4.454  -3.501  0.00  0.00    -0.446 OA
ATOM     11  C   UNL     1       2.449   5.598  -2.942  0.00  0.00    +0.198 C 
ATOM     12  C   UNL     1       1.302   4.527  -2.430  0.00  0.00    +0.113 C 
ATOM     13  C   UNL     1       0.358   5.236  -1.586  0.00  0.00    +0.155 C 
ATOM     14  O   UNL     1      -0.011   4.577  -0.606  0.00  0.00    -0.296 OA
ATOM     15  C   UNL     1      -0.211   6.545  -1.651  0.00  0.00    +0.074 C 
ATOM     16  C   UNL     1      -0.541   7.003  -3.179  0.00  0.00    +0.086 C 
ATOM     17  C   UNL     1      -1.110   5.594  -3.672  0.00  0.00    +0.242 C 
ATOM     18  O   UNL     1      -1.734   4.858  -2.943  0.00  0.00    -0.273 OA
ATOM     19  N   UNL     1      -1.442   5.630  -5.064  0.00  0.00    -0.197 NA
ATOM     20  C   UNL     1      -0.270   6.110  -5.991  0.00  0.00    +0.185 C 
ATOM     21  C   UNL     1       0.521   4.708  -5.977  0.00  0.00    +0.266 C 
ATOM     22  O   UNL     1       0.230   3.840  -5.148  0.00  0.00    -0.271 OA
ATOM     23  N   UNL     1       1.459   4.467  -7.034  0.00  0.00    -0.173 NA
ENDROOT
BRANCH   7  24
ATOM     24  C   UNL     1       4.868   6.102  -6.223  0.00  0.00    +0.031 C 
ATOM     25  C   UNL     1       4.863   7.377  -5.518  0.00  0.00    +0.002 C 
ATOM     26  C   UNL     1       5.089   5.996  -7.624  0.00  0.00    +0.002 C 
ENDBRANCH   7  24
BRANCH  16  27
ATOM     27  C   UNL     1      -2.013   7.597  -2.783  0.00  0.00    +0.009 C 
ATOM     28  C   UNL     1      -2.093   8.841  -3.669  0.00  0.00    +0.001 C 
ATOM     29  C   UNL     1      -2.015   8.152  -1.416  0.00  0.00    +0.001 C 
ENDBRANCH  16  27
BRANCH  20  30
ATOM     30  C   UNL     1      -1.100   5.706  -7.354  0.00  0.00    +0.100 C 
ATOM     31  S   UNL     1      -2.854   5.679  -6.872  0.00  0.00    -0.080 S 
ENDBRANCH  20  30
BRANCH  11  32
ATOM     32  C   UNL     1       3.129   5.567  -1.471  0.00  0.00    +0.013 C 
ATOM     33  C   UNL     1       3.549   6.645  -0.913  0.00  0.00    -0.026 C 
BRANCH  33  34
ATOM     34  C   UNL     1       4.749   6.765  -0.014  0.00  0.00    +0.038 C 
BRANCH  34  35
ATOM     35  C   UNL     1       4.499   8.026   0.807  0.00  0.00    +0.073 C 
ATOM     36  S   UNL     1       4.547   7.721   2.578  0.00  0.00    -0.082 S 
ENDBRANCH  34  35
ENDBRANCH  33  34
ENDBRANCH  11  32
TORSDOF 6
ENDMDL
MODEL 7
REMARK VINA RESULT:      -4.7      2.488      3.888
REMARK  Name = 
REMARK  6 active torsions:
REMARK  status: ('A' for Active; 'I' for Inactive)
REMARK    1  A    between atoms: C_7  and  C_8
REMARK    2  A    between atoms: C_13  and  C_14
REMARK    3  A    between atoms: C_21  and  C_22
REMARK    4  A    between atoms: C_23  and  C_24
REMARK    5  A    between atoms: C_24  and  C_25
REMARK    6  A    between atoms: C_30  and  C_31
REMARK                            x       y       z     vdW  Elec       q    Type
REMARK                         _______ _______ _______ _____ _____    ______ ____
ROOT
ATOM      1  C   UNL     1      -2.493   6.119   3.136  0.00  0.00    +0.032 C 
ATOM      2  C   UNL     1      -2.445   7.149   2.278  0.00  0.00    -0.005 C 
ATOM      3  C   UNL     1      -1.474   7.143   1.375  0.00  0.00    +0.124 C 
ATOM      4  C   UNL     1      -1.260   8.157   0.330  0.00  0.00    +0.280 C 
ATOM      5  O   UNL     1      -1.952   9.194   0.374  0.00  0.00    -0.267 OA
ATOM      6  N   UNL     1      -0.519   7.666  -0.807  0.00  0.00    -0.191 NA
ATOM      7  C   UNL     1      -0.827   6.154  -1.152  0.00  0.00    +0.194 C 
ATOM      8  C   UNL     1      -0.103   6.071  -2.596  0.00  0.00    +0.337 C 
ATOM      9  O   UNL     1      -0.627   5.174  -3.343  0.00  0.00    -0.248 OA
ATOM     10  O   UNL     1       1.219   5.790  -2.218  0.00  0.00    -0.446 OA
ATOM     11  C   UNL     1       1.793   7.221  -2.264  0.00  0.00    +0.198 C 
ATOM     12  C   UNL     1       3.182   6.729  -1.523  0.00  0.00    +0.113 C 
ATOM     13  C   UNL     1       4.148   7.810  -1.597  0.00  0.00    +0.155 C 
ATOM     14  O   UNL     1       5.301   7.421  -1.818  0.00  0.00    -0.296 OA
ATOM     15  C   UNL     1       4.027   9.229  -1.484  0.00  0.00    +0.074 C 
ATOM     16  C   UNL     1       2.940   9.672  -0.355  0.00  0.00    +0.086 C 
ATOM     17  C   UNL     1       3.345   8.572   0.730  0.00  0.00    +0.242 C 
ATOM     18  O   UNL     1       4.486   8.195   0.873  0.00  0.00    -0.273 OA
ATOM     19  N   UNL     1       2.491   8.639   1.877  0.00  0.00    -0.197 NA
ATOM     20  C   UNL     1       0.960   8.550   1.542  0.00  0.00    +0.185 C 
ATOM     21  C   UNL     1       0.940   6.954   1.330  0.00  0.00    +0.266 C 
ATOM     22  O   UNL     1       2.000   6.332   1.207  0.00  0.00    -0.271 OA
ATOM     23  N   UNL     1      -0.325   6.289   1.430  0.00  0.00    -0.173 NA
ENDROOT
BRANCH   7  24
ATOM     24  C   UNL     1      -2.237   6.497  -1.925  0.00  0.00    +0.031 C 
ATOM     25  C   UNL     1      -2.929   5.269  -2.294  0.00  0.00    +0.002 C 
ATOM     26  C   UNL     1      -2.119   7.610  -2.804  0.00  0.00    +0.002 C 
ENDBRANCH   7  24
BRANCH  16  27
ATOM     27  C   UNL     1       3.917  10.825   0.270  0.00  0.00    +0.009 C 
ATOM     28  C   UNL     1       3.051  11.386   1.399  0.00  0.00    +0.001 C 
ATOM     29  C   UNL     1       4.053  11.968  -0.654  0.00  0.00    +0.001 C 
ENDBRANCH  16  27
BRANCH  20  30
ATOM     30  C   UNL     1       0.558   8.412   3.133  0.00  0.00    +0.100 C 
ATOM     31  S   UNL     1      -0.128  10.029   3.608  0.00  0.00    -0.080 S 
ENDBRANCH  20  30
BRANCH  11  32
ATOM     32  C   UNL     1       2.498   7.027  -3.710  0.00  0.00    +0.013 C 
ATOM     33  C   UNL     1       2.836   5.861  -4.131  0.00  0.00    -0.026 C 
BRANCH  33  34
ATOM     34  C   UNL     1       4.038   5.542  -4.978  0.00  0.00    +0.038 C 
BRANCH  34  35
ATOM     35  C   UNL     1       3.473   5.262  -6.368  0.00  0.00    +0.073 C 
ATOM     36  S   UNL     1       2.076   4.130  -6.333  0.00  0.00    -0.082 S 
ENDBRANCH  34  35
ENDBRANCH  33  34
ENDBRANCH  11  32
TORSDOF 6
ENDMDL
