MODEL 1
REMARK VINA RESULT:      -8.4      0.000      0.000
REMARK  Name = 
REMARK  1 active torsions:
REMARK  status: ('A' for Active; 'I' for Inactive)
REMARK    1  A    between atoms: C_14  and  C_15
REMARK                            x       y       z     vdW  Elec       q    Type
REMARK                         _______ _______ _______ _____ _____    ______ ____
ROOT
ATOM      1  C   UNL     1       2.762   7.617  -8.628  0.00  0.00    +0.074 C 
ATOM      2  C   UNL     1       1.616   6.686  -8.549  0.00  0.00    +0.147 A 
ATOM      3  N   UNL     1       1.035   6.298  -7.407  0.00  0.00    -0.279 N 
ATOM      4  C   UNL     1       1.629   6.564  -6.130  0.00  0.00    +0.068 A 
ATOM      5  C   UNL     1       1.093   6.178  -4.906  0.00  0.00    +0.034 A 
ATOM      6  C   UNL     1      -0.273   5.735  -4.598  0.00  0.00    +0.079 C 
ATOM      7  N   UNL     1      -1.187   5.569  -5.510  0.00  0.00    -0.262 NA
ATOM      8  C   UNL     1      -1.064   4.943  -6.795  0.00  0.00    +0.191 C 
ATOM      9  C   UNL     1       1.890   6.024  -3.777  0.00  0.00    +0.014 A 
ATOM     10  C   UNL     1       3.268   5.995  -3.947  0.00  0.00    +0.058 A 
ATOM     11 CL   UNL     1       4.311   5.020  -2.917  0.00  0.00    -0.082 Cl
ATOM     12  C   UNL     1       3.795   6.507  -5.128  0.00  0.00    +0.013 A 
ATOM     13  C   UNL     1       2.984   6.841  -6.206  0.00  0.00    +0.019 A 
ATOM     14  C   UNL     1      -0.131   5.676  -7.698  0.00  0.00    +0.172 A 
ATOM     15  N   UNL     1       0.023   5.250  -8.973  0.00  0.00    -0.131 NA
ATOM     16  N   UNL     1       0.970   6.011  -9.518  0.00  0.00    -0.133 NA
ENDROOT
BRANCH   6  17
ATOM     17  C   UNL     1      -0.713   6.196  -3.276  0.00  0.00    +0.028 A 
ATOM     18  C   UNL     1      -1.594   7.270  -3.289  0.00  0.00    +0.059 A 
ATOM     19 CL   UNL     1      -1.623   8.343  -4.687  0.00  0.00    -0.082 Cl
ATOM     20  C   UNL     1      -2.378   7.522  -2.179  0.00  0.00    +0.011 A 
ATOM     21  C   UNL     1      -2.345   6.623  -1.127  0.00  0.00    +0.001 A 
ATOM     22  C   UNL     1      -1.290   5.722  -1.050  0.00  0.00    +0.000 A 
ATOM     23  C   UNL     1      -0.664   5.302  -2.215  0.00  0.00    +0.002 A 
ENDBRANCH   6  17
TORSDOF 1
ENDMDL
MODEL 2
REMARK VINA RESULT:      -8.3      2.370      5.761
REMARK  Name = 
REMARK  1 active torsions:
REMARK  status: ('A' for Active; 'I' for Inactive)
REMARK    1  A    between atoms: C_14  and  C_15
REMARK                            x       y       z     vdW  Elec       q    Type
REMARK                         _______ _______ _______ _____ _____    ______ ____
ROOT
ATOM      1  C   UNL     1       1.242   4.606  -1.133  0.00  0.00    +0.074 C 
ATOM      2  C   UNL     1       0.433   5.465  -2.024  0.00  0.00    +0.147 A 
ATOM      3  N   UNL     1       0.823   5.874  -3.238  0.00  0.00    -0.279 N 
ATOM      4  C   UNL     1       2.173   5.713  -3.690  0.00  0.00    +0.068 A 
ATOM      5  C   UNL     1       2.654   6.126  -4.928  0.00  0.00    +0.034 A 
ATOM      6  C   UNL     1       1.898   6.496  -6.132  0.00  0.00    +0.079 C 
ATOM      7  N   UNL     1       0.598   6.556  -6.163  0.00  0.00    -0.262 NA
ATOM      8  C   UNL     1      -0.293   7.122  -5.191  0.00  0.00    +0.191 C 
ATOM      9  C   UNL     1       4.004   6.388  -5.136  0.00  0.00    +0.014 A 
ATOM     10  C   UNL     1       4.829   6.496  -4.024  0.00  0.00    +0.058 A 
ATOM     11 CL   UNL     1       6.209   7.589  -3.995  0.00  0.00    -0.082 Cl
ATOM     12  C   UNL     1       4.383   5.959  -2.821  0.00  0.00    +0.013 A 
ATOM     13  C   UNL     1       3.075   5.518  -2.657  0.00  0.00    +0.019 A 
ATOM     14  C   UNL     1      -0.241   6.404  -3.885  0.00  0.00    +0.172 A 
ATOM     15  N   UNL     1      -1.087   6.773  -2.896  0.00  0.00    -0.131 NA
ATOM     16  N   UNL     1      -0.765   6.046  -1.828  0.00  0.00    -0.133 NA
ENDROOT
BRANCH   6  17
ATOM     17  C   UNL     1       2.584   6.077  -7.360  0.00  0.00    +0.028 A 
ATOM     18  C   UNL     1       2.405   4.744  -7.710  0.00  0.00    +0.059 A 
ATOM     19 CL   UNL     1       1.969   3.577  -6.463  0.00  0.00    -0.082 Cl
ATOM     20  C   UNL     1       2.642   4.343  -9.011  0.00  0.00    +0.011 A 
ATOM     21  C   UNL     1       2.941   5.309  -9.957  0.00  0.00    +0.001 A 
ATOM     22  C   UNL     1       3.349   6.565  -9.526  0.00  0.00    +0.000 A 
ATOM     23  C   UNL     1       2.902   7.045  -8.303  0.00  0.00    +0.002 A 
ENDBRANCH   6  17
TORSDOF 1
ENDMDL
MODEL 3
REMARK VINA RESULT:      -8.2      2.890      5.505
REMARK  Name = 
REMARK  1 active torsions:
REMARK  status: ('A' for Active; 'I' for Inactive)
REMARK    1  A    between atoms: C_14  and  C_15
REMARK                            x       y       z     vdW  Elec       q    Type
REMARK                         _______ _______ _______ _____ _____    ______ ____
ROOT
ATOM      1  C   UNL     1      -3.038   6.402  -5.344  0.00  0.00    +0.074 C 
ATOM      2  C   UNL     1      -2.594   5.912  -4.021  0.00  0.00    +0.147 A 
ATOM      3  N   UNL     1      -1.313   5.786  -3.654  0.00  0.00    -0.279 N 
ATOM      4  C   UNL     1      -0.243   5.887  -4.601  0.00  0.00    +0.068 A 
ATOM      5  C   UNL     1       1.108   5.750  -4.297  0.00  0.00    +0.034 A 
ATOM      6  C   UNL     1       1.764   5.803  -2.983  0.00  0.00    +0.079 C 
ATOM      7  N   UNL     1       1.107   5.918  -1.866  0.00  0.00    -0.262 NA
ATOM      8  C   UNL     1      -0.088   5.237  -1.458  0.00  0.00    +0.191 C 
ATOM      9  C   UNL     1       2.040   5.383  -5.261  0.00  0.00    +0.014 A 
ATOM     10  C   UNL     1       1.570   4.887  -6.470  0.00  0.00    +0.058 A 
ATOM     11 CL   UNL     1       2.449   3.660  -7.375  0.00  0.00    -0.082 Cl
ATOM     12  C   UNL     1       0.248   5.147  -6.817  0.00  0.00    +0.013 A 
ATOM     13  C   UNL     1      -0.652   5.692  -5.910  0.00  0.00    +0.019 A 
ATOM     14  C   UNL     1      -1.258   5.580  -2.317  0.00  0.00    +0.172 A 
ATOM     15  N   UNL     1      -2.475   5.078  -2.004  0.00  0.00    -0.131 NA
ATOM     16  N   UNL     1      -3.305   5.456  -2.974  0.00  0.00    -0.133 NA
ENDROOT
BRANCH   6  17
ATOM     17  C   UNL     1       3.087   6.436  -3.058  0.00  0.00    +0.028 A 
ATOM     18  C   UNL     1       4.149   5.632  -2.663  0.00  0.00    +0.059 A 
ATOM     19 CL   UNL     1       3.845   4.275  -1.580  0.00  0.00    -0.082 Cl
ATOM     20  C   UNL     1       5.432   5.951  -3.066  0.00  0.00    +0.011 A 
ATOM     21  C   UNL     1       5.606   7.002  -3.950  0.00  0.00    +0.001 A 
ATOM     22  C   UNL     1       4.572   7.915  -4.116  0.00  0.00    +0.000 A 
ATOM     23  C   UNL     1       3.260   7.502  -3.931  0.00  0.00    +0.002 A 
ENDBRANCH   6  17
TORSDOF 1
ENDMDL
MODEL 4
REMARK VINA RESULT:      -7.9      3.959      6.681
REMARK  Name = 
REMARK  1 active torsions:
REMARK  status: ('A' for Active; 'I' for Inactive)
REMARK    1  A    between atoms: C_14  and  C_15
REMARK                            x       y       z     vdW  Elec       q    Type
REMARK                         _______ _______ _______ _____ _____    ______ ____
ROOT
ATOM      1  C   UNL     1       3.549   4.273 -14.101  0.00  0.00    +0.074 C 
ATOM      2  C   UNL     1       4.443   5.009 -13.182  0.00  0.00    +0.147 A 
ATOM      3  N   UNL     1       4.064   5.507 -11.998  0.00  0.00    -0.279 N 
ATOM      4  C   UNL     1       2.685   5.583 -11.618  0.00  0.00    +0.068 A 
ATOM      5  C   UNL     1       2.217   6.103 -10.416  0.00  0.00    +0.034 A 
ATOM      6  C   UNL     1       2.961   6.373  -9.178  0.00  0.00    +0.079 C 
ATOM      7  N   UNL     1       4.249   6.218  -9.077  0.00  0.00    -0.262 NA
ATOM      8  C   UNL     1       5.271   6.603 -10.008  0.00  0.00    +0.191 C 
ATOM      9  C   UNL     1       0.921   6.589 -10.287  0.00  0.00    +0.014 A 
ATOM     10  C   UNL     1       0.184   6.804 -11.444  0.00  0.00    +0.058 A 
ATOM     11 CL   UNL     1      -0.992   8.108 -11.568  0.00  0.00    -0.082 Cl
ATOM     12  C   UNL     1       0.595   6.169 -12.611  0.00  0.00    +0.013 A 
ATOM     13  C   UNL     1       1.818   5.514 -12.696  0.00  0.00    +0.019 A 
ATOM     14  C   UNL     1       5.167   5.871 -11.302  0.00  0.00    +0.172 A 
ATOM     15  N   UNL     1       6.113   6.069 -12.250  0.00  0.00    -0.131 NA
ATOM     16  N   UNL     1       5.729   5.379 -13.322  0.00  0.00    -0.133 NA
ENDROOT
BRANCH   6  17
ATOM     17  C   UNL     1       2.152   6.105  -7.983  0.00  0.00    +0.028 A 
ATOM     18  C   UNL     1       2.213   4.799  -7.511  0.00  0.00    +0.059 A 
ATOM     19 CL   UNL     1       2.667   3.504  -8.617  0.00  0.00    -0.082 Cl
ATOM     20  C   UNL     1       1.846   4.528  -6.207  0.00  0.00    +0.011 A 
ATOM     21  C   UNL     1       1.538   5.589  -5.372  0.00  0.00    +0.001 A 
ATOM     22  C   UNL     1       1.252   6.825  -5.938  0.00  0.00    +0.000 A 
ATOM     23  C   UNL     1       1.827   7.169  -7.153  0.00  0.00    +0.002 A 
ENDBRANCH   6  17
TORSDOF 1
ENDMDL
MODEL 5
REMARK VINA RESULT:      -7.7      2.527      4.704
REMARK  Name = 
REMARK  1 active torsions:
REMARK  status: ('A' for Active; 'I' for Inactive)
REMARK    1  A    between atoms: C_14  and  C_15
REMARK                            x       y       z     vdW  Elec       q    Type
REMARK                         _______ _______ _______ _____ _____    ______ ____
ROOT
ATOM      1  C   UNL     1      -0.243   4.198 -10.363  0.00  0.00    +0.074 C 
ATOM      2  C   UNL     1       0.849   5.195 -10.317  0.00  0.00    +0.147 A 
ATOM      3  N   UNL     1       1.340   5.726  -9.190  0.00  0.00    -0.279 N 
ATOM      4  C   UNL     1       0.683   5.555  -7.927  0.00  0.00    +0.068 A 
ATOM      5  C   UNL     1       1.124   6.090  -6.721  0.00  0.00    +0.034 A 
ATOM      6  C   UNL     1       2.446   6.636  -6.385  0.00  0.00    +0.079 C 
ATOM      7  N   UNL     1       3.405   6.760  -7.257  0.00  0.00    -0.262 NA
ATOM      8  C   UNL     1       3.329   7.249  -8.604  0.00  0.00    +0.191 C 
ATOM      9  C   UNL     1       0.254   6.310  -5.660  0.00  0.00    +0.014 A 
ATOM     10  C   UNL     1      -1.111   6.246  -5.908  0.00  0.00    +0.058 A 
ATOM     11 CL   UNL     1      -2.261   7.260  -5.043  0.00  0.00    -0.082 Cl
ATOM     12  C   UNL     1      -1.539   5.591  -7.058  0.00  0.00    +0.013 A 
ATOM     13  C   UNL     1      -0.649   5.197  -8.049  0.00  0.00    +0.019 A 
ATOM     14  C   UNL     1       2.490   6.379  -9.478  0.00  0.00    +0.172 A 
ATOM     15  N   UNL     1       2.392   6.667 -10.796  0.00  0.00    -0.131 NA
ATOM     16  N   UNL     1       1.519   5.805 -11.312  0.00  0.00    -0.133 NA
ENDROOT
BRANCH   6  17
ATOM     17  C   UNL     1       2.827   6.333  -5.000  0.00  0.00    +0.028 A 
ATOM     18  C   UNL     1       3.298   5.043  -4.787  0.00  0.00    +0.059 A 
ATOM     19 CL   UNL     1       2.843   3.764  -5.910  0.00  0.00    -0.082 Cl
ATOM     20  C   UNL     1       4.052   4.771  -3.661  0.00  0.00    +0.011 A 
ATOM     21  C   UNL     1       4.414   5.822  -2.836  0.00  0.00    +0.001 A 
ATOM     22  C   UNL     1       3.728   7.025  -2.946  0.00  0.00    +0.000 A 
ATOM     23  C   UNL     1       3.173   7.387  -4.165  0.00  0.00    +0.002 A 
ENDBRANCH   6  17
TORSDOF 1
ENDMDL
MODEL 6
REMARK VINA RESULT:      -7.6      4.629      8.840
REMARK  Name = 
REMARK  1 active torsions:
REMARK  status: ('A' for Active; 'I' for Inactive)
REMARK    1  A    between atoms: C_14  and  C_15
REMARK                            x       y       z     vdW  Elec       q    Type
REMARK                         _______ _______ _______ _____ _____    ______ ____
ROOT
ATOM      1  C   UNL     1       1.689   7.630  -6.917  0.00  0.00    +0.074 C 
ATOM      2  C   UNL     1       2.866   6.736  -6.951  0.00  0.00    +0.147 A 
ATOM      3  N   UNL     1       3.457   6.308  -8.073  0.00  0.00    -0.279 N 
ATOM      4  C   UNL     1       2.852   6.485  -9.360  0.00  0.00    +0.068 A 
ATOM      5  C   UNL     1       3.397   6.054 -10.564  0.00  0.00    +0.034 A 
ATOM      6  C   UNL     1       4.778   5.642 -10.854  0.00  0.00    +0.079 C 
ATOM      7  N   UNL     1       5.699   5.556  -9.939  0.00  0.00    -0.262 NA
ATOM      8  C   UNL     1       5.601   4.995  -8.622  0.00  0.00    +0.191 C 
ATOM      9  C   UNL     1       2.603   5.814 -11.680  0.00  0.00    +0.014 A 
ATOM     10  C   UNL     1       1.228   5.747 -11.503  0.00  0.00    +0.058 A 
ATOM     11 CL   UNL     1       0.217   4.683 -12.475  0.00  0.00    -0.082 Cl
ATOM     12  C   UNL     1       0.687   6.302 -10.348  0.00  0.00    +0.013 A 
ATOM     13  C   UNL     1       1.488   6.720  -9.293  0.00  0.00    +0.019 A 
ATOM     14  C   UNL     1       4.645   5.743  -7.755  0.00  0.00    +0.172 A 
ATOM     15  N   UNL     1       4.508   5.380  -6.459  0.00  0.00    -0.131 NA
ATOM     16  N   UNL     1       3.537   6.136  -5.951  0.00  0.00    -0.133 NA
ENDROOT
BRANCH   6  17
ATOM     17  C   UNL     1       5.198   6.048 -12.201  0.00  0.00    +0.028 A 
ATOM     18  C   UNL     1       6.060   7.136 -12.246  0.00  0.00    +0.059 A 
ATOM     19 CL   UNL     1       6.082   8.275 -10.901  0.00  0.00    -0.082 Cl
ATOM     20  C   UNL     1       6.831   7.349 -13.374  0.00  0.00    +0.011 A 
ATOM     21  C   UNL     1       6.804   6.400 -14.382  0.00  0.00    +0.001 A 
ATOM     22  C   UNL     1       5.764   5.479 -14.407  0.00  0.00    +0.000 A 
ATOM     23  C   UNL     1       5.156   5.103 -13.217  0.00  0.00    +0.002 A 
ENDBRANCH   6  17
TORSDOF 1
ENDMDL
MODEL 7
REMARK VINA RESULT:      -7.6      3.887      5.273
REMARK  Name = 
REMARK  1 active torsions:
REMARK  status: ('A' for Active; 'I' for Inactive)
REMARK    1  A    between atoms: C_14  and  C_15
REMARK                            x       y       z     vdW  Elec       q    Type
REMARK                         _______ _______ _______ _____ _____    ______ ____
ROOT
ATOM      1  C   UNL     1       2.055   6.763 -12.756  0.00  0.00    +0.074 C 
ATOM      2  C   UNL     1       1.543   5.720 -11.841  0.00  0.00    +0.147 A 
ATOM      3  N   UNL     1       2.064   5.449 -10.638  0.00  0.00    -0.279 N 
ATOM      4  C   UNL     1       3.327   5.985 -10.225  0.00  0.00    +0.068 A 
ATOM      5  C   UNL     1       3.937   5.734  -9.000  0.00  0.00    +0.034 A 
ATOM      6  C   UNL     1       3.347   5.179  -7.775  0.00  0.00    +0.079 C 
ATOM      7  N   UNL     1       2.117   4.759  -7.707  0.00  0.00    -0.262 NA
ATOM      8  C   UNL     1       1.394   3.957  -8.652  0.00  0.00    +0.191 C 
ATOM      9  C   UNL     1       5.311   5.862  -8.830  0.00  0.00    +0.014 A 
ATOM     10  C   UNL     1       6.103   5.978  -9.965  0.00  0.00    +0.058 A 
ATOM     11 CL   UNL     1       7.733   5.315 -10.032  0.00  0.00    -0.082 Cl
ATOM     12  C   UNL     1       5.493   6.358 -11.156  0.00  0.00    +0.013 A 
ATOM     13  C   UNL     1       4.110   6.413 -11.283  0.00  0.00    +0.019 A 
ATOM     14  C   UNL     1       1.208   4.648  -9.960  0.00  0.00    +0.172 A 
ATOM     15  N   UNL     1       0.473   4.049 -10.924  0.00  0.00    -0.131 NA
ATOM     16  N   UNL     1       0.550   4.826 -12.003  0.00  0.00    -0.133 NA
ENDROOT
BRANCH   6  17
ATOM     17  C   UNL     1       3.921   5.786  -6.567  0.00  0.00    +0.028 A 
ATOM     18  C   UNL     1       3.281   6.936  -6.124  0.00  0.00    +0.059 A 
ATOM     19 CL   UNL     1       2.338   7.891  -7.266  0.00  0.00    -0.082 Cl
ATOM     20  C   UNL     1       3.454   7.352  -4.817  0.00  0.00    +0.011 A 
ATOM     21  C   UNL     1       4.172   6.541  -3.954  0.00  0.00    +0.001 A 
ATOM     22  C   UNL     1       4.987   5.551  -4.489  0.00  0.00    +0.000 A 
ATOM     23  C   UNL     1       4.656   4.979  -5.709  0.00  0.00    +0.002 A 
ENDBRANCH   6  17
TORSDOF 1
ENDMDL
MODEL 8
REMARK VINA RESULT:      -7.2      4.283      8.250
REMARK  Name = 
REMARK  1 active torsions:
REMARK  status: ('A' for Active; 'I' for Inactive)
REMARK    1  A    between atoms: C_14  and  C_15
REMARK                            x       y       z     vdW  Elec       q    Type
REMARK                         _______ _______ _______ _____ _____    ______ ____
ROOT
ATOM      1  C   UNL     1      -0.674   5.759  -7.699  0.00  0.00    +0.074 C 
ATOM      2  C   UNL     1       0.570   4.997  -7.455  0.00  0.00    +0.147 A 
ATOM      3  N   UNL     1       1.596   4.932  -8.312  0.00  0.00    -0.279 N 
ATOM      4  C   UNL     1       1.483   5.402  -9.661  0.00  0.00    +0.068 A 
ATOM      5  C   UNL     1       2.498   5.351 -10.611  0.00  0.00    +0.034 A 
ATOM      6  C   UNL     1       3.938   5.138 -10.409  0.00  0.00    +0.079 C 
ATOM      7  N   UNL     1       4.460   4.879  -9.245  0.00  0.00    -0.262 NA
ATOM      8  C   UNL     1       3.985   3.979  -8.233  0.00  0.00    +0.191 C 
ATOM      9  C   UNL     1       2.223   5.361 -11.974  0.00  0.00    +0.014 A 
ATOM     10  C   UNL     1       0.912   5.146 -12.379  0.00  0.00    +0.058 A 
ATOM     11 CL   UNL     1       0.529   4.309 -13.879  0.00  0.00    -0.082 Cl
ATOM     12  C   UNL     1      -0.102   5.329 -11.444  0.00  0.00    +0.013 A 
ATOM     13  C   UNL     1       0.172   5.508 -10.094  0.00  0.00    +0.019 A 
ATOM     14  C   UNL     1       2.664   4.393  -7.678  0.00  0.00    +0.172 A 
ATOM     15  N   UNL     1       2.127   3.687  -6.657  0.00  0.00    -0.131 NA
ATOM     16  N   UNL     1       0.922   4.204  -6.427  0.00  0.00    -0.133 NA
ENDROOT
BRANCH   6  17
ATOM     17  C   UNL     1       4.745   5.920 -11.353  0.00  0.00    +0.028 A 
ATOM     18  C   UNL     1       5.041   7.214 -10.944  0.00  0.00    +0.059 A 
ATOM     19 CL   UNL     1       4.000   8.003  -9.760  0.00  0.00    -0.082 Cl
ATOM     20  C   UNL     1       6.099   7.887 -11.524  0.00  0.00    +0.011 A 
ATOM     21  C   UNL     1       6.908   7.204 -12.417  0.00  0.00    +0.001 A 
ATOM     22  C   UNL     1       6.439   6.022 -12.975  0.00  0.00    +0.000 A 
ATOM     23  C   UNL     1       5.543   5.238 -12.261  0.00  0.00    +0.002 A 
ENDBRANCH   6  17
TORSDOF 1
ENDMDL
MODEL 9
REMARK VINA RESULT:      -6.9      4.520      7.487
REMARK  Name = 
REMARK  1 active torsions:
REMARK  status: ('A' for Active; 'I' for Inactive)
REMARK    1  A    between atoms: C_14  and  C_15
REMARK                            x       y       z     vdW  Elec       q    Type
REMARK                         _______ _______ _______ _____ _____    ______ ____
ROOT
ATOM      1  C   UNL     1       4.885   4.858  -5.806  0.00  0.00    +0.074 C 
ATOM      2  C   UNL     1       3.825   5.829  -6.155  0.00  0.00    +0.147 A 
ATOM      3  N   UNL     1       3.431   6.098  -7.406  0.00  0.00    -0.279 N 
ATOM      4  C   UNL     1       4.172   5.644  -8.545  0.00  0.00    +0.068 A 
ATOM      5  C   UNL     1       3.833   5.900  -9.870  0.00  0.00    +0.034 A 
ATOM      6  C   UNL     1       2.553   6.369 -10.418  0.00  0.00    +0.079 C 
ATOM      7  N   UNL     1       1.538   6.693  -9.672  0.00  0.00    -0.262 NA
ATOM      8  C   UNL     1       1.529   7.470  -8.465  0.00  0.00    +0.191 C 
ATOM      9  C   UNL     1       4.783   5.869 -10.884  0.00  0.00    +0.014 A 
ATOM     10  C   UNL     1       6.125   5.849 -10.525  0.00  0.00    +0.058 A 
ATOM     11 CL   UNL     1       7.360   6.634 -11.504  0.00  0.00    -0.082 Cl
ATOM     12  C   UNL     1       6.451   5.464  -9.229  0.00  0.00    +0.013 A 
ATOM     13  C   UNL     1       5.482   5.310  -8.246  0.00  0.00    +0.019 A 
ATOM     14  C   UNL     1       2.280   6.810  -7.359  0.00  0.00    +0.172 A 
ATOM     15  N   UNL     1       2.290   7.385  -6.134  0.00  0.00    -0.131 NA
ATOM     16  N   UNL     1       3.102   6.652  -5.375  0.00  0.00    -0.133 NA
ENDROOT
BRANCH   6  17
ATOM     17  C   UNL     1       2.265   5.767 -11.726  0.00  0.00    +0.028 A 
ATOM     18  C   UNL     1       1.168   4.916 -11.755  0.00  0.00    +0.059 A 
ATOM     19 CL   UNL     1       0.631   4.152 -10.260  0.00  0.00    -0.082 Cl
ATOM     20  C   UNL     1       0.562   4.625 -12.963  0.00  0.00    +0.011 A 
ATOM     21  C   UNL     1       0.999   5.286 -14.098  0.00  0.00    +0.001 A 
ATOM     22  C   UNL     1       2.234   5.923 -14.069  0.00  0.00    +0.000 A 
ATOM     23  C   UNL     1       2.718   6.418 -12.866  0.00  0.00    +0.002 A 
ENDBRANCH   6  17
TORSDOF 1
ENDMDL
