MODEL 1
REMARK VINA RESULT:      -7.2      0.000      0.000
REMARK  Name = 
REMARK  6 active torsions:
REMARK  status: ('A' for Active; 'I' for Inactive)
REMARK    1  A    between atoms: C_2  and  O_3
REMARK    2  A    between atoms: O_3  and  C_4
REMARK    3  A    between atoms: C_4  and  C_6
REMARK    4  A    between atoms: C_12  and  C_13
REMARK    5  A    between atoms: C_13  and  O_15
REMARK    6  A    between atoms: C_17  and  C_18
REMARK                            x       y       z     vdW  Elec       q    Type
REMARK                         _______ _______ _______ _____ _____    ______ ____
ROOT
ATOM      1  C   UNL     1       2.077   5.690  -5.913  0.00  0.00    +0.073 C 
ATOM      2  C   UNL     1       1.915   5.474  -4.295  0.00  0.00    +0.082 C 
ATOM      3  C   UNL     1       2.963   6.652  -3.822  0.00  0.00    +0.073 C 
ATOM      4  C   UNL     1       3.869   6.992  -4.705  0.00  0.00    +0.051 C 
ATOM      5  C   UNL     1       5.237   7.447  -4.294  0.00  0.00    +0.049 C 
ATOM      6  N   UNL     1       3.141   7.682  -5.738  0.00  0.00    -0.221 NA
ATOM      7  C   UNL     1       2.137   6.887  -6.359  0.00  0.00    +0.051 C 
ATOM      8  C   UNL     1       1.851   7.071  -7.821  0.00  0.00    +0.049 C 
ENDROOT
BRANCH   2   9
ATOM      9  C   UNL     1       0.625   6.479  -4.118  0.00  0.00    -0.002 A 
ATOM     10  C   UNL     1       0.011   6.218  -2.895  0.00  0.00    +0.065 A 
ATOM     11 CL   UNL     1       0.323   4.781  -1.926  0.00  0.00    -0.082 Cl
ATOM     12  C   UNL     1      -1.177   6.906  -2.666  0.00  0.00    +0.068 A 
ATOM     13 CL   UNL     1      -1.879   6.919  -1.056  0.00  0.00    -0.081 Cl
ATOM     14  C   UNL     1      -1.820   7.540  -3.723  0.00  0.00    +0.012 A 
ATOM     15  C   UNL     1      -1.324   7.393  -5.012  0.00  0.00    +0.001 A 
ATOM     16  C   UNL     1      -0.260   6.514  -5.169  0.00  0.00    -0.003 A 
ENDBRANCH   2   9
BRANCH   1  17
ATOM     17  C   UNL     1       2.066   4.450  -6.686  0.00  0.00    +0.339 C 
ATOM     18  O   UNL     1       1.403   3.493  -6.180  0.00  0.00    -0.245 OA
BRANCH  17  19
ATOM     19  O   UNL     1       2.103   4.438  -8.086  0.00  0.00    -0.446 OA
BRANCH  19  21
ATOM     20  C   UNL     1       4.317   4.655  -8.776  0.00  0.00    +0.051 C 
ATOM     21  C   UNL     1       3.168   3.826  -8.812  0.00  0.00    +0.209 C 
ENDBRANCH  19  21
ENDBRANCH  17  19
ENDBRANCH   1  17
BRANCH   3  22
ATOM     22  C   UNL     1       3.398   6.487  -2.422  0.00  0.00    +0.339 C 
ATOM     23  O   UNL     1       3.454   5.275  -2.044  0.00  0.00    -0.245 OA
BRANCH  22  24
ATOM     24  O   UNL     1       2.907   7.335  -1.422  0.00  0.00    -0.442 OA
ATOM     25  C   UNL     1       3.599   8.513  -1.012  0.00  0.00    +0.256 C 
ENDBRANCH  22  24
ENDBRANCH   3  22
TORSDOF 6
ENDMDL
MODEL 2
REMARK VINA RESULT:      -7.1      3.160      5.695
REMARK  Name = 
REMARK  6 active torsions:
REMARK  status: ('A' for Active; 'I' for Inactive)
REMARK    1  A    between atoms: C_2  and  O_3
REMARK    2  A    between atoms: O_3  and  C_4
REMARK    3  A    between atoms: C_4  and  C_6
REMARK    4  A    between atoms: C_12  and  C_13
REMARK    5  A    between atoms: C_13  and  O_15
REMARK    6  A    between atoms: C_17  and  C_18
REMARK                            x       y       z     vdW  Elec       q    Type
REMARK                         _______ _______ _______ _____ _____    ______ ____
ROOT
ATOM      1  C   UNL     1      -1.019   6.700  -3.436  0.00  0.00    +0.073 C 
ATOM      2  C   UNL     1       0.452   6.842  -4.150  0.00  0.00    +0.082 C 
ATOM      3  C   UNL     1       1.179   5.582  -3.380  0.00  0.00    +0.073 C 
ATOM      4  C   UNL     1       0.647   5.237  -2.233  0.00  0.00    +0.051 C 
ATOM      5  C   UNL     1       1.478   4.682  -1.115  0.00  0.00    +0.049 C 
ATOM      6  N   UNL     1      -0.619   4.643  -2.575  0.00  0.00    -0.221 NA
ATOM      7  C   UNL     1      -1.496   5.526  -3.266  0.00  0.00    +0.051 C 
ATOM      8  C   UNL     1      -2.975   5.434  -3.024  0.00  0.00    +0.049 C 
ENDROOT
BRANCH   2   9
ATOM      9  C   UNL     1       0.097   5.905  -5.455  0.00  0.00    -0.002 A 
ATOM     10  C   UNL     1       1.073   6.100  -6.431  0.00  0.00    +0.065 A 
ATOM     11 CL   UNL     1       2.227   7.430  -6.414  0.00  0.00    -0.082 Cl
ATOM     12  C   UNL     1       0.832   5.469  -7.648  0.00  0.00    +0.068 A 
ATOM     13 CL   UNL     1       2.114   5.364  -8.843  0.00  0.00    -0.081 Cl
ATOM     14  C   UNL     1      -0.435   4.966  -7.924  0.00  0.00    +0.012 A 
ATOM     15  C   UNL     1      -1.470   5.189  -7.025  0.00  0.00    +0.001 A 
ATOM     16  C   UNL     1      -1.183   6.013  -5.943  0.00  0.00    -0.003 A 
ENDBRANCH   2   9
BRANCH   1  17
ATOM     17  C   UNL     1      -1.660   7.977  -3.129  0.00  0.00    +0.339 C 
ATOM     18  O   UNL     1      -2.330   8.496  -4.073  0.00  0.00    -0.245 OA
BRANCH  17  19
ATOM     19  O   UNL     1      -2.145   8.284  -1.851  0.00  0.00    -0.446 OA
BRANCH  19  21
ATOM     20  C   UNL     1      -2.120   7.046   0.121  0.00  0.00    +0.051 C 
ATOM     21  C   UNL     1      -1.409   7.985  -0.667  0.00  0.00    +0.209 C 
ENDBRANCH  19  21
ENDBRANCH  17  19
ENDBRANCH   1  17
BRANCH   3  22
ATOM     22  C   UNL     1       2.651   5.650  -3.460  0.00  0.00    +0.339 C 
ATOM     23  O   UNL     1       3.110   6.835  -3.432  0.00  0.00    -0.245 OA
BRANCH  22  24
ATOM     24  O   UNL     1       3.351   4.829  -4.352  0.00  0.00    -0.442 OA
ATOM     25  C   UNL     1       4.730   5.035  -4.656  0.00  0.00    +0.256 C 
ENDBRANCH  22  24
ENDBRANCH   3  22
TORSDOF 6
ENDMDL
MODEL 3
REMARK VINA RESULT:      -7.0      5.245      8.832
REMARK  Name = 
REMARK  6 active torsions:
REMARK  status: ('A' for Active; 'I' for Inactive)
REMARK    1  A    between atoms: C_2  and  O_3
REMARK    2  A    between atoms: O_3  and  C_4
REMARK    3  A    between atoms: C_4  and  C_6
REMARK    4  A    between atoms: C_12  and  C_13
REMARK    5  A    between atoms: C_13  and  O_15
REMARK    6  A    between atoms: C_17  and  C_18
REMARK                            x       y       z     vdW  Elec       q    Type
REMARK                         _______ _______ _______ _____ _____    ______ ____
ROOT
ATOM      1  C   UNL     1       2.949   5.506  -9.537  0.00  0.00    +0.073 C 
ATOM      2  C   UNL     1       3.059   5.247 -11.153  0.00  0.00    +0.082 C 
ATOM      3  C   UNL     1       1.850   6.266 -11.609  0.00  0.00    +0.073 C 
ATOM      4  C   UNL     1       0.951   6.525 -10.692  0.00  0.00    +0.051 C 
ATOM      5  C   UNL     1      -0.481   6.790 -11.045  0.00  0.00    +0.049 C 
ATOM      6  N   UNL     1       1.635   7.342  -9.723  0.00  0.00    -0.221 NA
ATOM      7  C   UNL     1       2.759   6.703  -9.129  0.00  0.00    +0.051 C 
ATOM      8  C   UNL     1       3.089   6.979  -7.690  0.00  0.00    +0.049 C 
ENDROOT
BRANCH   2   9
ATOM      9  C   UNL     1       4.202   6.397 -11.431  0.00  0.00    -0.002 A 
ATOM     10  C   UNL     1       4.790   6.162 -12.672  0.00  0.00    +0.065 A 
ATOM     11 CL   UNL     1       4.620   4.657 -13.570  0.00  0.00    -0.082 Cl
ATOM     12  C   UNL     1       5.869   6.982 -12.985  0.00  0.00    +0.068 A 
ATOM     13 CL   UNL     1       6.492   7.014 -14.627  0.00  0.00    -0.081 Cl
ATOM     14  C   UNL     1       6.473   7.738 -11.986  0.00  0.00    +0.012 A 
ATOM     15  C   UNL     1       6.057   7.586 -10.669  0.00  0.00    +0.001 A 
ATOM     16  C   UNL     1       5.121   6.588 -10.427  0.00  0.00    -0.003 A 
ENDBRANCH   2   9
BRANCH   1  17
ATOM     17  C   UNL     1       3.154   4.308  -8.724  0.00  0.00    +0.339 C 
ATOM     18  O   UNL     1       4.319   4.163  -8.243  0.00  0.00    -0.245 OA
BRANCH  17  19
ATOM     19  O   UNL     1       2.139   3.757  -7.932  0.00  0.00    -0.446 OA
BRANCH  19  21
ATOM     20  C   UNL     1       1.090   4.373  -5.945  0.00  0.00    +0.051 C 
ATOM     21  C   UNL     1       2.219   3.726  -6.508  0.00  0.00    +0.209 C 
ENDBRANCH  19  21
ENDBRANCH  17  19
ENDBRANCH   1  17
BRANCH   3  22
ATOM     22  C   UNL     1       1.372   5.992 -12.978  0.00  0.00    +0.339 C 
ATOM     23  O   UNL     1       1.412   4.762 -13.296  0.00  0.00    -0.245 OA
BRANCH  22  24
ATOM     24  O   UNL     1       1.742   6.829 -14.039  0.00  0.00    -0.442 OA
ATOM     25  C   UNL     1       0.830   7.749 -14.637  0.00  0.00    +0.256 C 
ENDBRANCH  22  24
ENDBRANCH   3  22
TORSDOF 6
ENDMDL
MODEL 4
REMARK VINA RESULT:      -7.0      2.023      4.994
REMARK  Name = 
REMARK  6 active torsions:
REMARK  status: ('A' for Active; 'I' for Inactive)
REMARK    1  A    between atoms: C_2  and  O_3
REMARK    2  A    between atoms: O_3  and  C_4
REMARK    3  A    between atoms: C_4  and  C_6
REMARK    4  A    between atoms: C_12  and  C_13
REMARK    5  A    between atoms: C_13  and  O_15
REMARK    6  A    between atoms: C_17  and  C_18
REMARK                            x       y       z     vdW  Elec       q    Type
REMARK                         _______ _______ _______ _____ _____    ______ ____
ROOT
ATOM      1  C   UNL     1       2.996   6.293  -4.061  0.00  0.00    +0.073 C 
ATOM      2  C   UNL     1       1.529   6.683  -4.684  0.00  0.00    +0.082 C 
ATOM      3  C   UNL     1       1.376   5.384  -5.682  0.00  0.00    +0.073 C 
ATOM      4  C   UNL     1       2.498   4.807  -6.037  0.00  0.00    +0.051 C 
ATOM      5  C   UNL     1       2.657   4.152  -7.377  0.00  0.00    +0.049 C 
ATOM      6  N   UNL     1       2.980   4.167  -4.842  0.00  0.00    -0.221 NA
ATOM      7  C   UNL     1       3.221   5.069  -3.768  0.00  0.00    +0.051 C 
ATOM      8  C   UNL     1       4.360   4.806  -2.825  0.00  0.00    +0.049 C 
ENDROOT
BRANCH   2   9
ATOM      9  C   UNL     1       0.645   5.947  -3.508  0.00  0.00    -0.002 A 
ATOM     10  C   UNL     1      -0.660   6.435  -3.550  0.00  0.00    +0.065 A 
ATOM     11 CL   UNL     1      -1.140   7.882  -4.430  0.00  0.00    -0.082 Cl
ATOM     12  C   UNL     1      -1.492   5.997  -2.524  0.00  0.00    +0.068 A 
ATOM     13 CL   UNL     1      -3.224   6.270  -2.631  0.00  0.00    -0.081 Cl
ATOM     14  C   UNL     1      -0.941   5.385  -1.403  0.00  0.00    +0.012 A 
ATOM     15  C   UNL     1       0.440   5.312  -1.274  0.00  0.00    +0.001 A 
ATOM     16  C   UNL     1       1.188   5.967  -2.245  0.00  0.00    -0.003 A 
ENDBRANCH   2   9
BRANCH   1  17
ATOM     17  C   UNL     1       3.878   7.439  -3.846  0.00  0.00    +0.339 C 
ATOM     18  O   UNL     1       4.434   7.906  -4.886  0.00  0.00    -0.245 OA
BRANCH  17  19
ATOM     19  O   UNL     1       3.636   8.395  -2.852  0.00  0.00    -0.446 OA
BRANCH  19  21
ATOM     20  C   UNL     1       3.567   9.273  -0.695  0.00  0.00    +0.051 C 
ATOM     21  C   UNL     1       4.022   8.193  -1.493  0.00  0.00    +0.209 C 
ENDBRANCH  19  21
ENDBRANCH  17  19
ENDBRANCH   1  17
BRANCH   3  22
ATOM     22  C   UNL     1       0.355   5.597  -6.727  0.00  0.00    +0.339 C 
ATOM     23  O   UNL     1       0.202   6.816  -7.051  0.00  0.00    -0.245 OA
BRANCH  22  24
ATOM     24  O   UNL     1      -0.860   4.901  -6.683  0.00  0.00    -0.442 OA
ATOM     25  C   UNL     1      -2.121   5.566  -6.704  0.00  0.00    +0.256 C 
ENDBRANCH  22  24
ENDBRANCH   3  22
TORSDOF 6
ENDMDL
MODEL 5
REMARK VINA RESULT:      -6.9      2.030      5.119
REMARK  Name = 
REMARK  6 active torsions:
REMARK  status: ('A' for Active; 'I' for Inactive)
REMARK    1  A    between atoms: C_2  and  O_3
REMARK    2  A    between atoms: O_3  and  C_4
REMARK    3  A    between atoms: C_4  and  C_6
REMARK    4  A    between atoms: C_12  and  C_13
REMARK    5  A    between atoms: C_13  and  O_15
REMARK    6  A    between atoms: C_17  and  C_18
REMARK                            x       y       z     vdW  Elec       q    Type
REMARK                         _______ _______ _______ _____ _____    ______ ____
ROOT
ATOM      1  C   UNL     1       3.328   6.582  -3.643  0.00  0.00    +0.073 C 
ATOM      2  C   UNL     1       2.036   7.025  -4.551  0.00  0.00    +0.082 C 
ATOM      3  C   UNL     1       2.229   5.911  -5.746  0.00  0.00    +0.073 C 
ATOM      4  C   UNL     1       3.443   5.438  -5.888  0.00  0.00    +0.051 C 
ATOM      5  C   UNL     1       3.975   5.025  -7.228  0.00  0.00    +0.049 C 
ATOM      6  N   UNL     1       3.661   4.619  -4.724  0.00  0.00    -0.221 NA
ATOM      7  C   UNL     1       3.563   5.333  -3.497  0.00  0.00    +0.051 C 
ATOM      8  C   UNL     1       4.450   4.949  -2.348  0.00  0.00    +0.049 C 
ENDROOT
BRANCH   2   9
ATOM      9  C   UNL     1       0.945   6.074  -3.769  0.00  0.00    -0.002 A 
ATOM     10  C   UNL     1      -0.342   6.468  -4.131  0.00  0.00    +0.065 A 
ATOM     11 CL   UNL     1      -0.712   7.984  -4.946  0.00  0.00    -0.082 Cl
ATOM     12  C   UNL     1      -1.373   5.834  -3.445  0.00  0.00    +0.068 A 
ATOM     13 CL   UNL     1      -3.027   5.995  -4.017  0.00  0.00    -0.081 Cl
ATOM     14  C   UNL     1      -1.092   5.116  -2.289  0.00  0.00    +0.012 A 
ATOM     15  C   UNL     1       0.199   5.124  -1.776  0.00  0.00    +0.001 A 
ATOM     16  C   UNL     1       1.111   5.958  -2.410  0.00  0.00    -0.003 A 
ENDBRANCH   2   9
BRANCH   1  17
ATOM     17  C   UNL     1       4.043   7.701  -3.033  0.00  0.00    +0.339 C 
ATOM     18  O   UNL     1       4.935   8.241  -3.756  0.00  0.00    -0.245 OA
BRANCH  17  19
ATOM     19  O   UNL     1       3.431   8.581  -2.132  0.00  0.00    -0.446 OA
BRANCH  19  21
ATOM     20  C   UNL     1       3.210   7.654  -0.007  0.00  0.00    +0.051 C 
ATOM     21  C   UNL     1       3.835   8.674  -0.767  0.00  0.00    +0.209 C 
ENDBRANCH  19  21
ENDBRANCH  17  19
ENDBRANCH   1  17
BRANCH   3  22
ATOM     22  C   UNL     1       1.484   6.266  -6.969  0.00  0.00    +0.339 C 
ATOM     23  O   UNL     1       1.459   7.514  -7.208  0.00  0.00    -0.245 OA
BRANCH  22  24
ATOM     24  O   UNL     1       0.265   5.643  -7.263  0.00  0.00    -0.442 OA
ATOM     25  C   UNL     1      -0.165   5.401  -8.601  0.00  0.00    +0.256 C 
ENDBRANCH  22  24
ENDBRANCH   3  22
TORSDOF 6
ENDMDL
MODEL 6
REMARK VINA RESULT:      -6.5      4.553      7.440
REMARK  Name = 
REMARK  6 active torsions:
REMARK  status: ('A' for Active; 'I' for Inactive)
REMARK    1  A    between atoms: C_2  and  O_3
REMARK    2  A    between atoms: O_3  and  C_4
REMARK    3  A    between atoms: C_4  and  C_6
REMARK    4  A    between atoms: C_12  and  C_13
REMARK    5  A    between atoms: C_13  and  O_15
REMARK    6  A    between atoms: C_17  and  C_18
REMARK                            x       y       z     vdW  Elec       q    Type
REMARK                         _______ _______ _______ _____ _____    ______ ____
ROOT
ATOM      1  C   UNL     1       2.362   6.050  -8.260  0.00  0.00    +0.073 C 
ATOM      2  C   UNL     1       2.564   6.622  -9.784  0.00  0.00    +0.082 C 
ATOM      3  C   UNL     1       3.988   5.861 -10.105  0.00  0.00    +0.073 C 
ATOM      4  C   UNL     1       4.696   5.522  -9.057  0.00  0.00    +0.051 C 
ATOM      5  C   UNL     1       6.195   5.497  -9.094  0.00  0.00    +0.049 C 
ATOM      6  N   UNL     1       3.957   4.451  -8.440  0.00  0.00    -0.221 NA
ATOM      7  C   UNL     1       2.645   4.824  -8.034  0.00  0.00    +0.051 C 
ATOM      8  C   UNL     1       2.059   4.222  -6.789  0.00  0.00    +0.049 C 
ENDROOT
BRANCH   2   9
ATOM      9  C   UNL     1       1.703   5.433 -10.527  0.00  0.00    -0.002 A 
ATOM     10  C   UNL     1       1.541   5.762 -11.871  0.00  0.00    +0.065 A 
ATOM     11 CL   UNL     1       1.844   7.366 -12.533  0.00  0.00    -0.082 Cl
ATOM     12  C   UNL     1       0.717   4.909 -12.598  0.00  0.00    +0.068 A 
ATOM     13 CL   UNL     1       0.682   5.016 -14.351  0.00  0.00    -0.081 Cl
ATOM     14  C   UNL     1      -0.104   4.008 -11.929  0.00  0.00    +0.012 A 
ATOM     15  C   UNL     1      -0.168   4.042 -10.541  0.00  0.00    +0.001 A 
ATOM     16  C   UNL     1       0.527   5.070  -9.915  0.00  0.00    -0.003 A 
ENDBRANCH   2   9
BRANCH   1  17
ATOM     17  C   UNL     1       1.802   7.024  -7.326  0.00  0.00    +0.339 C 
ATOM     18  O   UNL     1       2.077   8.239  -7.568  0.00  0.00    -0.245 OA
BRANCH  17  19
ATOM     19  O   UNL     1       0.564   6.836  -6.698  0.00  0.00    -0.446 OA
BRANCH  19  21
ATOM     20  C   UNL     1      -0.985   7.165  -4.991  0.00  0.00    +0.051 C 
ATOM     21  C   UNL     1       0.391   7.008  -5.293  0.00  0.00    +0.209 C 
ENDBRANCH  19  21
ENDBRANCH  17  19
ENDBRANCH   1  17
BRANCH   3  22
ATOM     22  C   UNL     1       4.701   6.463 -11.248  0.00  0.00    +0.339 C 
ATOM     23  O   UNL     1       5.333   5.620 -11.958  0.00  0.00    -0.245 OA
BRANCH  22  24
ATOM     24  O   UNL     1       5.407   7.662 -11.091  0.00  0.00    -0.442 OA
ATOM     25  C   UNL     1       6.609   7.939 -11.808  0.00  0.00    +0.256 C 
ENDBRANCH  22  24
ENDBRANCH   3  22
TORSDOF 6
ENDMDL
MODEL 7
REMARK VINA RESULT:      -6.5      2.576      4.488
REMARK  Name = 
REMARK  6 active torsions:
REMARK  status: ('A' for Active; 'I' for Inactive)
REMARK    1  A    between atoms: C_2  and  O_3
REMARK    2  A    between atoms: O_3  and  C_4
REMARK    3  A    between atoms: C_4  and  C_6
REMARK    4  A    between atoms: C_12  and  C_13
REMARK    5  A    between atoms: C_13  and  O_15
REMARK    6  A    between atoms: C_17  and  C_18
REMARK                            x       y       z     vdW  Elec       q    Type
REMARK                         _______ _______ _______ _____ _____    ______ ____
ROOT
ATOM      1  C   UNL     1       2.206   6.082  -7.219  0.00  0.00    +0.073 C 
ATOM      2  C   UNL     1       1.986   6.773  -5.748  0.00  0.00    +0.082 C 
ATOM      3  C   UNL     1       0.600   5.979  -5.350  0.00  0.00    +0.073 C 
ATOM      4  C   UNL     1      -0.098   5.519  -6.359  0.00  0.00    +0.051 C 
ATOM      5  C   UNL     1      -1.594   5.431  -6.307  0.00  0.00    +0.049 C 
ATOM      6  N   UNL     1       0.686   4.434  -6.889  0.00  0.00    -0.221 NA
ATOM      7  C   UNL     1       1.978   4.829  -7.337  0.00  0.00    +0.051 C 
ATOM      8  C   UNL     1       2.584   4.149  -8.530  0.00  0.00    +0.049 C 
ENDROOT
BRANCH   2   9
ATOM      9  C   UNL     1       2.904   5.692  -4.913  0.00  0.00    -0.002 A 
ATOM     10  C   UNL     1       3.062   6.146  -3.605  0.00  0.00    +0.065 A 
ATOM     11 CL   UNL     1       2.693   7.787  -3.083  0.00  0.00    -0.082 Cl
ATOM     12  C   UNL     1       3.928   5.396  -2.816  0.00  0.00    +0.068 A 
ATOM     13 CL   UNL     1       3.971   5.659  -1.079  0.00  0.00    -0.081 Cl
ATOM     14  C   UNL     1       4.782   4.476  -3.412  0.00  0.00    +0.012 A 
ATOM     15  C   UNL     1       4.833   4.390  -4.798  0.00  0.00    +0.001 A 
ATOM     16  C   UNL     1       4.090   5.327  -5.504  0.00  0.00    -0.003 A 
ENDBRANCH   2   9
BRANCH   1  17
ATOM     17  C   UNL     1       2.717   6.995  -8.238  0.00  0.00    +0.339 C 
ATOM     18  O   UNL     1       2.305   8.193  -8.158  0.00  0.00    -0.245 OA
BRANCH  17  19
ATOM     19  O   UNL     1       4.001   6.871  -8.782  0.00  0.00    -0.446 OA
BRANCH  19  21
ATOM     20  C   UNL     1       5.315   6.030 -10.511  0.00  0.00    +0.051 C 
ATOM     21  C   UNL     1       4.236   6.890 -10.189  0.00  0.00    +0.209 C 
ENDBRANCH  19  21
ENDBRANCH  17  19
ENDBRANCH   1  17
BRANCH   3  22
ATOM     22  C   UNL     1      -0.134   6.645  -4.257  0.00  0.00    +0.339 C 
ATOM     23  O   UNL     1      -0.651   5.837  -3.422  0.00  0.00    -0.245 OA
BRANCH  22  24
ATOM     24  O   UNL     1      -0.967   7.739  -4.525  0.00  0.00    -0.442 OA
ATOM     25  C   UNL     1      -2.109   8.041  -3.726  0.00  0.00    +0.256 C 
ENDBRANCH  22  24
ENDBRANCH   3  22
TORSDOF 6
ENDMDL
MODEL 8
REMARK VINA RESULT:      -6.4      5.354      8.204
REMARK  Name = 
REMARK  6 active torsions:
REMARK  status: ('A' for Active; 'I' for Inactive)
REMARK    1  A    between atoms: C_2  and  O_3
REMARK    2  A    between atoms: O_3  and  C_4
REMARK    3  A    between atoms: C_4  and  C_6
REMARK    4  A    between atoms: C_12  and  C_13
REMARK    5  A    between atoms: C_13  and  O_15
REMARK    6  A    between atoms: C_17  and  C_18
REMARK                            x       y       z     vdW  Elec       q    Type
REMARK                         _______ _______ _______ _____ _____    ______ ____
ROOT
ATOM      1  C   UNL     1       5.500   6.549 -11.851  0.00  0.00    +0.073 C 
ATOM      2  C   UNL     1       4.067   6.838 -11.107  0.00  0.00    +0.082 C 
ATOM      3  C   UNL     1       3.205   5.646 -11.846  0.00  0.00    +0.073 C 
ATOM      4  C   UNL     1       3.675   5.240 -12.999  0.00  0.00    +0.051 C 
ATOM      5  C   UNL     1       2.769   4.756 -14.092  0.00  0.00    +0.049 C 
ATOM      6  N   UNL     1       4.886   4.531 -12.678  0.00  0.00    -0.221 NA
ATOM      7  C   UNL     1       5.859   5.333 -12.018  0.00  0.00    +0.051 C 
ATOM      8  C   UNL     1       7.316   5.097 -12.290  0.00  0.00    +0.049 C 
ENDROOT
BRANCH   2   9
ATOM      9  C   UNL     1       4.360   5.885  -9.798  0.00  0.00    -0.002 A 
ATOM     10  C   UNL     1       3.468   6.222  -8.783  0.00  0.00    +0.065 A 
ATOM     11 CL   UNL     1       2.496   7.691  -8.776  0.00  0.00    -0.082 Cl
ATOM     12  C   UNL     1       3.684   5.585  -7.565  0.00  0.00    +0.068 A 
ATOM     13 CL   UNL     1       2.459   5.669  -6.308  0.00  0.00    -0.081 Cl
ATOM     14  C   UNL     1       4.886   4.925  -7.336  0.00  0.00    +0.012 A 
ATOM     15  C   UNL     1       5.896   4.996  -8.288  0.00  0.00    +0.001 A 
ATOM     16  C   UNL     1       5.666   5.831  -9.373  0.00  0.00    -0.003 A 
ENDBRANCH   2   9
BRANCH   1  17
ATOM     17  C   UNL     1       6.252   7.755 -12.188  0.00  0.00    +0.339 C 
ATOM     18  O   UNL     1       6.938   8.256 -11.245  0.00  0.00    -0.245 OA
BRANCH  17  19
ATOM     19  O   UNL     1       6.795   7.970 -13.461  0.00  0.00    -0.446 OA
BRANCH  19  21
ATOM     20  C   UNL     1       7.002   6.845 -15.490  0.00  0.00    +0.051 C 
ATOM     21  C   UNL     1       6.119   7.571 -14.652  0.00  0.00    +0.209 C 
ENDBRANCH  19  21
ENDBRANCH  17  19
ENDBRANCH   1  17
BRANCH   3  22
ATOM     22  C   UNL     1       1.749   5.855 -11.734  0.00  0.00    +0.339 C 
ATOM     23  O   UNL     1       1.392   7.063 -11.901  0.00  0.00    -0.245 OA
BRANCH  22  24
ATOM     24  O   UNL     1       1.016   5.219 -10.724  0.00  0.00    -0.442 OA
ATOM     25  C   UNL     1      -0.083   4.355 -11.009  0.00  0.00    +0.256 C 
ENDBRANCH  22  24
ENDBRANCH   3  22
TORSDOF 6
ENDMDL
MODEL 9
REMARK VINA RESULT:      -6.3      3.940      7.771
REMARK  Name = 
REMARK  6 active torsions:
REMARK  status: ('A' for Active; 'I' for Inactive)
REMARK    1  A    between atoms: C_2  and  O_3
REMARK    2  A    between atoms: O_3  and  C_4
REMARK    3  A    between atoms: C_4  and  C_6
REMARK    4  A    between atoms: C_12  and  C_13
REMARK    5  A    between atoms: C_13  and  O_15
REMARK    6  A    between atoms: C_17  and  C_18
REMARK                            x       y       z     vdW  Elec       q    Type
REMARK                         _______ _______ _______ _____ _____    ______ ____
ROOT
ATOM      1  C   UNL     1      -0.244   7.490   1.304  0.00  0.00    +0.073 C 
ATOM      2  C   UNL     1       0.581   6.549   0.243  0.00  0.00    +0.082 C 
ATOM      3  C   UNL     1      -0.409   6.779  -1.051  0.00  0.00    +0.073 C 
ATOM      4  C   UNL     1      -1.638   7.135  -0.768  0.00  0.00    +0.051 C 
ATOM      5  C   UNL     1      -2.795   6.723  -1.628  0.00  0.00    +0.049 C 
ATOM      6  N   UNL     1      -1.529   8.483  -0.275  0.00  0.00    -0.221 NA
ATOM      7  C   UNL     1      -0.713   8.603   0.885  0.00  0.00    +0.051 C 
ATOM      8  C   UNL     1      -1.069   9.616   1.934  0.00  0.00    +0.049 C 
ENDROOT
BRANCH   2   9
ATOM      9  C   UNL     1       1.607   7.729  -0.268  0.00  0.00    -0.002 A 
ATOM     10  C   UNL     1       2.673   7.141  -0.945  0.00  0.00    +0.065 A 
ATOM     11 CL   UNL     1       3.049   5.422  -0.882  0.00  0.00    -0.082 Cl
ATOM     12  C   UNL     1       3.691   8.011  -1.322  0.00  0.00    +0.068 A 
ATOM     13 CL   UNL     1       4.926   7.471  -2.449  0.00  0.00    -0.081 Cl
ATOM     14  C   UNL     1       3.748   9.286  -0.771  0.00  0.00    +0.012 A 
ATOM     15  C   UNL     1       2.847   9.640   0.227  0.00  0.00    +0.001 A 
ATOM     16  C   UNL     1       2.007   8.633   0.687  0.00  0.00    -0.003 A 
ENDBRANCH   2   9
BRANCH   1  17
ATOM     17  C   UNL     1      -0.290   6.958   2.665  0.00  0.00    +0.339 C 
ATOM     18  O   UNL     1       0.777   7.086   3.340  0.00  0.00    -0.245 OA
BRANCH  17  19
ATOM     19  O   UNL     1      -1.458   6.974   3.437  0.00  0.00    -0.446 OA
BRANCH  19  21
ATOM     20  C   UNL     1      -3.747   7.195   3.073  0.00  0.00    +0.051 C 
ATOM     21  C   UNL     1      -2.648   6.302   3.029  0.00  0.00    +0.209 C 
ENDBRANCH  19  21
ENDBRANCH  17  19
ENDBRANCH   1  17
BRANCH   3  22
ATOM     22  C   UNL     1      -0.216   5.752  -2.094  0.00  0.00    +0.339 C 
ATOM     23  O   UNL     1       0.033   4.595  -1.632  0.00  0.00    -0.245 OA
BRANCH  22  24
ATOM     24  O   UNL     1       0.532   6.040  -3.242  0.00  0.00    -0.442 OA
ATOM     25  C   UNL     1      -0.059   6.582  -4.422  0.00  0.00    +0.256 C 
ENDBRANCH  22  24
ENDBRANCH   3  22
TORSDOF 6
ENDMDL
