MODEL 1
REMARK VINA RESULT:      -5.9      0.000      0.000
REMARK  Name = 
REMARK  16 active torsions:
REMARK  status: ('A' for Active; 'I' for Inactive)
REMARK    1  A    between atoms: C_2  and  C_4
REMARK    2  A    between atoms: C_4  and  N_5
REMARK    3  A    between atoms: N_5  and  C_6
REMARK    4  A    between atoms: N_5  and  C_17
REMARK    5  A    between atoms: C_6  and  C_7
REMARK    6  A    between atoms: C_7  and  N_8
REMARK    7  A    between atoms: N_8  and  C_9
REMARK    8  A    between atoms: N_8  and  C_13
REMARK    9  A    between atoms: C_9  and  C_10
REMARK   10  A    between atoms: C_13  and  C_14
REMARK   11  A    between atoms: C_17  and  C_18
REMARK   12  A    between atoms: C_18  and  N_19
REMARK   13  A    between atoms: N_19  and  C_20
REMARK   14  A    between atoms: N_19  and  C_24
REMARK   15  A    between atoms: C_20  and  C_21
REMARK   16  A    between atoms: C_24  and  C_25
REMARK                            x       y       z     vdW  Elec       q    Type
REMARK                         _______ _______ _______ _____ _____    ______ ____
ROOT
ATOM      1  N   UNL     1      -0.444   5.469  -4.763  0.00  0.00    -0.261 NA
ENDROOT
BRANCH   1   2
ATOM      2  C   UNL     1       0.893   5.204  -4.237  0.00  0.00    +0.090 C 
BRANCH   2   3
ATOM      3  C   UNL     1       1.489   6.547  -3.915  0.00  0.00    +0.091 C 
BRANCH   3   4
ATOM      4  N   UNL     1       2.702   6.505  -3.182  0.00  0.00    -0.252 NA
BRANCH   4   5
ATOM      5  C   UNL     1       3.858   7.029  -3.830  0.00  0.00    +0.188 C 
BRANCH   5   6
ATOM      6  C   UNL     1       4.470   5.913  -4.618  0.00  0.00    +0.381 C 
ATOM      7  O   UNL     1       5.098   4.839  -3.976  0.00  0.00    -0.244 OA
ATOM      8  O   UNL     1       4.629   5.962  -5.861  0.00  0.00    -0.244 OA
ENDBRANCH   5   6
ENDBRANCH   4   5
BRANCH   4   9
ATOM      9  C   UNL     1       2.607   6.745  -1.781  0.00  0.00    +0.188 C 
BRANCH   9  10
ATOM     10  C   UNL     1       2.932   5.458  -1.092  0.00  0.00    +0.381 C 
ATOM     11  O   UNL     1       1.947   4.513  -0.793  0.00  0.00    -0.244 OA
ATOM     12  O   UNL     1       4.026   5.309  -0.467  0.00  0.00    -0.244 OA
ENDBRANCH   9  10
ENDBRANCH   4   9
ENDBRANCH   3   4
ENDBRANCH   2   3
ENDBRANCH   1   2
BRANCH   1  13
ATOM     13  C   UNL     1      -0.406   6.253  -5.973  0.00  0.00    +0.090 C 
BRANCH  13  14
ATOM     14  C   UNL     1      -0.481   5.363  -7.184  0.00  0.00    +0.091 C 
BRANCH  14  15
ATOM     15  N   UNL     1       0.288   5.893  -8.304  0.00  0.00    -0.252 NA
BRANCH  15  16
ATOM     16  C   UNL     1       1.678   5.897  -7.847  0.00  0.00    +0.188 C 
BRANCH  16  17
ATOM     17  C   UNL     1       2.400   7.114  -8.326  0.00  0.00    +0.381 C 
ATOM     18  O   UNL     1       2.096   8.345  -7.754  0.00  0.00    -0.244 OA
ATOM     19  O   UNL     1       3.438   7.045  -9.026  0.00  0.00    -0.244 OA
ENDBRANCH  16  17
ENDBRANCH  15  16
BRANCH  15  20
ATOM     20  C   UNL     1       0.250   5.037  -9.456  0.00  0.00    +0.188 C 
BRANCH  20  21
ATOM     21  C   UNL     1       0.112   5.753 -10.736  0.00  0.00    +0.381 C 
ATOM     22  O   UNL     1       0.267   4.984 -11.894  0.00  0.00    -0.244 OA
ATOM     23  O   UNL     1      -0.513   6.834 -10.888  0.00  0.00    -0.244 OA
ENDBRANCH  20  21
ENDBRANCH  15  20
ENDBRANCH  14  15
ENDBRANCH  13  14
ENDBRANCH   1  13
BRANCH   1  24
ATOM     24  C   UNL     1      -1.148   6.169  -3.702  0.00  0.00    +0.188 C 
BRANCH  24  26
ATOM     25  O   UNL     1      -1.269   5.267  -1.474  0.00  0.00    -0.244 OA
ATOM     26  C   UNL     1      -1.650   5.202  -2.680  0.00  0.00    +0.381 C 
ATOM     27  O   UNL     1      -2.952   4.736  -2.886  0.00  0.00    -0.244 OA
ENDBRANCH  24  26
ENDBRANCH   1  24
TORSDOF 16
ENDMDL
MODEL 2
REMARK VINA RESULT:      -5.9      0.793      2.586
REMARK  Name = 
REMARK  16 active torsions:
REMARK  status: ('A' for Active; 'I' for Inactive)
REMARK    1  A    between atoms: C_2  and  C_4
REMARK    2  A    between atoms: C_4  and  N_5
REMARK    3  A    between atoms: N_5  and  C_6
REMARK    4  A    between atoms: N_5  and  C_17
REMARK    5  A    between atoms: C_6  and  C_7
REMARK    6  A    between atoms: C_7  and  N_8
REMARK    7  A    between atoms: N_8  and  C_9
REMARK    8  A    between atoms: N_8  and  C_13
REMARK    9  A    between atoms: C_9  and  C_10
REMARK   10  A    between atoms: C_13  and  C_14
REMARK   11  A    between atoms: C_17  and  C_18
REMARK   12  A    between atoms: C_18  and  N_19
REMARK   13  A    between atoms: N_19  and  C_20
REMARK   14  A    between atoms: N_19  and  C_24
REMARK   15  A    between atoms: C_20  and  C_21
REMARK   16  A    between atoms: C_24  and  C_25
REMARK                            x       y       z     vdW  Elec       q    Type
REMARK                         _______ _______ _______ _____ _____    ______ ____
ROOT
ATOM      1  N   UNL     1      -0.554   5.546  -4.673  0.00  0.00    -0.261 NA
ENDROOT
BRANCH   1   2
ATOM      2  C   UNL     1       0.820   5.299  -4.243  0.00  0.00    +0.090 C 
BRANCH   2   3
ATOM      3  C   UNL     1       1.389   6.642  -3.874  0.00  0.00    +0.091 C 
BRANCH   3   4
ATOM      4  N   UNL     1       2.442   6.607  -2.925  0.00  0.00    -0.252 NA
BRANCH   4   5
ATOM      5  C   UNL     1       2.961   5.323  -2.594  0.00  0.00    +0.188 C 
BRANCH   5   6
ATOM      6  C   UNL     1       2.994   5.227  -1.101  0.00  0.00    +0.381 C 
ATOM      7  O   UNL     1       1.831   5.399  -0.342  0.00  0.00    -0.244 OA
ATOM      8  O   UNL     1       4.062   5.182  -0.443  0.00  0.00    -0.244 OA
ENDBRANCH   5   6
ENDBRANCH   4   5
BRANCH   4   9
ATOM      9  C   UNL     1       3.390   7.668  -2.988  0.00  0.00    +0.188 C 
BRANCH   9  10
ATOM     10  C   UNL     1       4.382   7.309  -4.047  0.00  0.00    +0.381 C 
ATOM     11  O   UNL     1       5.701   6.968  -3.737  0.00  0.00    -0.244 OA
ATOM     12  O   UNL     1       4.177   7.606  -5.263  0.00  0.00    -0.244 OA
ENDBRANCH   9  10
ENDBRANCH   4   9
ENDBRANCH   3   4
ENDBRANCH   2   3
ENDBRANCH   1   2
BRANCH   1  13
ATOM     13  C   UNL     1      -0.611   6.221  -5.947  0.00  0.00    +0.090 C 
BRANCH  13  14
ATOM     14  C   UNL     1      -0.265   5.274  -7.064  0.00  0.00    +0.091 C 
BRANCH  14  15
ATOM     15  N   UNL     1       0.474   5.934  -8.134  0.00  0.00    -0.252 NA
BRANCH  15  16
ATOM     16  C   UNL     1       1.853   6.016  -7.652  0.00  0.00    +0.188 C 
BRANCH  16  17
ATOM     17  C   UNL     1       2.517   7.268  -8.127  0.00  0.00    +0.381 C 
ATOM     18  O   UNL     1       3.442   7.187  -9.162  0.00  0.00    -0.244 OA
ATOM     19  O   UNL     1       2.096   8.407  -7.819  0.00  0.00    -0.244 OA
ENDBRANCH  16  17
ENDBRANCH  15  16
BRANCH  15  20
ATOM     20  C   UNL     1       0.519   5.153  -9.339  0.00  0.00    +0.188 C 
BRANCH  20  21
ATOM     21  C   UNL     1       0.072   5.874 -10.542  0.00  0.00    +0.381 C 
ATOM     22  O   UNL     1       0.209   7.265 -10.515  0.00  0.00    -0.244 OA
ATOM     23  O   UNL     1      -0.020   5.365 -11.689  0.00  0.00    -0.244 OA
ENDBRANCH  20  21
ENDBRANCH  15  20
ENDBRANCH  14  15
ENDBRANCH  13  14
ENDBRANCH   1  13
BRANCH   1  24
ATOM     24  C   UNL     1      -1.154   6.351  -3.622  0.00  0.00    +0.188 C 
BRANCH  24  26
ATOM     25  O   UNL     1      -2.852   4.725  -3.110  0.00  0.00    -0.244 OA
ATOM     26  C   UNL     1      -1.937   5.490  -2.686  0.00  0.00    +0.381 C 
ATOM     27  O   UNL     1      -1.240   5.044  -1.558  0.00  0.00    -0.244 OA
ENDBRANCH  24  26
ENDBRANCH   1  24
TORSDOF 16
ENDMDL
MODEL 3
REMARK VINA RESULT:      -5.8      1.947      4.712
REMARK  Name = 
REMARK  16 active torsions:
REMARK  status: ('A' for Active; 'I' for Inactive)
REMARK    1  A    between atoms: C_2  and  C_4
REMARK    2  A    between atoms: C_4  and  N_5
REMARK    3  A    between atoms: N_5  and  C_6
REMARK    4  A    between atoms: N_5  and  C_17
REMARK    5  A    between atoms: C_6  and  C_7
REMARK    6  A    between atoms: C_7  and  N_8
REMARK    7  A    between atoms: N_8  and  C_9
REMARK    8  A    between atoms: N_8  and  C_13
REMARK    9  A    between atoms: C_9  and  C_10
REMARK   10  A    between atoms: C_13  and  C_14
REMARK   11  A    between atoms: C_17  and  C_18
REMARK   12  A    between atoms: C_18  and  N_19
REMARK   13  A    between atoms: N_19  and  C_20
REMARK   14  A    between atoms: N_19  and  C_24
REMARK   15  A    between atoms: C_20  and  C_21
REMARK   16  A    between atoms: C_24  and  C_25
REMARK                            x       y       z     vdW  Elec       q    Type
REMARK                         _______ _______ _______ _____ _____    ______ ____
ROOT
ATOM      1  N   UNL     1       3.451   6.210  -3.971  0.00  0.00    -0.261 NA
ENDROOT
BRANCH   1   2
ATOM      2  C   UNL     1       2.156   5.614  -4.291  0.00  0.00    +0.090 C 
BRANCH   2   3
ATOM      3  C   UNL     1       1.180   6.757  -4.373  0.00  0.00    +0.091 C 
BRANCH   3   4
ATOM      4  N   UNL     1      -0.168   6.381  -4.601  0.00  0.00    -0.252 NA
BRANCH   4   5
ATOM      5  C   UNL     1      -0.379   5.165  -5.313  0.00  0.00    +0.188 C 
BRANCH   5   6
ATOM      6  C   UNL     1      -1.262   5.480  -6.479  0.00  0.00    +0.381 C 
ATOM      7  O   UNL     1      -2.608   5.815  -6.293  0.00  0.00    -0.244 OA
ATOM      8  O   UNL     1      -0.918   5.281  -7.669  0.00  0.00    -0.244 OA
ENDBRANCH   5   6
ENDBRANCH   4   5
BRANCH   4   9
ATOM      9  C   UNL     1      -1.091   6.662  -3.554  0.00  0.00    +0.188 C 
BRANCH   9  10
ATOM     10  C   UNL     1      -1.317   5.383  -2.811  0.00  0.00    +0.381 C 
ATOM     11  O   UNL     1      -2.572   4.770  -2.763  0.00  0.00    -0.244 OA
ATOM     12  O   UNL     1      -0.488   4.978  -1.942  0.00  0.00    -0.244 OA
ENDBRANCH   9  10
ENDBRANCH   4   9
ENDBRANCH   3   4
ENDBRANCH   2   3
ENDBRANCH   1   2
BRANCH   1  13
ATOM     13  C   UNL     1       4.172   6.609  -5.155  0.00  0.00    +0.090 C 
BRANCH  13  14
ATOM     14  C   UNL     1       4.187   5.495  -6.167  0.00  0.00    +0.091 C 
BRANCH  14  15
ATOM     15  N   UNL     1       3.866   5.969  -7.509  0.00  0.00    -0.252 NA
BRANCH  15  16
ATOM     16  C   UNL     1       4.557   5.051  -8.415  0.00  0.00    +0.188 C 
BRANCH  16  17
ATOM     17  C   UNL     1       5.291   5.795  -9.482  0.00  0.00    +0.381 C 
ATOM     18  O   UNL     1       6.681   5.833  -9.440  0.00  0.00    -0.244 OA
ATOM     19  O   UNL     1       4.737   6.165 -10.543  0.00  0.00    -0.244 OA
ENDBRANCH  16  17
ENDBRANCH  15  16
BRANCH  15  20
ATOM     20  C   UNL     1       2.468   5.856  -7.816  0.00  0.00    +0.188 C 
BRANCH  20  21
ATOM     21  C   UNL     1       1.869   7.085  -8.363  0.00  0.00    +0.381 C 
ATOM     22  O   UNL     1       2.311   8.289  -7.804  0.00  0.00    -0.244 OA
ATOM     23  O   UNL     1       1.347   7.181  -9.503  0.00  0.00    -0.244 OA
ENDBRANCH  20  21
ENDBRANCH  15  20
ENDBRANCH  14  15
ENDBRANCH  13  14
ENDBRANCH   1  13
BRANCH   1  24
ATOM     24  C   UNL     1       4.176   5.191  -3.231  0.00  0.00    +0.188 C 
BRANCH  24  26
ATOM     25  O   UNL     1       4.254   4.508  -0.924  0.00  0.00    -0.244 OA
ATOM     26  C   UNL     1       4.075   5.441  -1.761  0.00  0.00    +0.381 C 
ATOM     27  O   UNL     1       4.458   6.719  -1.343  0.00  0.00    -0.244 OA
ENDBRANCH  24  26
ENDBRANCH   1  24
TORSDOF 16
ENDMDL
MODEL 4
REMARK VINA RESULT:      -5.8      3.681      5.955
REMARK  Name = 
REMARK  16 active torsions:
REMARK  status: ('A' for Active; 'I' for Inactive)
REMARK    1  A    between atoms: C_2  and  C_4
REMARK    2  A    between atoms: C_4  and  N_5
REMARK    3  A    between atoms: N_5  and  C_6
REMARK    4  A    between atoms: N_5  and  C_17
REMARK    5  A    between atoms: C_6  and  C_7
REMARK    6  A    between atoms: C_7  and  N_8
REMARK    7  A    between atoms: N_8  and  C_9
REMARK    8  A    between atoms: N_8  and  C_13
REMARK    9  A    between atoms: C_9  and  C_10
REMARK   10  A    between atoms: C_13  and  C_14
REMARK   11  A    between atoms: C_17  and  C_18
REMARK   12  A    between atoms: C_18  and  N_19
REMARK   13  A    between atoms: N_19  and  C_20
REMARK   14  A    between atoms: N_19  and  C_24
REMARK   15  A    between atoms: C_20  and  C_21
REMARK   16  A    between atoms: C_24  and  C_25
REMARK                            x       y       z     vdW  Elec       q    Type
REMARK                         _______ _______ _______ _____ _____    ______ ____
ROOT
ATOM      1  N   UNL     1       3.070   5.153  -8.524  0.00  0.00    -0.261 NA
ENDROOT
BRANCH   1   2
ATOM      2  C   UNL     1       3.466   4.528  -7.264  0.00  0.00    +0.090 C 
BRANCH   2   3
ATOM      3  C   UNL     1       2.189   4.225  -6.529  0.00  0.00    +0.091 C 
BRANCH   3   4
ATOM      4  N   UNL     1       1.894   5.101  -5.453  0.00  0.00    -0.252 NA
BRANCH   4   5
ATOM      5  C   UNL     1       0.565   5.057  -4.941  0.00  0.00    +0.188 C 
BRANCH   5   6
ATOM      6  C   UNL     1      -0.234   6.078  -5.688  0.00  0.00    +0.381 C 
ATOM      7  O   UNL     1      -0.327   7.396  -5.228  0.00  0.00    -0.244 OA
ATOM      8  O   UNL     1      -1.005   5.784  -6.633  0.00  0.00    -0.244 OA
ENDBRANCH   5   6
ENDBRANCH   4   5
BRANCH   4   9
ATOM      9  C   UNL     1       2.928   5.301  -4.495  0.00  0.00    +0.188 C 
BRANCH   9  10
ATOM     10  C   UNL     1       3.092   6.778  -4.328  0.00  0.00    +0.381 C 
ATOM     11  O   UNL     1       3.948   7.522  -5.146  0.00  0.00    -0.244 OA
ATOM     12  O   UNL     1       2.731   7.360  -3.261  0.00  0.00    -0.244 OA
ENDBRANCH   9  10
ENDBRANCH   4   9
ENDBRANCH   3   4
ENDBRANCH   2   3
ENDBRANCH   1   2
BRANCH   1  13
ATOM     13  C   UNL     1       3.784   4.603  -9.650  0.00  0.00    +0.090 C 
BRANCH  13  14
ATOM     14  C   UNL     1       4.881   5.536 -10.089  0.00  0.00    +0.091 C 
BRANCH  14  15
ATOM     15  N   UNL     1       5.198   5.384 -11.505  0.00  0.00    -0.252 NA
BRANCH  15  16
ATOM     16  C   UNL     1       4.054   5.955 -12.216  0.00  0.00    +0.188 C 
BRANCH  16  17
ATOM     17  C   UNL     1       3.922   5.369 -13.584  0.00  0.00    +0.381 C 
ATOM     18  O   UNL     1       4.219   4.023 -13.770  0.00  0.00    -0.244 OA
ATOM     19  O   UNL     1       3.316   5.957 -14.510  0.00  0.00    -0.244 OA
ENDBRANCH  16  17
ENDBRANCH  15  16
BRANCH  15  20
ATOM     20  C   UNL     1       6.341   6.156 -11.902  0.00  0.00    +0.188 C 
BRANCH  20  21
ATOM     21  C   UNL     1       7.562   5.361 -12.113  0.00  0.00    +0.381 C 
ATOM     22  O   UNL     1       7.680   4.728 -13.354  0.00  0.00    -0.244 OA
ATOM     23  O   UNL     1       8.642   5.530 -11.490  0.00  0.00    -0.244 OA
ENDBRANCH  20  21
ENDBRANCH  15  20
ENDBRANCH  14  15
ENDBRANCH  13  14
ENDBRANCH   1  13
BRANCH   1  24
ATOM     24  C   UNL     1       3.351   6.570  -8.362  0.00  0.00    +0.188 C 
BRANCH  24  26
ATOM     25  O   UNL     1       2.034   8.493  -7.761  0.00  0.00    -0.244 OA
ATOM     26  C   UNL     1       2.079   7.352  -8.309  0.00  0.00    +0.381 C 
ATOM     27  O   UNL     1       1.211   7.157  -9.388  0.00  0.00    -0.244 OA
ENDBRANCH  24  26
ENDBRANCH   1  24
TORSDOF 16
ENDMDL
MODEL 5
REMARK VINA RESULT:      -5.8      1.417      2.467
REMARK  Name = 
REMARK  16 active torsions:
REMARK  status: ('A' for Active; 'I' for Inactive)
REMARK    1  A    between atoms: C_2  and  C_4
REMARK    2  A    between atoms: C_4  and  N_5
REMARK    3  A    between atoms: N_5  and  C_6
REMARK    4  A    between atoms: N_5  and  C_17
REMARK    5  A    between atoms: C_6  and  C_7
REMARK    6  A    between atoms: C_7  and  N_8
REMARK    7  A    between atoms: N_8  and  C_9
REMARK    8  A    between atoms: N_8  and  C_13
REMARK    9  A    between atoms: C_9  and  C_10
REMARK   10  A    between atoms: C_13  and  C_14
REMARK   11  A    between atoms: C_17  and  C_18
REMARK   12  A    between atoms: C_18  and  N_19
REMARK   13  A    between atoms: N_19  and  C_20
REMARK   14  A    between atoms: N_19  and  C_24
REMARK   15  A    between atoms: C_20  and  C_21
REMARK   16  A    between atoms: C_24  and  C_25
REMARK                            x       y       z     vdW  Elec       q    Type
REMARK                         _______ _______ _______ _____ _____    ______ ____
ROOT
ATOM      1  N   UNL     1      -0.836   5.582  -4.520  0.00  0.00    -0.261 NA
ENDROOT
BRANCH   1   2
ATOM      2  C   UNL     1       0.225   6.474  -4.056  0.00  0.00    +0.090 C 
BRANCH   2   3
ATOM      3  C   UNL     1       0.840   5.802  -2.858  0.00  0.00    +0.091 C 
BRANCH   3   4
ATOM      4  N   UNL     1       2.184   6.166  -2.591  0.00  0.00    -0.252 NA
BRANCH   4   5
ATOM      5  C   UNL     1       2.881   6.842  -3.634  0.00  0.00    +0.188 C 
BRANCH   5   6
ATOM      6  C   UNL     1       3.998   5.949  -4.076  0.00  0.00    +0.381 C 
ATOM      7  O   UNL     1       3.806   4.568  -4.205  0.00  0.00    -0.244 OA
ATOM      8  O   UNL     1       5.187   6.337  -4.168  0.00  0.00    -0.244 OA
ENDBRANCH   5   6
ENDBRANCH   4   5
BRANCH   4   9
ATOM      9  C   UNL     1       2.476   6.593  -1.264  0.00  0.00    +0.188 C 
BRANCH   9  10
ATOM     10  C   UNL     1       3.484   5.639  -0.707  0.00  0.00    +0.381 C 
ATOM     11  O   UNL     1       3.296   4.254  -0.760  0.00  0.00    -0.244 OA
ATOM     12  O   UNL     1       4.372   6.029   0.109  0.00  0.00    -0.244 OA
ENDBRANCH   9  10
ENDBRANCH   4   9
ENDBRANCH   3   4
ENDBRANCH   2   3
ENDBRANCH   1   2
BRANCH   1  13
ATOM     13  C   UNL     1      -0.654   5.193  -5.897  0.00  0.00    +0.090 C 
BRANCH  13  14
ATOM     14  C   UNL     1       0.714   4.600  -6.104  0.00  0.00    +0.091 C 
BRANCH  14  15
ATOM     15  N   UNL     1       1.244   4.891  -7.432  0.00  0.00    -0.252 NA
BRANCH  15  16
ATOM     16  C   UNL     1       0.195   5.660  -8.102  0.00  0.00    +0.188 C 
BRANCH  16  17
ATOM     17  C   UNL     1       0.369   5.629  -9.586  0.00  0.00    +0.381 C 
ATOM     18  O   UNL     1       0.603   6.823 -10.260  0.00  0.00    -0.244 OA
ATOM     19  O   UNL     1       0.570   4.564 -10.215  0.00  0.00    -0.244 OA
ENDBRANCH  16  17
ENDBRANCH  15  16
BRANCH  15  20
ATOM     20  C   UNL     1       2.400   5.742  -7.392  0.00  0.00    +0.188 C 
BRANCH  20  21
ATOM     21  C   UNL     1       3.659   5.066  -7.746  0.00  0.00    +0.381 C 
ATOM     22  O   UNL     1       3.573   4.075  -8.729  0.00  0.00    -0.244 OA
ATOM     23  O   UNL     1       4.806   5.552  -7.570  0.00  0.00    -0.244 OA
ENDBRANCH  20  21
ENDBRANCH  15  20
ENDBRANCH  14  15
ENDBRANCH  13  14
ENDBRANCH   1  13
BRANCH   1  24
ATOM     24  C   UNL     1      -2.074   6.321  -4.340  0.00  0.00    +0.188 C 
BRANCH  24  26
ATOM     25  O   UNL     1      -2.517   4.655  -2.660  0.00  0.00    -0.244 OA
ATOM     26  C   UNL     1      -2.925   5.670  -3.298  0.00  0.00    +0.381 C 
ATOM     27  O   UNL     1      -3.779   6.529  -2.600  0.00  0.00    -0.244 OA
ENDBRANCH  24  26
ENDBRANCH   1  24
TORSDOF 16
ENDMDL
MODEL 6
REMARK VINA RESULT:      -5.8      3.824      6.596
REMARK  Name = 
REMARK  16 active torsions:
REMARK  status: ('A' for Active; 'I' for Inactive)
REMARK    1  A    between atoms: C_2  and  C_4
REMARK    2  A    between atoms: C_4  and  N_5
REMARK    3  A    between atoms: N_5  and  C_6
REMARK    4  A    between atoms: N_5  and  C_17
REMARK    5  A    between atoms: C_6  and  C_7
REMARK    6  A    between atoms: C_7  and  N_8
REMARK    7  A    between atoms: N_8  and  C_9
REMARK    8  A    between atoms: N_8  and  C_13
REMARK    9  A    between atoms: C_9  and  C_10
REMARK   10  A    between atoms: C_13  and  C_14
REMARK   11  A    between atoms: C_17  and  C_18
REMARK   12  A    between atoms: C_18  and  N_19
REMARK   13  A    between atoms: N_19  and  C_20
REMARK   14  A    between atoms: N_19  and  C_24
REMARK   15  A    between atoms: C_20  and  C_21
REMARK   16  A    between atoms: C_24  and  C_25
REMARK                            x       y       z     vdW  Elec       q    Type
REMARK                         _______ _______ _______ _____ _____    ______ ____
ROOT
ATOM      1  N   UNL     1       2.855   5.063 -10.508  0.00  0.00    -0.261 NA
ENDROOT
BRANCH   1   2
ATOM      2  C   UNL     1       2.078   4.525  -9.394  0.00  0.00    +0.090 C 
BRANCH   2   3
ATOM      3  C   UNL     1       3.002   4.515  -8.207  0.00  0.00    +0.091 C 
BRANCH   3   4
ATOM      4  N   UNL     1       2.451   5.046  -7.013  0.00  0.00    -0.252 NA
BRANCH   4   5
ATOM      5  C   UNL     1       1.525   6.118  -7.159  0.00  0.00    +0.188 C 
BRANCH   5   6
ATOM      6  C   UNL     1       2.308   7.393  -7.101  0.00  0.00    +0.381 C 
ATOM      7  O   UNL     1       2.105   8.406  -8.046  0.00  0.00    -0.244 OA
ATOM      8  O   UNL     1       3.298   7.553  -6.347  0.00  0.00    -0.244 OA
ENDBRANCH   5   6
ENDBRANCH   4   5
BRANCH   4   9
ATOM      9  C   UNL     1       2.170   4.114  -5.973  0.00  0.00    +0.188 C 
BRANCH   9  10
ATOM     10  C   UNL     1       2.889   4.589  -4.751  0.00  0.00    +0.381 C 
ATOM     11  O   UNL     1       2.244   5.333  -3.759  0.00  0.00    -0.244 OA
ATOM     12  O   UNL     1       4.156   4.626  -4.710  0.00  0.00    -0.244 OA
ENDBRANCH   9  10
ENDBRANCH   4   9
ENDBRANCH   3   4
ENDBRANCH   2   3
ENDBRANCH   1   2
BRANCH   1  13
ATOM     13  C   UNL     1       4.218   5.349 -10.131  0.00  0.00    +0.090 C 
BRANCH  13  14
ATOM     14  C   UNL     1       4.772   6.476 -10.960  0.00  0.00    +0.091 C 
BRANCH  14  15
ATOM     15  N   UNL     1       5.685   6.000 -11.994  0.00  0.00    -0.252 NA
BRANCH  15  16
ATOM     16  C   UNL     1       5.163   6.546 -13.247  0.00  0.00    +0.188 C 
BRANCH  16  17
ATOM     17  C   UNL     1       4.310   5.546 -13.957  0.00  0.00    +0.381 C 
ATOM     18  O   UNL     1       4.439   4.200 -13.630  0.00  0.00    -0.244 OA
ATOM     19  O   UNL     1       3.313   5.880 -14.638  0.00  0.00    -0.244 OA
ENDBRANCH  16  17
ENDBRANCH  15  16
BRANCH  15  20
ATOM     20  C   UNL     1       7.011   6.533 -11.848  0.00  0.00    +0.188 C 
BRANCH  20  21
ATOM     21  C   UNL     1       8.081   5.604 -12.248  0.00  0.00    +0.381 C 
ATOM     22  O   UNL     1       7.763   4.695 -13.262  0.00  0.00    -0.244 OA
ATOM     23  O   UNL     1       9.310   5.813 -12.079  0.00  0.00    -0.244 OA
ENDBRANCH  20  21
ENDBRANCH  15  20
ENDBRANCH  14  15
ENDBRANCH  13  14
ENDBRANCH   1  13
BRANCH   1  24
ATOM     24  C   UNL     1       2.158   6.269 -10.922  0.00  0.00    +0.188 C 
BRANCH  24  26
ATOM     25  O   UNL     1      -0.181   6.761 -11.203  0.00  0.00    -0.244 OA
ATOM     26  C   UNL     1       0.771   5.944 -11.372  0.00  0.00    +0.381 C 
ATOM     27  O   UNL     1       0.685   5.130 -12.506  0.00  0.00    -0.244 OA
ENDBRANCH  24  26
ENDBRANCH   1  24
TORSDOF 16
ENDMDL
MODEL 7
REMARK VINA RESULT:      -5.7      1.917      6.419
REMARK  Name = 
REMARK  16 active torsions:
REMARK  status: ('A' for Active; 'I' for Inactive)
REMARK    1  A    between atoms: C_2  and  C_4
REMARK    2  A    between atoms: C_4  and  N_5
REMARK    3  A    between atoms: N_5  and  C_6
REMARK    4  A    between atoms: N_5  and  C_17
REMARK    5  A    between atoms: C_6  and  C_7
REMARK    6  A    between atoms: C_7  and  N_8
REMARK    7  A    between atoms: N_8  and  C_9
REMARK    8  A    between atoms: N_8  and  C_13
REMARK    9  A    between atoms: C_9  and  C_10
REMARK   10  A    between atoms: C_13  and  C_14
REMARK   11  A    between atoms: C_17  and  C_18
REMARK   12  A    between atoms: C_18  and  N_19
REMARK   13  A    between atoms: N_19  and  C_20
REMARK   14  A    between atoms: N_19  and  C_24
REMARK   15  A    between atoms: C_20  and  C_21
REMARK   16  A    between atoms: C_24  and  C_25
REMARK                            x       y       z     vdW  Elec       q    Type
REMARK                         _______ _______ _______ _____ _____    ______ ____
ROOT
ATOM      1  N   UNL     1       2.798   6.278  -5.367  0.00  0.00    -0.261 NA
ENDROOT
BRANCH   1   2
ATOM      2  C   UNL     1       2.691   6.481  -6.810  0.00  0.00    +0.090 C 
BRANCH   2   3
ATOM      3  C   UNL     1       2.670   5.107  -7.424  0.00  0.00    +0.091 C 
BRANCH   3   4
ATOM      4  N   UNL     1       2.902   5.072  -8.823  0.00  0.00    -0.252 NA
BRANCH   4   5
ATOM      5  C   UNL     1       4.128   4.487  -9.252  0.00  0.00    +0.188 C 
BRANCH   5   6
ATOM      6  C   UNL     1       5.133   5.590  -9.363  0.00  0.00    +0.381 C 
ATOM      7  O   UNL     1       4.839   6.765 -10.066  0.00  0.00    -0.244 OA
ATOM      8  O   UNL     1       6.331   5.461  -9.013  0.00  0.00    -0.244 OA
ENDBRANCH   5   6
ENDBRANCH   4   5
BRANCH   4   9
ATOM      9  C   UNL     1       1.768   4.827  -9.649  0.00  0.00    +0.188 C 
BRANCH   9  10
ATOM     10  C   UNL     1       1.547   6.057 -10.469  0.00  0.00    +0.381 C 
ATOM     11  O   UNL     1       0.790   7.133  -9.996  0.00  0.00    -0.244 OA
ATOM     12  O   UNL     1       1.749   6.053 -11.721  0.00  0.00    -0.244 OA
ENDBRANCH   9  10
ENDBRANCH   4   9
ENDBRANCH   3   4
ENDBRANCH   2   3
ENDBRANCH   1   2
BRANCH   1  13
ATOM     13  C   UNL     1       1.666   6.819  -4.657  0.00  0.00    +0.090 C 
BRANCH  13  14
ATOM     14  C   UNL     1       0.941   5.734  -3.907  0.00  0.00    +0.091 C 
BRANCH  14  15
ATOM     15  N   UNL     1      -0.476   5.682  -4.249  0.00  0.00    -0.252 NA
BRANCH  15  16
ATOM     16  C   UNL     1      -1.163   6.329  -3.131  0.00  0.00    +0.188 C 
BRANCH  16  17
ATOM     17  C   UNL     1      -1.962   5.341  -2.344  0.00  0.00    +0.381 C 
ATOM     18  O   UNL     1      -1.861   5.348  -0.957  0.00  0.00    -0.244 OA
ATOM     19  O   UNL     1      -2.904   4.687  -2.850  0.00  0.00    -0.244 OA
ENDBRANCH  16  17
ENDBRANCH  15  16
BRANCH  15  20
ATOM     20  C   UNL     1      -0.792   6.458  -5.415  0.00  0.00    +0.188 C 
BRANCH  20  21
ATOM     21  C   UNL     1      -1.609   5.744  -6.411  0.00  0.00    +0.381 C 
ATOM     22  O   UNL     1      -0.918   5.180  -7.487  0.00  0.00    -0.244 OA
ATOM     23  O   UNL     1      -2.746   5.254  -6.186  0.00  0.00    -0.244 OA
ENDBRANCH  20  21
ENDBRANCH  15  20
ENDBRANCH  14  15
ENDBRANCH  13  14
ENDBRANCH   1  13
BRANCH   1  24
ATOM     24  C   UNL     1       4.032   6.935  -4.971  0.00  0.00    +0.188 C 
BRANCH  24  26
ATOM     25  O   UNL     1       4.538   6.372  -2.687  0.00  0.00    -0.244 OA
ATOM     26  C   UNL     1       4.732   6.142  -3.916  0.00  0.00    +0.381 C 
ATOM     27  O   UNL     1       5.013   4.814  -4.253  0.00  0.00    -0.244 OA
ENDBRANCH  24  26
ENDBRANCH   1  24
TORSDOF 16
ENDMDL
MODEL 8
REMARK VINA RESULT:      -5.6      1.547      2.914
REMARK  Name = 
REMARK  16 active torsions:
REMARK  status: ('A' for Active; 'I' for Inactive)
REMARK    1  A    between atoms: C_2  and  C_4
REMARK    2  A    between atoms: C_4  and  N_5
REMARK    3  A    between atoms: N_5  and  C_6
REMARK    4  A    between atoms: N_5  and  C_17
REMARK    5  A    between atoms: C_6  and  C_7
REMARK    6  A    between atoms: C_7  and  N_8
REMARK    7  A    between atoms: N_8  and  C_9
REMARK    8  A    between atoms: N_8  and  C_13
REMARK    9  A    between atoms: C_9  and  C_10
REMARK   10  A    between atoms: C_13  and  C_14
REMARK   11  A    between atoms: C_17  and  C_18
REMARK   12  A    between atoms: C_18  and  N_19
REMARK   13  A    between atoms: N_19  and  C_20
REMARK   14  A    between atoms: N_19  and  C_24
REMARK   15  A    between atoms: C_20  and  C_21
REMARK   16  A    between atoms: C_24  and  C_25
REMARK                            x       y       z     vdW  Elec       q    Type
REMARK                         _______ _______ _______ _____ _____    ______ ____
ROOT
ATOM      1  N   UNL     1      -0.776   5.818  -4.453  0.00  0.00    -0.261 NA
ENDROOT
BRANCH   1   2
ATOM      2  C   UNL     1       0.542   6.281  -4.023  0.00  0.00    +0.090 C 
BRANCH   2   3
ATOM      3  C   UNL     1       0.868   5.510  -2.773  0.00  0.00    +0.091 C 
BRANCH   3   4
ATOM      4  N   UNL     1       1.403   6.284  -1.712  0.00  0.00    -0.252 NA
BRANCH   4   5
ATOM      5  C   UNL     1       0.841   6.072  -0.421  0.00  0.00    +0.188 C 
BRANCH   5   6
ATOM      6  C   UNL     1      -0.034   7.247  -0.117  0.00  0.00    +0.381 C 
ATOM      7  O   UNL     1       0.459   8.347   0.594  0.00  0.00    -0.244 OA
ATOM      8  O   UNL     1      -1.275   7.241  -0.302  0.00  0.00    -0.244 OA
ENDBRANCH   5   6
ENDBRANCH   4   5
BRANCH   4   9
ATOM      9  C   UNL     1       2.804   6.534  -1.753  0.00  0.00    +0.188 C 
BRANCH   9  10
ATOM     10  C   UNL     1       3.421   5.761  -0.631  0.00  0.00    +0.381 C 
ATOM     11  O   UNL     1       4.029   6.397   0.456  0.00  0.00    -0.244 OA
ATOM     12  O   UNL     1       3.708   4.533  -0.763  0.00  0.00    -0.244 OA
ENDBRANCH   9  10
ENDBRANCH   4   9
ENDBRANCH   3   4
ENDBRANCH   2   3
ENDBRANCH   1   2
BRANCH   1  13
ATOM     13  C   UNL     1      -0.951   5.929  -5.880  0.00  0.00    +0.090 C 
BRANCH  13  14
ATOM     14  C   UNL     1       0.130   5.175  -6.607  0.00  0.00    +0.091 C 
BRANCH  14  15
ATOM     15  N   UNL     1       0.619   5.903  -7.773  0.00  0.00    -0.252 NA
BRANCH  15  16
ATOM     16  C   UNL     1       2.076   5.903  -7.641  0.00  0.00    +0.188 C 
BRANCH  16  17
ATOM     17  C   UNL     1       2.581   7.248  -7.230  0.00  0.00    +0.381 C 
ATOM     18  O   UNL     1       2.083   8.377  -7.871  0.00  0.00    -0.244 OA
ATOM     19  O   UNL     1       3.231   7.425  -6.174  0.00  0.00    -0.244 OA
ENDBRANCH  16  17
ENDBRANCH  15  16
BRANCH  15  20
ATOM     20  C   UNL     1       0.329   5.229  -9.007  0.00  0.00    +0.188 C 
BRANCH  20  21
ATOM     21  C   UNL     1       0.582   6.039 -10.211  0.00  0.00    +0.381 C 
ATOM     22  O   UNL     1       0.712   5.336 -11.412  0.00  0.00    -0.244 OA
ATOM     23  O   UNL     1       0.287   7.256 -10.329  0.00  0.00    -0.244 OA
ENDBRANCH  20  21
ENDBRANCH  15  20
ENDBRANCH  14  15
ENDBRANCH  13  14
ENDBRANCH   1  13
BRANCH   1  24
ATOM     24  C   UNL     1      -1.732   6.647  -3.738  0.00  0.00    +0.188 C 
BRANCH  24  26
ATOM     25  O   UNL     1      -2.569   4.659  -2.669  0.00  0.00    -0.244 OA
ATOM     26  C   UNL     1      -2.817   5.804  -3.149  0.00  0.00    +0.381 C 
ATOM     27  O   UNL     1      -3.860   6.510  -2.542  0.00  0.00    -0.244 OA
ENDBRANCH  24  26
ENDBRANCH   1  24
TORSDOF 16
ENDMDL
MODEL 9
REMARK VINA RESULT:      -5.6      2.350      7.147
REMARK  Name = 
REMARK  16 active torsions:
REMARK  status: ('A' for Active; 'I' for Inactive)
REMARK    1  A    between atoms: C_2  and  C_4
REMARK    2  A    between atoms: C_4  and  N_5
REMARK    3  A    between atoms: N_5  and  C_6
REMARK    4  A    between atoms: N_5  and  C_17
REMARK    5  A    between atoms: C_6  and  C_7
REMARK    6  A    between atoms: C_7  and  N_8
REMARK    7  A    between atoms: N_8  and  C_9
REMARK    8  A    between atoms: N_8  and  C_13
REMARK    9  A    between atoms: C_9  and  C_10
REMARK   10  A    between atoms: C_13  and  C_14
REMARK   11  A    between atoms: C_17  and  C_18
REMARK   12  A    between atoms: C_18  and  N_19
REMARK   13  A    between atoms: N_19  and  C_20
REMARK   14  A    between atoms: N_19  and  C_24
REMARK   15  A    between atoms: C_20  and  C_21
REMARK   16  A    between atoms: C_24  and  C_25
REMARK                            x       y       z     vdW  Elec       q    Type
REMARK                         _______ _______ _______ _____ _____    ______ ____
ROOT
ATOM      1  N   UNL     1       2.488   5.433  -2.671  0.00  0.00    -0.261 NA
ENDROOT
BRANCH   1   2
ATOM      2  C   UNL     1       3.164   5.728  -3.933  0.00  0.00    +0.090 C 
BRANCH   2   3
ATOM      3  C   UNL     1       2.195   6.546  -4.743  0.00  0.00    +0.091 C 
BRANCH   3   4
ATOM      4  N   UNL     1       2.066   6.153  -6.099  0.00  0.00    -0.252 NA
BRANCH   4   5
ATOM      5  C   UNL     1       3.199   6.368  -6.936  0.00  0.00    +0.188 C 
BRANCH   5   6
ATOM      6  C   UNL     1       2.746   7.199  -8.095  0.00  0.00    +0.381 C 
ATOM      7  O   UNL     1       2.092   8.420  -7.894  0.00  0.00    -0.244 OA
ATOM      8  O   UNL     1       2.747   6.780  -9.278  0.00  0.00    -0.244 OA
ENDBRANCH   5   6
ENDBRANCH   4   5
BRANCH   4   9
ATOM      9  C   UNL     1       1.319   4.967  -6.349  0.00  0.00    +0.188 C 
BRANCH   9  10
ATOM     10  C   UNL     1      -0.079   5.389  -6.674  0.00  0.00    +0.381 C 
ATOM     11  O   UNL     1      -1.096   5.370  -5.716  0.00  0.00    -0.244 OA
ATOM     12  O   UNL     1      -0.475   5.466  -7.876  0.00  0.00    -0.244 OA
ENDBRANCH   9  10
ENDBRANCH   4   9
ENDBRANCH   3   4
ENDBRANCH   2   3
ENDBRANCH   1   2
BRANCH   1  13
ATOM     13  C   UNL     1       1.069   5.679  -2.745  0.00  0.00    +0.090 C 
BRANCH  13  14
ATOM     14  C   UNL     1       0.408   5.370  -1.428  0.00  0.00    +0.091 C 
BRANCH  14  15
ATOM     15  N   UNL     1      -0.495   6.435  -1.004  0.00  0.00    -0.252 NA
BRANCH  15  16
ATOM     16  C   UNL     1      -1.812   5.805  -0.911  0.00  0.00    +0.188 C 
BRANCH  16  17
ATOM     17  C   UNL     1      -2.510   5.816  -2.232  0.00  0.00    +0.381 C 
ATOM     18  O   UNL     1      -2.879   4.605  -2.807  0.00  0.00    -0.244 OA
ATOM     19  O   UNL     1      -3.005   6.859  -2.719  0.00  0.00    -0.244 OA
ENDBRANCH  16  17
ENDBRANCH  15  16
BRANCH  15  20
ATOM     20  C   UNL     1      -0.193   6.924   0.312  0.00  0.00    +0.188 C 
BRANCH  20  21
ATOM     21  C   UNL     1      -1.179   7.882   0.840  0.00  0.00    +0.381 C 
ATOM     22  O   UNL     1      -1.752   7.560   2.074  0.00  0.00    -0.244 OA
ATOM     23  O   UNL     1      -1.240   9.096   0.519  0.00  0.00    -0.244 OA
ENDBRANCH  20  21
ENDBRANCH  15  20
ENDBRANCH  14  15
ENDBRANCH  13  14
ENDBRANCH   1  13
BRANCH   1  24
ATOM     24  C   UNL     1       3.121   6.287  -1.680  0.00  0.00    +0.188 C 
BRANCH  24  26
ATOM     25  O   UNL     1       4.569   6.004   0.221  0.00  0.00    -0.244 OA
ATOM     26  C   UNL     1       4.013   5.484  -0.790  0.00  0.00    +0.381 C 
ATOM     27  O   UNL     1       3.684   4.129  -0.679  0.00  0.00    -0.244 OA
ENDBRANCH  24  26
ENDBRANCH   1  24
TORSDOF 16
ENDMDL
