MODEL 1
REMARK VINA RESULT:      -8.6      0.000      0.000
REMARK  Name = 
REMARK  8 active torsions:
REMARK  status: ('A' for Active; 'I' for Inactive)
REMARK    1  A    between atoms: C_2  and  C_3
REMARK    2  A    between atoms: C_3  and  O_5
REMARK    3  A    between atoms: O_5  and  C_6
REMARK    4  A    between atoms: C_6  and  C_7
REMARK    5  A    between atoms: C_7  and  C_9
REMARK    6  A    between atoms: C_9  and  O_10
REMARK    7  A    between atoms: O_10  and  C_11
REMARK    8  A    between atoms: C_11  and  C_13
REMARK                            x       y       z     vdW  Elec       q    Type
REMARK                         _______ _______ _______ _____ _____    ______ ____
ROOT
ATOM      1  C   UNL     1       1.987   5.451  -7.906  0.00  0.00    +0.190 C 
ATOM      2  C   UNL     1       1.765   5.715  -6.486  0.00  0.00    +0.043 C 
ATOM      3  C   UNL     1       3.259   6.249  -6.198  0.00  0.00    +0.005 C 
ATOM      4  C   UNL     1       2.727   6.934  -4.746  0.00  0.00    +0.017 C 
ATOM      5  C   UNL     1       2.963   5.572  -3.939  0.00  0.00    +0.102 C 
ATOM      6  C   UNL     1       1.594   4.686  -4.115  0.00  0.00    +0.166 C 
ATOM      7  O   UNL     1       0.671   5.891  -4.146  0.00  0.00    -0.222 OA
ATOM      8 CL   UNL     1       4.314   4.675  -4.500  0.00  0.00    -0.113 Cl
ATOM      9  C   UNL     1       3.094   5.878  -2.485  0.00  0.00    +0.049 C 
ATOM     10  C   UNL     1       3.317   7.313  -2.170  0.00  0.00    -0.037 C 
ATOM     11  C   UNL     1       3.501   7.564  -0.870  0.00  0.00    +0.034 C 
ATOM     12  C   UNL     1       3.966   6.491   0.026  0.00  0.00    +0.195 C 
ATOM     13  C   UNL     1       4.718   5.445  -0.683  0.00  0.00    +0.038 C 
ATOM     14  O   UNL     1       4.223   6.707   1.249  0.00  0.00    -0.287 OA
ATOM     15  C   UNL     1       3.926   8.272  -3.147  0.00  0.00    +0.022 C 
ATOM     16  C   UNL     1       1.902   5.389  -1.664  0.00  0.00    +0.010 C 
ATOM     17  C   UNL     1       4.272   5.152  -1.906  0.00  0.00    -0.018 C 
ATOM     18  C   UNL     1       4.213   7.483  -4.399  0.00  0.00    +0.006 C 
ATOM     19  C   UNL     1       2.925   7.543  -7.102  0.00  0.00    +0.004 C 
ATOM     20  C   UNL     1       0.800   6.831  -6.404  0.00  0.00    +0.004 C 
ATOM     21  C   UNL     1       1.659   4.528  -5.741  0.00  0.00    +0.038 C 
ATOM     22  C   UNL     1       2.984   6.610  -8.446  0.00  0.00    +0.044 C 
ATOM     23  C   UNL     1       1.821   7.488  -9.180  0.00  0.00    +0.004 C 
ENDROOT
BRANCH   1  24
ATOM     24  C   UNL     1       0.851   5.289  -8.779  0.00  0.00    +0.230 C 
ATOM     25  O   UNL     1      -0.286   5.523  -8.372  0.00  0.00    -0.288 OA
BRANCH  24  26
ATOM     26  C   UNL     1       0.934   4.489 -10.038  0.00  0.00    +0.276 C 
BRANCH  26  27
ATOM     27  O   UNL     1       0.048   4.935 -11.030  0.00  0.00    -0.440 OA
BRANCH  27  28
ATOM     28  C   UNL     1       0.511   5.613 -12.137  0.00  0.00    +0.317 C 
ATOM     29  O   UNL     1       0.823   4.916 -13.146  0.00  0.00    -0.250 OA
BRANCH  28  31
ATOM     30  C   UNL     1      -0.753   7.516 -11.620  0.00  0.00    +0.012 C 
ATOM     31  C   UNL     1       0.229   7.063 -12.374  0.00  0.00    +0.110 C 
ENDBRANCH  28  31
ENDBRANCH  27  28
ENDBRANCH  26  27
ENDBRANCH  24  26
ENDBRANCH   1  24
BRANCH   1  32
ATOM     32  O   UNL     1       2.831   4.304  -8.010  0.00  0.00    -0.448 OA
BRANCH  32  33
ATOM     33  C   UNL     1       3.999   4.409  -8.748  0.00  0.00    +0.317 C 
ATOM     34  O   UNL     1       3.980   4.519 -10.004  0.00  0.00    -0.250 OA
BRANCH  33  35
ATOM     35  C   UNL     1       5.301   4.680  -8.080  0.00  0.00    +0.110 C 
ATOM     36  C   UNL     1       6.250   5.437  -8.992  0.00  0.00    +0.012 C 
ENDBRANCH  33  35
ENDBRANCH  32  33
ENDBRANCH   1  32
TORSDOF 8
ENDMDL
MODEL 2
REMARK VINA RESULT:      -8.2      2.204      7.513
REMARK  Name = 
REMARK  8 active torsions:
REMARK  status: ('A' for Active; 'I' for Inactive)
REMARK    1  A    between atoms: C_2  and  C_3
REMARK    2  A    between atoms: C_3  and  O_5
REMARK    3  A    between atoms: O_5  and  C_6
REMARK    4  A    between atoms: C_6  and  C_7
REMARK    5  A    between atoms: C_7  and  C_9
REMARK    6  A    between atoms: C_9  and  O_10
REMARK    7  A    between atoms: O_10  and  C_11
REMARK    8  A    between atoms: C_11  and  C_13
REMARK                            x       y       z     vdW  Elec       q    Type
REMARK                         _______ _______ _______ _____ _____    ______ ____
ROOT
ATOM      1  C   UNL     1       2.487   6.261  -3.143  0.00  0.00    +0.190 C 
ATOM      2  C   UNL     1       1.753   5.798  -4.319  0.00  0.00    +0.043 C 
ATOM      3  C   UNL     1       3.016   5.867  -5.319  0.00  0.00    +0.005 C 
ATOM      4  C   UNL     1       2.184   4.896  -6.425  0.00  0.00    +0.017 C 
ATOM      5  C   UNL     1       1.469   6.159  -7.100  0.00  0.00    +0.102 C 
ATOM      6  C   UNL     1       0.117   6.451  -6.218  0.00  0.00    +0.166 C 
ATOM      7  O   UNL     1      -0.136   4.989  -5.894  0.00  0.00    -0.222 OA
ATOM      8 CL   UNL     1       2.457   7.562  -7.132  0.00  0.00    -0.113 Cl
ATOM      9  C   UNL     1       1.017   5.794  -8.473  0.00  0.00    +0.049 C 
ATOM     10  C   UNL     1       1.605   4.538  -9.006  0.00  0.00    -0.037 C 
ATOM     11  C   UNL     1       1.246   4.259 -10.264  0.00  0.00    +0.034 C 
ATOM     12  C   UNL     1       0.783   5.339 -11.152  0.00  0.00    +0.195 C 
ATOM     13  C   UNL     1       1.305   6.657 -10.763  0.00  0.00    +0.038 C 
ATOM     14  O   UNL     1       0.504   5.127 -12.372  0.00  0.00    -0.287 OA
ATOM     15  C   UNL     1       2.916   3.991  -8.530  0.00  0.00    +0.022 C 
ATOM     16  C   UNL     1      -0.503   5.698  -8.593  0.00  0.00    +0.010 C 
ATOM     17  C   UNL     1       1.404   6.866  -9.448  0.00  0.00    -0.018 C 
ATOM     18  C   UNL     1       3.419   4.943  -7.475  0.00  0.00    +0.006 C 
ATOM     19  C   UNL     1       3.672   4.637  -4.507  0.00  0.00    +0.004 C 
ATOM     20  C   UNL     1       1.380   4.392  -4.065  0.00  0.00    +0.004 C 
ATOM     21  C   UNL     1       0.863   6.774  -4.798  0.00  0.00    +0.038 C 
ATOM     22  C   UNL     1       3.981   5.640  -3.251  0.00  0.00    +0.044 C 
ATOM     23  C   UNL     1       3.737   4.451  -2.162  0.00  0.00    +0.004 C 
ENDROOT
BRANCH   1  24
ATOM     24  C   UNL     1       1.925   6.046  -1.831  0.00  0.00    +0.230 C 
ATOM     25  O   UNL     1       2.377   5.170  -1.096  0.00  0.00    -0.288 OA
BRANCH  24  26
ATOM     26  C   UNL     1       0.576   6.570  -1.458  0.00  0.00    +0.276 C 
BRANCH  26  27
ATOM     27  O   UNL     1      -0.411   5.573  -1.433  0.00  0.00    -0.440 OA
BRANCH  27  28
ATOM     28  C   UNL     1      -1.598   5.739  -2.114  0.00  0.00    +0.317 C 
ATOM     29  O   UNL     1      -2.479   4.845  -1.954  0.00  0.00    -0.250 OA
BRANCH  28  31
ATOM     30  C   UNL     1      -2.682   6.979  -3.780  0.00  0.00    +0.012 C 
ATOM     31  C   UNL     1      -2.062   7.068  -2.619  0.00  0.00    +0.110 C 
ENDBRANCH  28  31
ENDBRANCH  27  28
ENDBRANCH  26  27
ENDBRANCH  24  26
ENDBRANCH   1  24
BRANCH   1  32
ATOM     32  O   UNL     1       2.762   7.651  -3.318  0.00  0.00    -0.448 OA
BRANCH  32  33
ATOM     33  C   UNL     1       3.877   8.187  -2.694  0.00  0.00    +0.317 C 
ATOM     34  O   UNL     1       4.961   8.362  -3.314  0.00  0.00    -0.250 OA
BRANCH  33  35
ATOM     35  C   UNL     1       3.766   8.837  -1.360  0.00  0.00    +0.110 C 
ATOM     36  C   UNL     1       4.393   7.987  -0.270  0.00  0.00    +0.012 C 
ENDBRANCH  33  35
ENDBRANCH  32  33
ENDBRANCH   1  32
TORSDOF 8
ENDMDL
MODEL 3
REMARK VINA RESULT:      -7.5      1.708      2.921
REMARK  Name = 
REMARK  8 active torsions:
REMARK  status: ('A' for Active; 'I' for Inactive)
REMARK    1  A    between atoms: C_2  and  C_3
REMARK    2  A    between atoms: C_3  and  O_5
REMARK    3  A    between atoms: O_5  and  C_6
REMARK    4  A    between atoms: C_6  and  C_7
REMARK    5  A    between atoms: C_7  and  C_9
REMARK    6  A    between atoms: C_9  and  O_10
REMARK    7  A    between atoms: O_10  and  C_11
REMARK    8  A    between atoms: C_11  and  C_13
REMARK                            x       y       z     vdW  Elec       q    Type
REMARK                         _______ _______ _______ _____ _____    ______ ____
ROOT
ATOM      1  C   UNL     1       1.524   5.537  -7.164  0.00  0.00    +0.190 C 
ATOM      2  C   UNL     1       1.474   5.931  -5.757  0.00  0.00    +0.043 C 
ATOM      3  C   UNL     1       3.054   6.223  -5.627  0.00  0.00    +0.005 C 
ATOM      4  C   UNL     1       2.771   7.085  -4.201  0.00  0.00    +0.017 C 
ATOM      5  C   UNL     1       2.852   5.761  -3.305  0.00  0.00    +0.102 C 
ATOM      6  C   UNL     1       1.346   5.110  -3.304  0.00  0.00    +0.166 C 
ATOM      7  O   UNL     1       0.633   6.449  -3.364  0.00  0.00    -0.222 OA
ATOM      8 CL   UNL     1       3.983   4.612  -3.891  0.00  0.00    -0.113 Cl
ATOM      9  C   UNL     1       3.158   6.139  -1.895  0.00  0.00    +0.049 C 
ATOM     10  C   UNL     1       3.639   7.534  -1.717  0.00  0.00    -0.037 C 
ATOM     11  C   UNL     1       3.975   7.838  -0.459  0.00  0.00    +0.034 C 
ATOM     12  C   UNL     1       4.335   6.765   0.485  0.00  0.00    +0.195 C 
ATOM     13  C   UNL     1       4.841   5.561  -0.191  0.00  0.00    +0.038 C 
ATOM     14  O   UNL     1       4.732   7.017   1.663  0.00  0.00    -0.287 OA
ATOM     15  C   UNL     1       4.308   8.307  -2.811  0.00  0.00    +0.022 C 
ATOM     16  C   UNL     1       1.979   5.916  -0.949  0.00  0.00    +0.010 C 
ATOM     17  C   UNL     1       4.248   5.265  -1.349  0.00  0.00    -0.018 C 
ATOM     18  C   UNL     1       4.351   7.397  -4.013  0.00  0.00    +0.006 C 
ATOM     19  C   UNL     1       2.857   7.490  -6.607  0.00  0.00    +0.004 C 
ATOM     20  C   UNL     1       0.714   7.197  -5.695  0.00  0.00    +0.004 C 
ATOM     21  C   UNL     1       1.241   4.833  -4.913  0.00  0.00    +0.038 C 
ATOM     22  C   UNL     1       2.645   6.471  -7.871  0.00  0.00    +0.044 C 
ATOM     23  C   UNL     1       1.581   7.481  -8.584  0.00  0.00    +0.004 C 
ENDROOT
BRANCH   1  24
ATOM     24  C   UNL     1       0.304   5.511  -7.933  0.00  0.00    +0.230 C 
ATOM     25  O   UNL     1       0.187   6.209  -8.939  0.00  0.00    -0.288 OA
BRANCH  24  26
ATOM     26  C   UNL     1      -0.970   4.972  -7.368  0.00  0.00    +0.276 C 
BRANCH  26  27
ATOM     27  O   UNL     1      -1.934   5.968  -7.146  0.00  0.00    -0.440 OA
BRANCH  27  28
ATOM     28  C   UNL     1      -2.568   6.077  -5.927  0.00  0.00    +0.317 C 
ATOM     29  O   UNL     1      -2.691   5.016  -5.248  0.00  0.00    -0.250 OA
BRANCH  28  31
ATOM     30  C   UNL     1      -2.607   7.218  -3.881  0.00  0.00    +0.012 C 
ATOM     31  C   UNL     1      -2.683   7.373  -5.189  0.00  0.00    +0.110 C 
ENDBRANCH  28  31
ENDBRANCH  27  28
ENDBRANCH  26  27
ENDBRANCH  24  26
ENDBRANCH   1  24
BRANCH   1  32
ATOM     32  O   UNL     1       2.157   4.259  -7.237  0.00  0.00    -0.448 OA
BRANCH  32  33
ATOM     33  C   UNL     1       2.711   3.865  -8.444  0.00  0.00    +0.317 C 
ATOM     34  O   UNL     1       1.994   3.480  -9.407  0.00  0.00    -0.250 OA
BRANCH  33  35
ATOM     35  C   UNL     1       4.139   4.145  -8.754  0.00  0.00    +0.110 C 
ATOM     36  C   UNL     1       4.289   4.903 -10.061  0.00  0.00    +0.012 C 
ENDBRANCH  33  35
ENDBRANCH  32  33
ENDBRANCH   1  32
TORSDOF 8
ENDMDL
MODEL 4
REMARK VINA RESULT:      -7.4      1.447      2.082
REMARK  Name = 
REMARK  8 active torsions:
REMARK  status: ('A' for Active; 'I' for Inactive)
REMARK    1  A    between atoms: C_2  and  C_3
REMARK    2  A    between atoms: C_3  and  O_5
REMARK    3  A    between atoms: O_5  and  C_6
REMARK    4  A    between atoms: C_6  and  C_7
REMARK    5  A    between atoms: C_7  and  C_9
REMARK    6  A    between atoms: C_9  and  O_10
REMARK    7  A    between atoms: O_10  and  C_11
REMARK    8  A    between atoms: C_11  and  C_13
REMARK                            x       y       z     vdW  Elec       q    Type
REMARK                         _______ _______ _______ _____ _____    ______ ____
ROOT
ATOM      1  C   UNL     1       2.546   5.763  -8.123  0.00  0.00    +0.190 C 
ATOM      2  C   UNL     1       2.820   5.316  -6.758  0.00  0.00    +0.043 C 
ATOM      3  C   UNL     1       2.268   6.655  -6.049  0.00  0.00    +0.005 C 
ATOM      4  C   UNL     1       2.194   5.835  -4.573  0.00  0.00    +0.017 C 
ATOM      5  C   UNL     1       3.720   6.176  -4.230  0.00  0.00    +0.102 C 
ATOM      6  C   UNL     1       4.626   5.000  -4.928  0.00  0.00    +0.166 C 
ATOM      7  O   UNL     1       3.588   3.910  -4.726  0.00  0.00    -0.222 OA
ATOM      8 CL   UNL     1       4.218   7.714  -4.805  0.00  0.00    -0.113 Cl
ATOM      9  C   UNL     1       3.931   6.063  -2.758  0.00  0.00    +0.049 C 
ATOM     10  C   UNL     1       2.682   6.012  -1.954  0.00  0.00    -0.037 C 
ATOM     11  C   UNL     1       2.884   5.982  -0.633  0.00  0.00    +0.034 C 
ATOM     12  C   UNL     1       4.149   6.488  -0.072  0.00  0.00    +0.195 C 
ATOM     13  C   UNL     1       4.796   7.484  -0.940  0.00  0.00    +0.038 C 
ATOM     14  O   UNL     1       4.349   6.545   1.179  0.00  0.00    -0.287 OA
ATOM     15  C   UNL     1       1.384   6.585  -2.436  0.00  0.00    +0.022 C 
ATOM     16  C   UNL     1       4.797   4.866  -2.370  0.00  0.00    +0.010 C 
ATOM     17  C   UNL     1       4.687   7.255  -2.250  0.00  0.00    -0.018 C 
ATOM     18  C   UNL     1       1.650   7.156  -3.806  0.00  0.00    +0.006 C 
ATOM     19  C   UNL     1       0.782   6.242  -6.523  0.00  0.00    +0.004 C 
ATOM     20  C   UNL     1       1.910   4.184  -6.488  0.00  0.00    +0.004 C 
ATOM     21  C   UNL     1       4.196   5.303  -6.477  0.00  0.00    +0.038 C 
ATOM     22  C   UNL     1       1.174   6.625  -8.065  0.00  0.00    +0.044 C 
ATOM     23  C   UNL     1       0.221   5.445  -8.664  0.00  0.00    +0.004 C 
ENDROOT
BRANCH   1  24
ATOM     24  C   UNL     1       2.509   4.792  -9.189  0.00  0.00    +0.230 C 
ATOM     25  O   UNL     1       2.831   3.623  -8.978  0.00  0.00    -0.288 OA
BRANCH  24  26
ATOM     26  C   UNL     1       2.466   5.201 -10.625  0.00  0.00    +0.276 C 
BRANCH  26  27
ATOM     27  O   UNL     1       1.209   5.000 -11.215  0.00  0.00    -0.440 OA
BRANCH  27  28
ATOM     28  C   UNL     1       0.871   5.637 -12.390  0.00  0.00    +0.317 C 
ATOM     29  O   UNL     1       0.506   4.904 -13.354  0.00  0.00    -0.250 OA
BRANCH  28  31
ATOM     30  C   UNL     1      -0.548   7.349 -11.651  0.00  0.00    +0.012 C 
ATOM     31  C   UNL     1       0.472   7.077 -12.443  0.00  0.00    +0.110 C 
ENDBRANCH  28  31
ENDBRANCH  27  28
ENDBRANCH  26  27
ENDBRANCH  24  26
ENDBRANCH   1  24
BRANCH   1  32
ATOM     32  O   UNL     1       3.490   6.784  -8.446  0.00  0.00    -0.448 OA
BRANCH  32  33
ATOM     33  C   UNL     1       4.461   6.510  -9.396  0.00  0.00    +0.317 C 
ATOM     34  O   UNL     1       4.546   7.173 -10.464  0.00  0.00    -0.250 OA
BRANCH  33  35
ATOM     35  C   UNL     1       5.609   5.621  -9.075  0.00  0.00    +0.110 C 
ATOM     36  C   UNL     1       6.846   5.995  -9.871  0.00  0.00    +0.012 C 
ENDBRANCH  33  35
ENDBRANCH  32  33
ENDBRANCH   1  32
TORSDOF 8
ENDMDL
MODEL 5
REMARK VINA RESULT:      -7.3      2.231      8.011
REMARK  Name = 
REMARK  8 active torsions:
REMARK  status: ('A' for Active; 'I' for Inactive)
REMARK    1  A    between atoms: C_2  and  C_3
REMARK    2  A    between atoms: C_3  and  O_5
REMARK    3  A    between atoms: O_5  and  C_6
REMARK    4  A    between atoms: C_6  and  C_7
REMARK    5  A    between atoms: C_7  and  C_9
REMARK    6  A    between atoms: C_9  and  O_10
REMARK    7  A    between atoms: O_10  and  C_11
REMARK    8  A    between atoms: C_11  and  C_13
REMARK                            x       y       z     vdW  Elec       q    Type
REMARK                         _______ _______ _______ _____ _____    ______ ____
ROOT
ATOM      1  C   UNL     1       1.848   5.500  -5.497  0.00  0.00    +0.190 C 
ATOM      2  C   UNL     1       2.096   6.131  -6.791  0.00  0.00    +0.043 C 
ATOM      3  C   UNL     1       1.691   4.840  -7.667  0.00  0.00    +0.005 C 
ATOM      4  C   UNL     1       1.558   5.819  -9.039  0.00  0.00    +0.017 C 
ATOM      5  C   UNL     1       3.116   5.672  -9.378  0.00  0.00    +0.102 C 
ATOM      6  C   UNL     1       3.889   6.838  -8.522  0.00  0.00    +0.166 C 
ATOM      7  O   UNL     1       2.752   7.839  -8.623  0.00  0.00    -0.222 OA
ATOM      8 CL   UNL     1       3.756   4.132  -8.975  0.00  0.00    -0.113 Cl
ATOM      9  C   UNL     1       3.336   5.979 -10.821  0.00  0.00    +0.049 C 
ATOM     10  C   UNL     1       2.100   6.005 -11.646  0.00  0.00    -0.037 C 
ATOM     11  C   UNL     1       2.318   6.213 -12.949  0.00  0.00    +0.034 C 
ATOM     12  C   UNL     1       3.635   5.902 -13.531  0.00  0.00    +0.195 C 
ATOM     13  C   UNL     1       4.365   4.878 -12.769  0.00  0.00    +0.038 C 
ATOM     14  O   UNL     1       3.859   6.015 -14.775  0.00  0.00    -0.287 OA
ATOM     15  C   UNL     1       0.859   5.255 -11.270  0.00  0.00    +0.022 C 
ATOM     16  C   UNL     1       4.085   7.293 -11.042  0.00  0.00    +0.010 C 
ATOM     17  C   UNL     1       4.214   4.936 -11.445  0.00  0.00    -0.018 C 
ATOM     18  C   UNL     1       1.160   4.553  -9.969  0.00  0.00    +0.006 C 
ATOM     19  C   UNL     1       0.164   5.047  -7.189  0.00  0.00    +0.004 C 
ATOM     20  C   UNL     1       1.083   7.194  -6.951  0.00  0.00    +0.004 C 
ATOM     21  C   UNL     1       3.469   6.312  -7.032  0.00  0.00    +0.038 C 
ATOM     22  C   UNL     1       0.569   4.521  -5.692  0.00  0.00    +0.044 C 
ATOM     23  C   UNL     1      -0.505   5.524  -4.984  0.00  0.00    +0.004 C 
ENDROOT
BRANCH   1  24
ATOM     24  C   UNL     1       1.698   6.328  -4.325  0.00  0.00    +0.230 C 
ATOM     25  O   UNL     1       2.304   7.396  -4.235  0.00  0.00    -0.288 OA
BRANCH  24  26
ATOM     26  C   UNL     1       1.148   5.789  -3.045  0.00  0.00    +0.276 C 
BRANCH  26  27
ATOM     27  O   UNL     1       1.464   6.586  -1.935  0.00  0.00    -0.440 OA
BRANCH  27  28
ATOM     28  C   UNL     1       2.212   6.079  -0.893  0.00  0.00    +0.317 C 
ATOM     29  O   UNL     1       1.922   4.915  -0.492  0.00  0.00    -0.250 OA
BRANCH  28  31
ATOM     30  C   UNL     1       3.683   7.896  -0.745  0.00  0.00    +0.012 C 
ATOM     31  C   UNL     1       3.572   6.597  -0.549  0.00  0.00    +0.110 C 
ENDBRANCH  28  31
ENDBRANCH  27  28
ENDBRANCH  26  27
ENDBRANCH  24  26
ENDBRANCH   1  24
BRANCH   1  32
ATOM     32  O   UNL     1       2.884   4.543  -5.271  0.00  0.00    -0.448 OA
BRANCH  32  33
ATOM     33  C   UNL     1       3.878   4.851  -4.356  0.00  0.00    +0.317 C 
ATOM     34  O   UNL     1       3.897   4.340  -3.203  0.00  0.00    -0.250 OA
BRANCH  33  35
ATOM     35  C   UNL     1       5.111   5.566  -4.783  0.00  0.00    +0.110 C 
ATOM     36  C   UNL     1       5.431   6.728  -3.861  0.00  0.00    +0.012 C 
ENDBRANCH  33  35
ENDBRANCH  32  33
ENDBRANCH   1  32
TORSDOF 8
ENDMDL
MODEL 6
REMARK VINA RESULT:      -7.3      2.008      4.057
REMARK  Name = 
REMARK  8 active torsions:
REMARK  status: ('A' for Active; 'I' for Inactive)
REMARK    1  A    between atoms: C_2  and  C_3
REMARK    2  A    between atoms: C_3  and  O_5
REMARK    3  A    between atoms: O_5  and  C_6
REMARK    4  A    between atoms: C_6  and  C_7
REMARK    5  A    between atoms: C_7  and  C_9
REMARK    6  A    between atoms: C_9  and  O_10
REMARK    7  A    between atoms: O_10  and  C_11
REMARK    8  A    between atoms: C_11  and  C_13
REMARK                            x       y       z     vdW  Elec       q    Type
REMARK                         _______ _______ _______ _____ _____    ______ ____
ROOT
ATOM      1  C   UNL     1       2.329   5.664  -7.622  0.00  0.00    +0.190 C 
ATOM      2  C   UNL     1       3.171   5.960  -6.465  0.00  0.00    +0.043 C 
ATOM      3  C   UNL     1       2.244   5.180  -5.402  0.00  0.00    +0.005 C 
ATOM      4  C   UNL     1       3.520   5.189  -4.292  0.00  0.00    +0.017 C 
ATOM      5  C   UNL     1       3.109   6.630  -3.728  0.00  0.00    +0.102 C 
ATOM      6  C   UNL     1       3.839   7.733  -4.698  0.00  0.00    +0.166 C 
ATOM      7  O   UNL     1       5.065   6.876  -4.956  0.00  0.00    -0.222 OA
ATOM      8 CL   UNL     1       1.414   6.896  -3.717  0.00  0.00    -0.113 Cl
ATOM      9  C   UNL     1       3.685   6.807  -2.364  0.00  0.00    +0.049 C 
ATOM     10  C   UNL     1       4.179   5.556  -1.732  0.00  0.00    -0.037 C 
ATOM     11  C   UNL     1       4.630   5.718  -0.483  0.00  0.00    +0.034 C 
ATOM     12  C   UNL     1       4.174   6.867   0.319  0.00  0.00    +0.195 C 
ATOM     13  C   UNL     1       2.864   7.376  -0.112  0.00  0.00    +0.038 C 
ATOM     14  O   UNL     1       4.520   7.014   1.530  0.00  0.00    -0.287 OA
ATOM     15  C   UNL     1       3.662   4.201  -2.104  0.00  0.00    +0.022 C 
ATOM     16  C   UNL     1       4.811   7.839  -2.323  0.00  0.00    +0.010 C 
ATOM     17  C   UNL     1       2.645   7.347  -1.428  0.00  0.00    -0.018 C 
ATOM     18  C   UNL     1       2.628   4.418  -3.180  0.00  0.00    +0.006 C 
ATOM     19  C   UNL     1       2.672   3.795  -6.109  0.00  0.00    +0.004 C 
ATOM     20  C   UNL     1       4.442   5.234  -6.663  0.00  0.00    +0.004 C 
ATOM     21  C   UNL     1       3.089   7.312  -6.089  0.00  0.00    +0.038 C 
ATOM     22  C   UNL     1       1.737   4.171  -7.398  0.00  0.00    +0.044 C 
ATOM     23  C   UNL     1       2.762   3.438  -8.433  0.00  0.00    +0.004 C 
ENDROOT
BRANCH   1  24
ATOM     24  C   UNL     1       2.875   5.816  -8.949  0.00  0.00    +0.230 C 
ATOM     25  O   UNL     1       2.916   4.858  -9.720  0.00  0.00    -0.288 OA
BRANCH  24  26
ATOM     26  C   UNL     1       3.743   6.976  -9.314  0.00  0.00    +0.276 C 
BRANCH  26  27
ATOM     27  O   UNL     1       4.205   6.919 -10.637  0.00  0.00    -0.440 OA
BRANCH  27  28
ATOM     28  C   UNL     1       5.556   6.895 -10.913  0.00  0.00    +0.317 C 
ATOM     29  O   UNL     1       6.106   8.001 -11.183  0.00  0.00    -0.250 OA
BRANCH  28  31
ATOM     30  C   UNL     1       7.394   6.193  -9.640  0.00  0.00    +0.012 C 
ATOM     31  C   UNL     1       6.452   5.783 -10.467  0.00  0.00    +0.110 C 
ENDBRANCH  28  31
ENDBRANCH  27  28
ENDBRANCH  26  27
ENDBRANCH  24  26
ENDBRANCH   1  24
BRANCH   1  32
ATOM     32  O   UNL     1       1.139   6.443  -7.508  0.00  0.00    -0.448 OA
BRANCH  32  33
ATOM     33  C   UNL     1      -0.032   5.946  -8.058  0.00  0.00    +0.317 C 
ATOM     34  O   UNL     1      -0.175   5.820  -9.305  0.00  0.00    -0.250 OA
BRANCH  33  35
ATOM     35  C   UNL     1      -1.051   5.279  -7.205  0.00  0.00    +0.110 C 
ATOM     36  C   UNL     1      -1.324   6.070  -5.938  0.00  0.00    +0.012 C 
ENDBRANCH  33  35
ENDBRANCH  32  33
ENDBRANCH   1  32
TORSDOF 8
ENDMDL
MODEL 7
REMARK VINA RESULT:      -7.3      1.872      8.214
REMARK  Name = 
REMARK  8 active torsions:
REMARK  status: ('A' for Active; 'I' for Inactive)
REMARK    1  A    between atoms: C_2  and  C_3
REMARK    2  A    between atoms: C_3  and  O_5
REMARK    3  A    between atoms: O_5  and  C_6
REMARK    4  A    between atoms: C_6  and  C_7
REMARK    5  A    between atoms: C_7  and  C_9
REMARK    6  A    between atoms: C_9  and  O_10
REMARK    7  A    between atoms: O_10  and  C_11
REMARK    8  A    between atoms: C_11  and  C_13
REMARK                            x       y       z     vdW  Elec       q    Type
REMARK                         _______ _______ _______ _____ _____    ______ ____
ROOT
ATOM      1  C   UNL     1       2.711   6.143  -3.321  0.00  0.00    +0.190 C 
ATOM      2  C   UNL     1       2.759   5.538  -4.650  0.00  0.00    +0.043 C 
ATOM      3  C   UNL     1       2.498   6.913  -5.450  0.00  0.00    +0.005 C 
ATOM      4  C   UNL     1       3.045   6.182  -6.873  0.00  0.00    +0.017 C 
ATOM      5  C   UNL     1       1.592   5.604  -7.215  0.00  0.00    +0.102 C 
ATOM      6  C   UNL     1       1.469   4.168  -6.430  0.00  0.00    +0.166 C 
ATOM      7  O   UNL     1       2.939   3.821  -6.579  0.00  0.00    -0.222 OA
ATOM      8 CL   UNL     1       0.316   6.643  -6.730  0.00  0.00    -0.113 Cl
ATOM      9  C   UNL     1       1.511   5.305  -8.673  0.00  0.00    +0.049 C 
ATOM     10  C   UNL     1       2.600   5.903  -9.490  0.00  0.00    -0.037 C 
ATOM     11  C   UNL     1       2.478   5.686 -10.804  0.00  0.00    +0.034 C 
ATOM     12  C   UNL     1       1.156   5.376 -11.377  0.00  0.00    +0.195 C 
ATOM     13  C   UNL     1       0.048   5.900 -10.564  0.00  0.00    +0.038 C 
ATOM     14  O   UNL     1       0.986   5.238 -12.626  0.00  0.00    -0.287 OA
ATOM     15  C   UNL     1       3.355   7.124  -9.064  0.00  0.00    +0.022 C 
ATOM     16  C   UNL     1       1.457   3.808  -8.973  0.00  0.00    +0.010 C 
ATOM     17  C   UNL     1       0.236   5.849  -9.244  0.00  0.00    -0.018 C 
ATOM     18  C   UNL     1       2.788   7.535  -7.729  0.00  0.00    +0.006 C 
ATOM     19  C   UNL     1       3.954   7.418  -4.973  0.00  0.00    +0.004 C 
ATOM     20  C   UNL     1       4.148   5.081  -4.862  0.00  0.00    +0.004 C 
ATOM     21  C   UNL     1       1.625   4.750  -4.910  0.00  0.00    +0.038 C 
ATOM     22  C   UNL     1       3.381   7.614  -3.452  0.00  0.00    +0.044 C 
ATOM     23  C   UNL     1       4.813   7.193  -2.794  0.00  0.00    +0.004 C 
ENDROOT
BRANCH   1  24
ATOM     24  C   UNL     1       3.253   5.419  -2.196  0.00  0.00    +0.230 C 
ATOM     25  O   UNL     1       3.735   4.298  -2.351  0.00  0.00    -0.288 OA
BRANCH  24  26
ATOM     26  C   UNL     1       2.921   5.791  -0.788  0.00  0.00    +0.276 C 
BRANCH  26  27
ATOM     27  O   UNL     1       4.058   6.016   0.002  0.00  0.00    -0.440 OA
BRANCH  27  28
ATOM     28  C   UNL     1       4.172   7.158   0.766  0.00  0.00    +0.317 C 
ATOM     29  O   UNL     1       5.309   7.405   1.262  0.00  0.00    -0.250 OA
BRANCH  28  31
ATOM     30  C   UNL     1       3.752   9.354   0.067  0.00  0.00    +0.012 C 
ATOM     31  C   UNL     1       3.216   8.303   0.656  0.00  0.00    +0.110 C 
ENDBRANCH  28  31
ENDBRANCH  27  28
ENDBRANCH  26  27
ENDBRANCH  24  26
ENDBRANCH   1  24
BRANCH   1  32
ATOM     32  O   UNL     1       1.353   6.492  -3.049  0.00  0.00    -0.448 OA
BRANCH  32  33
ATOM     33  C   UNL     1       0.431   5.472  -2.875  0.00  0.00    +0.317 C 
ATOM     34  O   UNL     1       0.546   4.628  -1.946  0.00  0.00    -0.250 OA
BRANCH  33  35
ATOM     35  C   UNL     1      -0.873   5.495  -3.590  0.00  0.00    +0.110 C 
ATOM     36  C   UNL     1      -1.501   6.877  -3.564  0.00  0.00    +0.012 C 
ENDBRANCH  33  35
ENDBRANCH  32  33
ENDBRANCH   1  32
TORSDOF 8
ENDMDL
MODEL 8
REMARK VINA RESULT:      -7.2      2.131      8.588
REMARK  Name = 
REMARK  8 active torsions:
REMARK  status: ('A' for Active; 'I' for Inactive)
REMARK    1  A    between atoms: C_2  and  C_3
REMARK    2  A    between atoms: C_3  and  O_5
REMARK    3  A    between atoms: O_5  and  C_6
REMARK    4  A    between atoms: C_6  and  C_7
REMARK    5  A    between atoms: C_7  and  C_9
REMARK    6  A    between atoms: C_9  and  O_10
REMARK    7  A    between atoms: O_10  and  C_11
REMARK    8  A    between atoms: C_11  and  C_13
REMARK                            x       y       z     vdW  Elec       q    Type
REMARK                         _______ _______ _______ _____ _____    ______ ____
ROOT
ATOM      1  C   UNL     1       2.079   5.867  -6.375  0.00  0.00    +0.190 C 
ATOM      2  C   UNL     1       1.874   5.340  -7.723  0.00  0.00    +0.043 C 
ATOM      3  C   UNL     1       2.531   6.603  -8.479  0.00  0.00    +0.005 C 
ATOM      4  C   UNL     1       2.663   5.681  -9.890  0.00  0.00    +0.017 C 
ATOM      5  C   UNL     1       1.180   6.060 -10.358  0.00  0.00    +0.102 C 
ATOM      6  C   UNL     1       0.179   4.972  -9.646  0.00  0.00    +0.166 C 
ATOM      7  O   UNL     1       1.176   3.829  -9.706  0.00  0.00    -0.222 OA
ATOM      8 CL   UNL     1       0.716   7.652  -9.920  0.00  0.00    -0.113 Cl
ATOM      9  C   UNL     1       1.061   5.855 -11.830  0.00  0.00    +0.049 C 
ATOM     10  C   UNL     1       2.356   5.698 -12.541  0.00  0.00    -0.037 C 
ATOM     11  C   UNL     1       2.239   5.586 -13.869  0.00  0.00    +0.034 C 
ATOM     12  C   UNL     1       1.038   6.104 -14.546  0.00  0.00    +0.195 C 
ATOM     13  C   UNL     1       0.381   7.182 -13.792  0.00  0.00    +0.038 C 
ATOM     14  O   UNL     1       0.922   6.083 -15.809  0.00  0.00    -0.287 OA
ATOM     15  C   UNL     1       3.644   6.250 -12.011  0.00  0.00    +0.022 C 
ATOM     16  C   UNL     1       0.168   4.671 -12.196  0.00  0.00    +0.010 C 
ATOM     17  C   UNL     1       0.394   7.039 -12.465  0.00  0.00    -0.018 C 
ATOM     18  C   UNL     1       3.315   6.923 -10.703  0.00  0.00    +0.006 C 
ATOM     19  C   UNL     1       3.963   6.163  -7.880  0.00  0.00    +0.004 C 
ATOM     20  C   UNL     1       2.747   4.155  -7.856  0.00  0.00    +0.004 C 
ATOM     21  C   UNL     1       0.520   5.363  -8.095  0.00  0.00    +0.038 C 
ATOM     22  C   UNL     1       3.489   6.667  -6.396  0.00  0.00    +0.044 C 
ATOM     23  C   UNL     1       4.347   5.492  -5.657  0.00  0.00    +0.004 C 
ENDROOT
BRANCH   1  24
ATOM     24  C   UNL     1       2.002   4.970  -5.248  0.00  0.00    +0.230 C 
ATOM     25  O   UNL     1       1.122   4.112  -5.192  0.00  0.00    -0.288 OA
BRANCH  24  26
ATOM     26  C   UNL     1       2.697   5.267  -3.958  0.00  0.00    +0.276 C 
BRANCH  26  27
ATOM     27  O   UNL     1       1.885   5.048  -2.836  0.00  0.00    -0.440 OA
BRANCH  27  28
ATOM     28  C   UNL     1       2.419   5.059  -1.565  0.00  0.00    +0.317 C 
ATOM     29  O   UNL     1       1.673   4.655  -0.626  0.00  0.00    -0.250 OA
BRANCH  28  31
ATOM     30  C   UNL     1       4.302   6.180  -0.736  0.00  0.00    +0.012 C 
ATOM     31  C   UNL     1       3.892   5.064  -1.308  0.00  0.00    +0.110 C 
ENDBRANCH  28  31
ENDBRANCH  27  28
ENDBRANCH  26  27
ENDBRANCH  24  26
ENDBRANCH   1  24
BRANCH   1  32
ATOM     32  O   UNL     1       1.163   6.946  -6.184  0.00  0.00    -0.448 OA
BRANCH  32  33
ATOM     33  C   UNL     1       0.092   6.759  -5.325  0.00  0.00    +0.317 C 
ATOM     34  O   UNL     1       0.100   7.216  -4.150  0.00  0.00    -0.250 OA
BRANCH  33  35
ATOM     35  C   UNL     1      -1.216   6.266  -5.834  0.00  0.00    +0.110 C 
ATOM     36  C   UNL     1      -2.154   5.897  -4.700  0.00  0.00    +0.012 C 
ENDBRANCH  33  35
ENDBRANCH  32  33
ENDBRANCH   1  32
TORSDOF 8
ENDMDL
MODEL 9
REMARK VINA RESULT:      -7.2      2.290      3.312
REMARK  Name = 
REMARK  8 active torsions:
REMARK  status: ('A' for Active; 'I' for Inactive)
REMARK    1  A    between atoms: C_2  and  C_3
REMARK    2  A    between atoms: C_3  and  O_5
REMARK    3  A    between atoms: O_5  and  C_6
REMARK    4  A    between atoms: C_6  and  C_7
REMARK    5  A    between atoms: C_7  and  C_9
REMARK    6  A    between atoms: C_9  and  O_10
REMARK    7  A    between atoms: O_10  and  C_11
REMARK    8  A    between atoms: C_11  and  C_13
REMARK                            x       y       z     vdW  Elec       q    Type
REMARK                         _______ _______ _______ _____ _____    ______ ____
ROOT
ATOM      1  C   UNL     1       3.321   5.920  -9.027  0.00  0.00    +0.190 C 
ATOM      2  C   UNL     1       3.110   5.429  -7.667  0.00  0.00    +0.043 C 
ATOM      3  C   UNL     1       2.355   6.754  -7.145  0.00  0.00    +0.005 C 
ATOM      4  C   UNL     1       1.778   5.892  -5.810  0.00  0.00    +0.017 C 
ATOM      5  C   UNL     1       3.096   6.200  -4.956  0.00  0.00    +0.102 C 
ATOM      6  C   UNL     1       4.181   5.032  -5.342  0.00  0.00    +0.166 C 
ATOM      7  O   UNL     1       3.133   3.952  -5.541  0.00  0.00    -0.222 OA
ATOM      8 CL   UNL     1       3.767   7.747  -5.276  0.00  0.00    -0.113 Cl
ATOM      9  C   UNL     1       2.791   6.041  -3.505  0.00  0.00    +0.049 C 
ATOM     10  C   UNL     1       1.342   5.985  -3.179  0.00  0.00    -0.037 C 
ATOM     11  C   UNL     1       1.081   5.912  -1.869  0.00  0.00    +0.034 C 
ATOM     12  C   UNL     1       2.079   6.383  -0.894  0.00  0.00    +0.195 C 
ATOM     13  C   UNL     1       2.988   7.394  -1.455  0.00  0.00    +0.038 C 
ATOM     14  O   UNL     1       1.840   6.400   0.352  0.00  0.00    -0.287 OA
ATOM     15  C   UNL     1       0.289   6.591  -4.055  0.00  0.00    +0.022 C 
ATOM     16  C   UNL     1       3.467   4.820  -2.884  0.00  0.00    +0.010 C 
ATOM     17  C   UNL     1       3.332   7.206  -2.731  0.00  0.00    -0.018 C 
ATOM     18  C   UNL     1       1.010   7.198  -5.232  0.00  0.00    +0.006 C 
ATOM     19  C   UNL     1       1.118   6.378  -8.111  0.00  0.00    +0.004 C 
ATOM     20  C   UNL     1       2.159   4.303  -7.760  0.00  0.00    +0.004 C 
ATOM     21  C   UNL     1       4.308   5.387  -6.934  0.00  0.00    +0.038 C 
ATOM     22  C   UNL     1       2.015   6.801  -9.413  0.00  0.00    +0.044 C 
ATOM     23  C   UNL     1       1.319   5.653 -10.340  0.00  0.00    +0.004 C 
ENDROOT
BRANCH   1  24
ATOM     24  C   UNL     1       3.646   4.982 -10.073  0.00  0.00    +0.230 C 
ATOM     25  O   UNL     1       4.303   3.971  -9.822  0.00  0.00    -0.288 OA
BRANCH  24  26
ATOM     26  C   UNL     1       3.560   5.353 -11.518  0.00  0.00    +0.276 C 
BRANCH  26  27
ATOM     27  O   UNL     1       4.600   4.808 -12.286  0.00  0.00    -0.440 OA
BRANCH  27  28
ATOM     28  C   UNL     1       4.889   5.308 -13.538  0.00  0.00    +0.317 C 
ATOM     29  O   UNL     1       3.939   5.857 -14.169  0.00  0.00    -0.250 OA
BRANCH  28  31
ATOM     30  C   UNL     1       6.452   6.948 -14.135  0.00  0.00    +0.012 C 
ATOM     31  C   UNL     1       6.279   5.651 -13.971  0.00  0.00    +0.110 C 
ENDBRANCH  28  31
ENDBRANCH  27  28
ENDBRANCH  26  27
ENDBRANCH  24  26
ENDBRANCH   1  24
BRANCH   1  32
ATOM     32  O   UNL     1       4.322   6.937  -8.975  0.00  0.00    -0.448 OA
BRANCH  32  33
ATOM     33  C   UNL     1       5.300   6.950  -9.957  0.00  0.00    +0.317 C 
ATOM     34  O   UNL     1       5.249   7.749 -10.930  0.00  0.00    -0.250 OA
BRANCH  33  35
ATOM     35  C   UNL     1       6.587   6.231  -9.759  0.00  0.00    +0.110 C 
ATOM     36  C   UNL     1       7.697   6.827 -10.605  0.00  0.00    +0.012 C 
ENDBRANCH  33  35
ENDBRANCH  32  33
ENDBRANCH   1  32
TORSDOF 8
ENDMDL
