MODEL 1
REMARK VINA RESULT:      -4.5      0.000      0.000
REMARK  Name = 
REMARK  1 active torsions:
REMARK  status: ('A' for Active; 'I' for Inactive)
REMARK    1  A    between atoms: C_2  and  CA_4
REMARK                            x       y       z     vdW  Elec       q    Type
REMARK                         _______ _______ _______ _____ _____    ______ ____
ROOT
ATOM      1  CA  HYP A   1       7.056   6.677 -12.194  0.00  0.00    +0.178 C 
ATOM      2  N   HYP A   1       7.179   7.207 -10.707  0.00  0.00    -0.206 NA
ATOM      3  CD  HYP A   1       6.961   6.127  -9.921  0.00  0.00    +0.122 C 
ATOM      4  CG  HYP A   1       5.377   5.914 -10.390  0.00  0.00    +0.171 C 
ATOM      5  OD  HYP A   1       5.076   7.405 -10.642  0.00  0.00    -0.222 OA
ATOM      6  CB  HYP A   1       5.839   5.604 -11.937  0.00  0.00    +0.063 C 
ENDROOT
BRANCH   1   8
ATOM      7  O   HYP A   1       7.834   4.625 -12.862  0.00  0.00    -0.244 OA
ATOM      8  C   HYP A   1       8.210   5.521 -12.030  0.00  0.00    +0.380 C 
ATOM      9  OXT HYP A   1       9.503   5.889 -12.307  0.00  0.00    -0.244 OA
ENDBRANCH   1   8
TORSDOF 1
ENDMDL
MODEL 2
REMARK VINA RESULT:      -4.1      1.913      3.169
REMARK  Name = 
REMARK  1 active torsions:
REMARK  status: ('A' for Active; 'I' for Inactive)
REMARK    1  A    between atoms: C_2  and  CA_4
REMARK                            x       y       z     vdW  Elec       q    Type
REMARK                         _______ _______ _______ _____ _____    ______ ____
ROOT
ATOM      1  CA  HYP A   1       6.452   5.693 -11.532  0.00  0.00    +0.178 C 
ATOM      2  N   HYP A   1       7.571   4.819 -12.232  0.00  0.00    -0.206 NA
ATOM      3  CD  HYP A   1       8.442   5.708 -12.764  0.00  0.00    +0.122 C 
ATOM      4  CG  HYP A   1       7.360   6.347 -13.856  0.00  0.00    +0.171 C 
ATOM      5  OD  HYP A   1       6.553   5.052 -14.070  0.00  0.00    -0.222 OA
ATOM      6  CB  HYP A   1       6.406   6.906 -12.640  0.00  0.00    +0.063 C 
ENDROOT
BRANCH   1   8
ATOM      7  O   HYP A   1       7.023   7.704 -10.589  0.00  0.00    -0.244 OA
ATOM      8  C   HYP A   1       7.494   6.515 -10.567  0.00  0.00    +0.380 C 
ATOM      9  OXT HYP A   1       7.603   6.089  -9.266  0.00  0.00    -0.244 OA
ENDBRANCH   1   8
TORSDOF 1
ENDMDL
MODEL 3
REMARK VINA RESULT:      -4.1     11.483     12.450
REMARK  Name = 
REMARK  1 active torsions:
REMARK  status: ('A' for Active; 'I' for Inactive)
REMARK    1  A    between atoms: C_2  and  CA_4
REMARK                            x       y       z     vdW  Elec       q    Type
REMARK                         _______ _______ _______ _____ _____    ______ ____
ROOT
ATOM      1  CA  HYP A   1      -1.699   5.547  -3.906  0.00  0.00    +0.178 C 
ATOM      2  N   HYP A   1      -3.100   5.099  -3.319  0.00  0.00    -0.206 NA
ATOM      3  CD  HYP A   1      -3.689   6.239  -2.887  0.00  0.00    +0.122 C 
ATOM      4  CG  HYP A   1      -2.570   6.548  -1.694  0.00  0.00    +0.171 C 
ATOM      5  OD  HYP A   1      -2.241   5.074  -1.388  0.00  0.00    -0.222 OA
ATOM      6  CB  HYP A   1      -1.376   6.727  -2.809  0.00  0.00    +0.063 C 
ENDROOT
BRANCH   1   8
ATOM      7  O   HYP A   1      -1.440   7.535  -5.020  0.00  0.00    -0.244 OA
ATOM      8  C   HYP A   1      -2.329   6.616  -4.981  0.00  0.00    +0.380 C 
ATOM      9  OXT HYP A   1      -2.565   6.153  -6.252  0.00  0.00    -0.244 OA
ENDBRANCH   1   8
TORSDOF 1
ENDMDL
MODEL 4
REMARK VINA RESULT:      -4.1     12.459     13.375
REMARK  Name = 
REMARK  1 active torsions:
REMARK  status: ('A' for Active; 'I' for Inactive)
REMARK    1  A    between atoms: C_2  and  CA_4
REMARK                            x       y       z     vdW  Elec       q    Type
REMARK                         _______ _______ _______ _____ _____    ______ ____
ROOT
ATOM      1  CA  HYP A   1      -1.929   6.024  -0.765  0.00  0.00    +0.178 C 
ATOM      2  N   HYP A   1      -1.072   5.102  -1.726  0.00  0.00    -0.206 NA
ATOM      3  CD  HYP A   1      -0.807   5.864  -2.813  0.00  0.00    +0.122 C 
ATOM      4  CG  HYP A   1      -2.393   5.989  -3.302  0.00  0.00    +0.171 C 
ATOM      5  OD  HYP A   1      -2.840   4.612  -2.774  0.00  0.00    -0.222 OA
ATOM      6  CB  HYP A   1      -2.792   6.799  -1.929  0.00  0.00    +0.063 C 
ENDROOT
BRANCH   1   8
ATOM      7  O   HYP A   1      -1.527   8.257  -0.433  0.00  0.00    -0.244 OA
ATOM      8  C   HYP A   1      -0.814   7.225  -0.686  0.00  0.00    +0.380 C 
ATOM      9  OXT HYP A   1       0.167   7.101   0.266  0.00  0.00    -0.244 OA
ENDBRANCH   1   8
TORSDOF 1
ENDMDL
MODEL 5
REMARK VINA RESULT:      -4.0     10.204     12.092
REMARK  Name = 
REMARK  1 active torsions:
REMARK  status: ('A' for Active; 'I' for Inactive)
REMARK    1  A    between atoms: C_2  and  CA_4
REMARK                            x       y       z     vdW  Elec       q    Type
REMARK                         _______ _______ _______ _____ _____    ______ ____
ROOT
ATOM      1  CA  HYP A   1      -2.481   5.625  -4.334  0.00  0.00    +0.178 C 
ATOM      2  N   HYP A   1      -0.919   5.403  -4.191  0.00  0.00    -0.206 NA
ATOM      3  CD  HYP A   1      -0.442   6.547  -3.646  0.00  0.00    +0.122 C 
ATOM      4  CG  HYP A   1      -0.830   7.510  -4.948  0.00  0.00    +0.171 C 
ATOM      5  OD  HYP A   1      -0.644   6.422  -6.023  0.00  0.00    -0.222 OA
ATOM      6  CB  HYP A   1      -2.433   7.219  -4.733  0.00  0.00    +0.063 C 
ENDROOT
BRANCH   1   8
ATOM      7  O   HYP A   1      -3.895   6.472  -2.740  0.00  0.00    -0.244 OA
ATOM      8  C   HYP A   1      -2.725   5.954  -2.745  0.00  0.00    +0.380 C 
ATOM      9  OXT HYP A   1      -2.692   4.890  -1.878  0.00  0.00    -0.244 OA
ENDBRANCH   1   8
TORSDOF 1
ENDMDL
MODEL 6
REMARK VINA RESULT:      -4.0     10.024     12.046
REMARK  Name = 
REMARK  1 active torsions:
REMARK  status: ('A' for Active; 'I' for Inactive)
REMARK    1  A    between atoms: C_2  and  CA_4
REMARK                            x       y       z     vdW  Elec       q    Type
REMARK                         _______ _______ _______ _____ _____    ______ ____
ROOT
ATOM      1  CA  HYP A   1      -1.686   6.768  -3.340  0.00  0.00    +0.178 C 
ATOM      2  N   HYP A   1      -2.097   7.382  -4.741  0.00  0.00    -0.206 NA
ATOM      3  CD  HYP A   1      -2.282   6.319  -5.558  0.00  0.00    +0.122 C 
ATOM      4  CG  HYP A   1      -0.694   5.821  -5.525  0.00  0.00    +0.171 C 
ATOM      5  OD  HYP A   1      -0.082   7.226  -5.359  0.00  0.00    -0.222 OA
ATOM      6  CB  HYP A   1      -0.784   5.519  -3.912  0.00  0.00    +0.063 C 
ENDROOT
BRANCH   1   8
ATOM      7  O   HYP A   1      -2.613   4.856  -2.478  0.00  0.00    -0.244 OA
ATOM      8  C   HYP A   1      -3.026   5.831  -3.195  0.00  0.00    +0.380 C 
ATOM      9  OXT HYP A   1      -4.123   6.404  -2.602  0.00  0.00    -0.244 OA
ENDBRANCH   1   8
TORSDOF 1
ENDMDL
MODEL 7
REMARK VINA RESULT:      -3.9      2.855      3.805
REMARK  Name = 
REMARK  1 active torsions:
REMARK  status: ('A' for Active; 'I' for Inactive)
REMARK    1  A    between atoms: C_2  and  CA_4
REMARK                            x       y       z     vdW  Elec       q    Type
REMARK                         _______ _______ _______ _____ _____    ______ ____
ROOT
ATOM      1  CA  HYP A   1       6.719   5.705 -14.529  0.00  0.00    +0.178 C 
ATOM      2  N   HYP A   1       5.899   4.828 -13.496  0.00  0.00    -0.206 NA
ATOM      3  CD  HYP A   1       5.604   5.662 -12.471  0.00  0.00    +0.122 C 
ATOM      4  CG  HYP A   1       7.184   5.889 -11.998  0.00  0.00    +0.171 C 
ATOM      5  OD  HYP A   1       7.686   4.493 -12.418  0.00  0.00    -0.222 OA
ATOM      6  CB  HYP A   1       7.550   6.603 -13.433  0.00  0.00    +0.063 C 
ENDROOT
BRANCH   1   8
ATOM      7  O   HYP A   1       6.228   7.887 -15.036  0.00  0.00    -0.244 OA
ATOM      8  C   HYP A   1       5.557   6.851 -14.699  0.00  0.00    +0.380 C 
ATOM      9  OXT HYP A   1       4.581   6.613 -15.634  0.00  0.00    -0.244 OA
ENDBRANCH   1   8
TORSDOF 1
ENDMDL
MODEL 8
REMARK VINA RESULT:      -3.9      1.938      3.365
REMARK  Name = 
REMARK  1 active torsions:
REMARK  status: ('A' for Active; 'I' for Inactive)
REMARK    1  A    between atoms: C_2  and  CA_4
REMARK                            x       y       z     vdW  Elec       q    Type
REMARK                         _______ _______ _______ _____ _____    ______ ____
ROOT
ATOM      1  CA  HYP A   1       6.851   5.708 -13.556  0.00  0.00    +0.178 C 
ATOM      2  N   HYP A   1       7.728   4.662 -12.753  0.00  0.00    -0.206 NA
ATOM      3  CD  HYP A   1       7.509   4.937 -11.446  0.00  0.00    +0.122 C 
ATOM      4  CG  HYP A   1       8.206   6.449 -11.489  0.00  0.00    +0.171 C 
ATOM      5  OD  HYP A   1       9.246   6.122 -12.579  0.00  0.00    -0.222 OA
ATOM      6  CB  HYP A   1       7.065   6.985 -12.544  0.00  0.00    +0.063 C 
ENDROOT
BRANCH   1   8
ATOM      7  O   HYP A   1       4.830   6.407 -12.726  0.00  0.00    -0.244 OA
ATOM      8  C   HYP A   1       5.434   5.286 -12.843  0.00  0.00    +0.380 C 
ATOM      9  OXT HYP A   1       4.634   4.403 -13.525  0.00  0.00    -0.244 OA
ENDBRANCH   1   8
TORSDOF 1
ENDMDL
MODEL 9
REMARK VINA RESULT:      -3.8      5.422      6.334
REMARK  Name = 
REMARK  1 active torsions:
REMARK  status: ('A' for Active; 'I' for Inactive)
REMARK    1  A    between atoms: C_2  and  CA_4
REMARK                            x       y       z     vdW  Elec       q    Type
REMARK                         _______ _______ _______ _____ _____    ______ ____
ROOT
ATOM      1  CA  HYP A   1       1.544   6.195  -7.905  0.00  0.00    +0.178 C 
ATOM      2  N   HYP A   1       2.579   5.039  -8.219  0.00  0.00    -0.206 NA
ATOM      3  CD  HYP A   1       3.362   5.518  -9.214  0.00  0.00    +0.122 C 
ATOM      4  CG  HYP A   1       2.141   5.601 -10.343  0.00  0.00    +0.171 C 
ATOM      5  OD  HYP A   1       1.334   4.404  -9.805  0.00  0.00    -0.222 OA
ATOM      6  CB  HYP A   1       1.340   6.722  -9.448  0.00  0.00    +0.063 C 
ENDROOT
BRANCH   1   8
ATOM      7  O   HYP A   1       2.098   8.421  -7.907  0.00  0.00    -0.244 OA
ATOM      8  C   HYP A   1       2.687   7.330  -7.590  0.00  0.00    +0.380 C 
ATOM      9  OXT HYP A   1       3.141   7.413  -6.297  0.00  0.00    -0.244 OA
ENDBRANCH   1   8
TORSDOF 1
ENDMDL
