MODEL 1
REMARK VINA RESULT:      -9.0      0.000      0.000
REMARK  Name = 
REMARK  3 active torsions:
REMARK  status: ('A' for Active; 'I' for Inactive)
REMARK    1  A    between atoms: C_6  and  N_7
REMARK    2  A    between atoms: C_9  and  C_10
REMARK    3  A    between atoms: C_10  and  C_11
REMARK                            x       y       z     vdW  Elec       q    Type
REMARK                         _______ _______ _______ _____ _____    ______ ____
ROOT
ATOM      1  N   UNL     1       1.772   4.640  -6.167  0.00  0.00    -0.219 N 
ATOM      2  C   UNL     1       2.167   4.364  -7.437  0.00  0.00    +0.276 A 
ATOM      3  O   UNL     1       3.270   3.781  -7.665  0.00  0.00    -0.266 OA
ATOM      4  C   UNL     1       1.427   4.715  -8.561  0.00  0.00    +0.059 A 
ATOM      5  C   UNL     1       0.253   5.408  -8.291  0.00  0.00    +0.020 A 
ATOM      6  C   UNL     1      -0.215   6.377  -9.169  0.00  0.00    +0.001 A 
ATOM      7  C   UNL     1       0.553   6.814 -10.242  0.00  0.00    +0.000 A 
ATOM      8  C   UNL     1       1.730   6.162 -10.498  0.00  0.00    +0.000 A 
ATOM      9  C   UNL     1      -0.240   5.262  -7.001  0.00  0.00    +0.083 A 
ATOM     10  C   UNL     1       2.031   5.013  -9.779  0.00  0.00    +0.005 A 
ATOM     11  N   UNL     1       0.655   5.275  -5.979  0.00  0.00    -0.171 NA
ENDROOT
BRANCH   1  16
ATOM     12  C   UNL     1       5.111   7.870  -4.219  0.00  0.00    +0.090 C 
ATOM     13  N   UNL     1       4.940   7.033  -4.345  0.00  0.00    -0.271 NA
ATOM     14  C   UNL     1       4.576   6.684  -5.718  0.00  0.00    +0.074 C 
ATOM     15  C   UNL     1       3.056   6.554  -5.697  0.00  0.00    +0.042 C 
ATOM     16  C   UNL     1       2.976   4.977  -5.195  0.00  0.00    +0.110 C 
ATOM     17  C   UNL     1       2.014   5.379  -3.908  0.00  0.00    +0.026 C 
ATOM     18  C   UNL     1       2.797   6.502  -3.230  0.00  0.00    +0.019 C 
ATOM     19  C   UNL     1       4.281   6.227  -3.363  0.00  0.00    +0.072 C 
ENDBRANCH   1  16
BRANCH   9  20
ATOM     20  C   UNL     1      -1.656   5.614  -6.799  0.00  0.00    +0.074 C 
BRANCH  20  21
ATOM     21  C   UNL     1      -1.893   6.020  -5.380  0.00  0.00    -0.016 A 
ATOM     22  C   UNL     1      -2.710   5.203  -4.609  0.00  0.00    -0.003 A 
ATOM     23  C   UNL     1      -3.127   5.648  -3.360  0.00  0.00    +0.011 A 
ATOM     24  C   UNL     1      -2.597   6.810  -2.815  0.00  0.00    +0.058 A 
ATOM     25 CL   UNL     1      -2.634   7.120  -1.104  0.00  0.00    -0.082 Cl
ATOM     26  C   UNL     1      -2.125   7.762  -3.710  0.00  0.00    +0.011 A 
ATOM     27  C   UNL     1      -1.826   7.349  -4.983  0.00  0.00    -0.003 A 
ENDBRANCH  20  21
ENDBRANCH   9  20
TORSDOF 3
ENDMDL
MODEL 2
REMARK VINA RESULT:      -8.7      2.959      6.701
REMARK  Name = 
REMARK  3 active torsions:
REMARK  status: ('A' for Active; 'I' for Inactive)
REMARK    1  A    between atoms: C_6  and  N_7
REMARK    2  A    between atoms: C_9  and  C_10
REMARK    3  A    between atoms: C_10  and  C_11
REMARK                            x       y       z     vdW  Elec       q    Type
REMARK                         _______ _______ _______ _____ _____    ______ ____
ROOT
ATOM      1  N   UNL     1       1.526   4.982  -4.475  0.00  0.00    -0.219 N 
ATOM      2  C   UNL     1       1.986   5.310  -3.239  0.00  0.00    +0.276 A 
ATOM      3  O   UNL     1       1.293   5.077  -2.203  0.00  0.00    -0.266 OA
ATOM      4  C   UNL     1       3.207   5.938  -3.020  0.00  0.00    +0.059 A 
ATOM      5  C   UNL     1       3.921   6.240  -4.173  0.00  0.00    +0.020 A 
ATOM      6  C   UNL     1       4.719   7.375  -4.235  0.00  0.00    +0.001 A 
ATOM      7  C   UNL     1       4.693   8.334  -3.229  0.00  0.00    +0.000 A 
ATOM      8  C   UNL     1       3.965   8.063  -2.101  0.00  0.00    +0.000 A 
ATOM      9  C   UNL     1       3.570   5.507  -5.300  0.00  0.00    +0.083 A 
ATOM     10  C   UNL     1       3.413   6.799  -1.946  0.00  0.00    +0.005 A 
ATOM     11  N   UNL     1       2.248   5.275  -5.514  0.00  0.00    -0.171 NA
ENDROOT
BRANCH   1  16
ATOM     12  C   UNL     1      -2.620   7.732  -5.267  0.00  0.00    +0.090 C 
ATOM     13  N   UNL     1      -2.326   6.991  -4.935  0.00  0.00    -0.271 NA
ATOM     14  C   UNL     1      -1.192   7.139  -4.024  0.00  0.00    +0.074 C 
ATOM     15  C   UNL     1       0.029   6.757  -4.854  0.00  0.00    +0.042 C 
ATOM     16  C   UNL     1      -0.046   5.119  -4.616  0.00  0.00    +0.110 C 
ATOM     17  C   UNL     1      -0.070   4.829  -6.246  0.00  0.00    +0.026 C 
ATOM     18  C   UNL     1      -1.209   5.721  -6.739  0.00  0.00    +0.019 C 
ATOM     19  C   UNL     1      -2.294   5.773  -5.683  0.00  0.00    +0.072 C 
ENDBRANCH   1  16
BRANCH   9  20
ATOM     20  C   UNL     1       4.551   5.486  -6.398  0.00  0.00    +0.074 C 
BRANCH  20  21
ATOM     21  C   UNL     1       3.856   5.604  -7.716  0.00  0.00    -0.016 A 
ATOM     22  C   UNL     1       4.360   4.858  -8.774  0.00  0.00    -0.003 A 
ATOM     23  C   UNL     1       3.884   5.096 -10.058  0.00  0.00    +0.011 A 
ATOM     24  C   UNL     1       2.799   5.940 -10.261  0.00  0.00    +0.058 A 
ATOM     25 CL   UNL     1       1.827   5.854 -11.699  0.00  0.00    -0.082 Cl
ATOM     26  C   UNL     1       2.587   6.926  -9.305  0.00  0.00    +0.011 A 
ATOM     27  C   UNL     1       3.159   6.752  -8.070  0.00  0.00    -0.003 A 
ENDBRANCH  20  21
ENDBRANCH   9  20
TORSDOF 3
ENDMDL
MODEL 3
REMARK VINA RESULT:      -8.6      2.653      5.527
REMARK  Name = 
REMARK  3 active torsions:
REMARK  status: ('A' for Active; 'I' for Inactive)
REMARK    1  A    between atoms: C_6  and  N_7
REMARK    2  A    between atoms: C_9  and  C_10
REMARK    3  A    between atoms: C_10  and  C_11
REMARK                            x       y       z     vdW  Elec       q    Type
REMARK                         _______ _______ _______ _____ _____    ______ ____
ROOT
ATOM      1  N   UNL     1       0.677   4.866  -6.811  0.00  0.00    -0.219 N 
ATOM      2  C   UNL     1      -0.666   5.073  -6.813  0.00  0.00    +0.276 A 
ATOM      3  O   UNL     1      -1.363   4.817  -7.841  0.00  0.00    -0.266 OA
ATOM      4  C   UNL     1      -1.360   5.598  -5.728  0.00  0.00    +0.059 A 
ATOM      5  C   UNL     1      -0.567   5.931  -4.636  0.00  0.00    +0.020 A 
ATOM      6  C   UNL     1      -0.895   7.009  -3.825  0.00  0.00    +0.001 A 
ATOM      7  C   UNL     1      -1.909   7.895  -4.173  0.00  0.00    +0.000 A 
ATOM      8  C   UNL     1      -2.676   7.596  -5.267  0.00  0.00    +0.000 A 
ATOM      9  C   UNL     1       0.672   5.305  -4.588  0.00  0.00    +0.083 A 
ATOM     10  C   UNL     1      -2.510   6.365  -5.888  0.00  0.00    +0.005 A 
ATOM     11  N   UNL     1       1.361   5.181  -5.753  0.00  0.00    -0.171 NA
ENDROOT
BRANCH   1  16
ATOM     12  C   UNL     1       4.249   6.948  -9.690  0.00  0.00    +0.090 C 
ATOM     13  N   UNL     1       3.458   6.601  -9.698  0.00  0.00    -0.271 NA
ATOM     14  C   UNL     1       2.542   7.147  -8.698  0.00  0.00    +0.074 C 
ATOM     15  C   UNL     1       2.519   6.110  -7.582  0.00  0.00    +0.042 C 
ATOM     16  C   UNL     1       1.354   5.121  -8.220  0.00  0.00    +0.110 C 
ATOM     17  C   UNL     1       2.352   3.802  -8.142  0.00  0.00    +0.026 C 
ATOM     18  C   UNL     1       3.616   4.282  -8.854  0.00  0.00    +0.019 C 
ATOM     19  C   UNL     1       3.228   5.218  -9.980  0.00  0.00    +0.072 C 
ENDBRANCH   1  16
BRANCH   9  20
ATOM     20  C   UNL     1       1.348   5.293  -3.280  0.00  0.00    +0.074 C 
BRANCH  20  21
ATOM     21  C   UNL     1       2.749   5.797  -3.415  0.00  0.00    -0.016 A 
ATOM     22  C   UNL     1       2.919   7.153  -3.659  0.00  0.00    -0.003 A 
ATOM     23  C   UNL     1       4.181   7.627  -4.000  0.00  0.00    +0.011 A 
ATOM     24  C   UNL     1       5.288   6.792  -3.928  0.00  0.00    +0.058 A 
ATOM     25 CL   UNL     1       6.904   7.420  -3.794  0.00  0.00    -0.082 Cl
ATOM     26  C   UNL     1       5.055   5.429  -4.069  0.00  0.00    +0.011 A 
ATOM     27  C   UNL     1       3.779   4.974  -3.851  0.00  0.00    -0.003 A 
ENDBRANCH  20  21
ENDBRANCH   9  20
TORSDOF 3
ENDMDL
MODEL 4
REMARK VINA RESULT:      -8.5      3.215      7.016
REMARK  Name = 
REMARK  3 active torsions:
REMARK  status: ('A' for Active; 'I' for Inactive)
REMARK    1  A    between atoms: C_6  and  N_7
REMARK    2  A    between atoms: C_9  and  C_10
REMARK    3  A    between atoms: C_10  and  C_11
REMARK                            x       y       z     vdW  Elec       q    Type
REMARK                         _______ _______ _______ _____ _____    ______ ____
ROOT
ATOM      1  N   UNL     1       1.373   5.309  -3.195  0.00  0.00    -0.219 N 
ATOM      2  C   UNL     1       1.939   5.350  -1.960  0.00  0.00    +0.276 A 
ATOM      3  O   UNL     1       1.520   4.603  -1.025  0.00  0.00    -0.266 OA
ATOM      4  C   UNL     1       2.977   6.213  -1.623  0.00  0.00    +0.059 A 
ATOM      5  C   UNL     1       3.379   7.066  -2.645  0.00  0.00    +0.020 A 
ATOM      6  C   UNL     1       3.834   8.346  -2.360  0.00  0.00    +0.001 A 
ATOM      7  C   UNL     1       3.736   8.882  -1.081  0.00  0.00    +0.000 A 
ATOM      8  C   UNL     1       3.308   8.062  -0.071  0.00  0.00    +0.000 A 
ATOM      9  C   UNL     1       3.039   6.657  -3.928  0.00  0.00    +0.083 A 
ATOM     10  C   UNL     1       3.135   6.709  -0.333  0.00  0.00    +0.005 A 
ATOM     11  N   UNL     1       1.805   6.119  -4.113  0.00  0.00    -0.171 NA
ENDROOT
BRANCH   1  16
ATOM     12  C   UNL     1      -3.389   6.694  -2.309  0.00  0.00    +0.090 C 
ATOM     13  N   UNL     1      -2.863   6.014  -2.398  0.00  0.00    -0.271 NA
ATOM     14  C   UNL     1      -1.642   6.077  -1.596  0.00  0.00    +0.074 C 
ATOM     15  C   UNL     1      -0.554   6.506  -2.574  0.00  0.00    +0.042 C 
ATOM     16  C   UNL     1      -0.181   5.003  -3.162  0.00  0.00    +0.110 C 
ATOM     17  C   UNL     1      -0.454   5.485  -4.723  0.00  0.00    +0.026 C 
ATOM     18  C   UNL     1      -1.850   6.104  -4.652  0.00  0.00    +0.019 C 
ATOM     19  C   UNL     1      -2.685   5.339  -3.647  0.00  0.00    +0.072 C 
ENDBRANCH   1  16
BRANCH   9  20
ATOM     20  C   UNL     1       3.788   7.282  -5.032  0.00  0.00    +0.074 C 
BRANCH  20  21
ATOM     21  C   UNL     1       3.306   6.760  -6.347  0.00  0.00    -0.016 A 
ATOM     22  C   UNL     1       4.082   5.795  -6.975  0.00  0.00    -0.003 A 
ATOM     23  C   UNL     1       3.789   5.437  -8.287  0.00  0.00    +0.011 A 
ATOM     24  C   UNL     1       2.634   5.906  -8.901  0.00  0.00    +0.058 A 
ATOM     25 CL   UNL     1       1.931   5.097 -10.270  0.00  0.00    -0.082 Cl
ATOM     26  C   UNL     1       2.122   7.110  -8.434  0.00  0.00    +0.011 A 
ATOM     27  C   UNL     1       2.506   7.527  -7.185  0.00  0.00    -0.003 A 
ENDBRANCH  20  21
ENDBRANCH   9  20
TORSDOF 3
ENDMDL
MODEL 5
REMARK VINA RESULT:      -8.5      4.165      6.063
REMARK  Name = 
REMARK  3 active torsions:
REMARK  status: ('A' for Active; 'I' for Inactive)
REMARK    1  A    between atoms: C_6  and  N_7
REMARK    2  A    between atoms: C_9  and  C_10
REMARK    3  A    between atoms: C_10  and  C_11
REMARK                            x       y       z     vdW  Elec       q    Type
REMARK                         _______ _______ _______ _____ _____    ______ ____
ROOT
ATOM      1  N   UNL     1       4.145   5.405  -7.620  0.00  0.00    -0.219 N 
ATOM      2  C   UNL     1       5.269   5.076  -8.310  0.00  0.00    +0.276 A 
ATOM      3  O   UNL     1       6.124   4.278  -7.820  0.00  0.00    -0.266 OA
ATOM      4  C   UNL     1       5.577   5.599  -9.561  0.00  0.00    +0.059 A 
ATOM      5  C   UNL     1       4.657   6.519 -10.050  0.00  0.00    +0.020 A 
ATOM      6  C   UNL     1       5.072   7.582 -10.842  0.00  0.00    +0.001 A 
ATOM      7  C   UNL     1       6.421   7.867 -11.023  0.00  0.00    +0.000 A 
ATOM      8  C   UNL     1       7.338   6.987 -10.515  0.00  0.00    +0.000 A 
ATOM      9  C   UNL     1       3.392   6.455  -9.481  0.00  0.00    +0.083 A 
ATOM     10  C   UNL     1       6.891   5.786  -9.980  0.00  0.00    +0.005 A 
ATOM     11  N   UNL     1       3.314   6.258  -8.139  0.00  0.00    -0.171 NA
ENDROOT
BRANCH   1  16
ATOM     12  C   UNL     1       3.564   7.656  -3.150  0.00  0.00    +0.090 C 
ATOM     13  N   UNL     1       4.034   7.077  -3.586  0.00  0.00    -0.271 NA
ATOM     14  C   UNL     1       4.534   7.544  -4.878  0.00  0.00    +0.074 C 
ATOM     15  C   UNL     1       3.596   6.921  -5.907  0.00  0.00    +0.042 C 
ATOM     16  C   UNL     1       4.365   5.461  -6.052  0.00  0.00    +0.110 C 
ATOM     17  C   UNL     1       2.980   4.633  -5.683  0.00  0.00    +0.026 C 
ATOM     18  C   UNL     1       2.524   5.286  -4.378  0.00  0.00    +0.019 C 
ATOM     19  C   UNL     1       3.741   5.677  -3.565  0.00  0.00    +0.072 C 
ENDBRANCH   1  16
BRANCH   9  20
ATOM     20  C   UNL     1       2.302   7.094 -10.237  0.00  0.00    +0.074 C 
BRANCH  20  21
ATOM     21  C   UNL     1       1.774   6.160 -11.277  0.00  0.00    -0.016 A 
ATOM     22  C   UNL     1       1.945   6.521 -12.607  0.00  0.00    -0.003 A 
ATOM     23  C   UNL     1       1.289   5.795 -13.596  0.00  0.00    +0.011 A 
ATOM     24  C   UNL     1       0.615   4.624 -13.277  0.00  0.00    +0.058 A 
ATOM     25 CL   UNL     1       0.267   3.412 -14.474  0.00  0.00    -0.082 Cl
ATOM     26  C   UNL     1       0.141   4.508 -11.976  0.00  0.00    +0.011 A 
ATOM     27  C   UNL     1       0.704   5.312 -11.017  0.00  0.00    -0.003 A 
ENDBRANCH  20  21
ENDBRANCH   9  20
TORSDOF 3
ENDMDL
MODEL 6
REMARK VINA RESULT:      -8.2      2.296      5.371
REMARK  Name = 
REMARK  3 active torsions:
REMARK  status: ('A' for Active; 'I' for Inactive)
REMARK    1  A    between atoms: C_6  and  N_7
REMARK    2  A    between atoms: C_9  and  C_10
REMARK    3  A    between atoms: C_10  and  C_11
REMARK                            x       y       z     vdW  Elec       q    Type
REMARK                         _______ _______ _______ _____ _____    ______ ____
ROOT
ATOM      1  N   UNL     1       0.210   6.277  -5.893  0.00  0.00    -0.219 N 
ATOM      2  C   UNL     1       0.146   5.911  -7.199  0.00  0.00    +0.276 A 
ATOM      3  O   UNL     1      -0.970   5.682  -7.759  0.00  0.00    -0.266 OA
ATOM      4  C   UNL     1       1.269   5.733  -8.000  0.00  0.00    +0.059 A 
ATOM      5  C   UNL     1       2.482   5.927  -7.350  0.00  0.00    +0.020 A 
ATOM      6  C   UNL     1       3.602   5.186  -7.704  0.00  0.00    +0.001 A 
ATOM      7  C   UNL     1       3.511   4.111  -8.582  0.00  0.00    +0.000 A 
ATOM      8  C   UNL     1       2.311   3.888  -9.202  0.00  0.00    +0.000 A 
ATOM      9  C   UNL     1       2.420   6.683  -6.186  0.00  0.00    +0.083 A 
ATOM     10  C   UNL     1       1.292   4.818  -9.048  0.00  0.00    +0.005 A 
ATOM     11  N   UNL     1       1.374   6.462  -5.347  0.00  0.00    -0.171 NA
ENDROOT
BRANCH   1  16
ATOM     12  C   UNL     1      -2.069   5.567  -1.456  0.00  0.00    +0.090 C 
ATOM     13  N   UNL     1      -1.960   5.237  -2.247  0.00  0.00    -0.271 NA
ATOM     14  C   UNL     1      -0.566   5.135  -2.678  0.00  0.00    +0.074 C 
ATOM     15  C   UNL     1      -0.358   6.323  -3.610  0.00  0.00    +0.042 C 
ATOM     16  C   UNL     1      -0.919   5.616  -4.999  0.00  0.00    +0.110 C 
ATOM     17  C   UNL     1      -2.020   6.830  -5.237  0.00  0.00    +0.026 C 
ATOM     18  C   UNL     1      -2.755   6.896  -3.899  0.00  0.00    +0.019 C 
ATOM     19  C   UNL     1      -2.866   5.500  -3.322  0.00  0.00    +0.072 C 
ENDBRANCH   1  16
BRANCH   9  20
ATOM     20  C   UNL     1       3.689   7.259  -5.711  0.00  0.00    +0.074 C 
BRANCH  20  21
ATOM     21  C   UNL     1       3.876   6.975  -4.256  0.00  0.00    -0.016 A 
ATOM     22  C   UNL     1       4.401   7.991  -3.468  0.00  0.00    -0.003 A 
ATOM     23  C   UNL     1       4.788   7.705  -2.163  0.00  0.00    +0.011 A 
ATOM     24  C   UNL     1       4.494   6.471  -1.597  0.00  0.00    +0.058 A 
ATOM     25 CL   UNL     1       4.437   6.243   0.125  0.00  0.00    -0.082 Cl
ATOM     26  C   UNL     1       4.347   5.402  -2.471  0.00  0.00    +0.011 A 
ATOM     27  C   UNL     1       4.085   5.683  -3.788  0.00  0.00    -0.003 A 
ENDBRANCH  20  21
ENDBRANCH   9  20
TORSDOF 3
ENDMDL
MODEL 7
REMARK VINA RESULT:      -8.2      2.231      4.953
REMARK  Name = 
REMARK  3 active torsions:
REMARK  status: ('A' for Active; 'I' for Inactive)
REMARK    1  A    between atoms: C_6  and  N_7
REMARK    2  A    between atoms: C_9  and  C_10
REMARK    3  A    between atoms: C_10  and  C_11
REMARK                            x       y       z     vdW  Elec       q    Type
REMARK                         _______ _______ _______ _____ _____    ______ ____
ROOT
ATOM      1  N   UNL     1       0.771   6.883  -9.133  0.00  0.00    -0.219 N 
ATOM      2  C   UNL     1       1.807   7.168  -8.303  0.00  0.00    +0.276 A 
ATOM      3  O   UNL     1       2.713   7.987  -8.647  0.00  0.00    -0.266 OA
ATOM      4  C   UNL     1       1.971   6.579  -7.054  0.00  0.00    +0.059 A 
ATOM      5  C   UNL     1       1.002   5.639  -6.723  0.00  0.00    +0.020 A 
ATOM      6  C   UNL     1       1.323   4.533  -5.948  0.00  0.00    +0.001 A 
ATOM      7  C   UNL     1       2.643   4.230  -5.630  0.00  0.00    +0.000 A 
ATOM      8  C   UNL     1       3.612   5.132  -5.981  0.00  0.00    +0.000 A 
ATOM      9  C   UNL     1      -0.190   5.740  -7.430  0.00  0.00    +0.083 A 
ATOM     10  C   UNL     1       3.229   6.362  -6.498  0.00  0.00    +0.005 A 
ATOM     11  N   UNL     1      -0.114   6.009  -8.759  0.00  0.00    -0.171 NA
ENDROOT
BRANCH   1  16
ATOM     12  C   UNL     1       3.259   5.002 -13.089  0.00  0.00    +0.090 C 
ATOM     13  N   UNL     1       2.871   5.708 -12.778  0.00  0.00    -0.271 NA
ATOM     14  C   UNL     1       3.288   6.091 -11.430  0.00  0.00    +0.074 C 
ATOM     15  C   UNL     1       2.169   5.597 -10.521  0.00  0.00    +0.042 C 
ATOM     16  C   UNL     1       1.169   6.910 -10.666  0.00  0.00    +0.110 C 
ATOM     17  C   UNL     1      -0.095   5.961 -11.160  0.00  0.00    +0.026 C 
ATOM     18  C   UNL     1       0.507   5.155 -12.310  0.00  0.00    +0.019 C 
ATOM     19  C   UNL     1       1.503   6.019 -13.056  0.00  0.00    +0.072 C 
ENDBRANCH   1  16
BRANCH   9  20
ATOM     20  C   UNL     1      -1.360   5.067  -6.839  0.00  0.00    +0.074 C 
BRANCH  20  21
ATOM     21  C   UNL     1      -1.670   5.649  -5.498  0.00  0.00    -0.016 A 
ATOM     22  C   UNL     1      -2.616   4.994  -4.720  0.00  0.00    -0.003 A 
ATOM     23  C   UNL     1      -3.089   5.610  -3.566  0.00  0.00    +0.011 A 
ATOM     24  C   UNL     1      -2.501   6.780  -3.103  0.00  0.00    +0.058 A 
ATOM     25 CL   UNL     1      -2.646   7.284  -1.445  0.00  0.00    -0.082 Cl
ATOM     26  C   UNL     1      -1.876   7.583  -4.049  0.00  0.00    +0.011 A 
ATOM     27  C   UNL     1      -1.516   7.006  -5.240  0.00  0.00    -0.003 A 
ENDBRANCH  20  21
ENDBRANCH   9  20
TORSDOF 3
ENDMDL
MODEL 8
REMARK VINA RESULT:      -8.2      4.043      7.964
REMARK  Name = 
REMARK  3 active torsions:
REMARK  status: ('A' for Active; 'I' for Inactive)
REMARK    1  A    between atoms: C_6  and  N_7
REMARK    2  A    between atoms: C_9  and  C_10
REMARK    3  A    between atoms: C_10  and  C_11
REMARK                            x       y       z     vdW  Elec       q    Type
REMARK                         _______ _______ _______ _____ _____    ______ ____
ROOT
ATOM      1  N   UNL     1      -0.124   6.780  -1.043  0.00  0.00    -0.219 N 
ATOM      2  C   UNL     1      -0.188   7.622   0.021  0.00  0.00    +0.276 A 
ATOM      3  O   UNL     1      -1.306   7.984   0.500  0.00  0.00    -0.266 OA
ATOM      4  C   UNL     1       0.935   8.164   0.636  0.00  0.00    +0.059 A 
ATOM      5  C   UNL     1       2.146   7.804   0.056  0.00  0.00    +0.020 A 
ATOM      6  C   UNL     1       3.216   8.689   0.043  0.00  0.00    +0.001 A 
ATOM      7  C   UNL     1       3.065  10.013   0.438  0.00  0.00    +0.000 A 
ATOM      8  C   UNL     1       1.865  10.390   0.980  0.00  0.00    +0.000 A 
ATOM      9  C   UNL     1       2.114   6.652  -0.720  0.00  0.00    +0.083 A 
ATOM     10  C   UNL     1       0.912   9.415   1.246  0.00  0.00    +0.005 A 
ATOM     11  N   UNL     1       1.039   6.467  -1.529  0.00  0.00    -0.171 NA
ENDROOT
BRANCH   1  16
ATOM     12  C   UNL     1      -2.162   6.203  -5.614  0.00  0.00    +0.090 C 
ATOM     13  N   UNL     1      -2.206   6.659  -4.882  0.00  0.00    -0.271 NA
ATOM     14  C   UNL     1      -0.927   7.200  -4.423  0.00  0.00    +0.074 C 
ATOM     15  C   UNL     1      -0.482   6.258  -3.309  0.00  0.00    +0.042 C 
ATOM     16  C   UNL     1      -1.316   6.973  -2.069  0.00  0.00    +0.110 C 
ATOM     17  C   UNL     1      -2.070   5.550  -1.682  0.00  0.00    +0.026 C 
ATOM     18  C   UNL     1      -2.656   5.096  -3.019  0.00  0.00    +0.019 C 
ATOM     19  C   UNL     1      -3.089   6.312  -3.812  0.00  0.00    +0.072 C 
ENDBRANCH   1  16
BRANCH   9  20
ATOM     20  C   UNL     1       3.413   6.012  -0.994  0.00  0.00    +0.074 C 
BRANCH  20  21
ATOM     21  C   UNL     1       3.688   6.006  -2.462  0.00  0.00    -0.016 A 
ATOM     22  C   UNL     1       4.045   4.795  -3.041  0.00  0.00    -0.003 A 
ATOM     23  C   UNL     1       4.514   4.781  -4.350  0.00  0.00    +0.011 A 
ATOM     24  C   UNL     1       4.462   5.931  -5.127  0.00  0.00    +0.058 A 
ATOM     25 CL   UNL     1       4.496   5.867  -6.864  0.00  0.00    -0.082 Cl
ATOM     26  C   UNL     1       4.484   7.145  -4.451  0.00  0.00    +0.011 A 
ATOM     27  C   UNL     1       4.138   7.143  -3.123  0.00  0.00    -0.003 A 
ENDBRANCH  20  21
ENDBRANCH   9  20
TORSDOF 3
ENDMDL
MODEL 9
REMARK VINA RESULT:      -8.1      4.593      8.417
REMARK  Name = 
REMARK  3 active torsions:
REMARK  status: ('A' for Active; 'I' for Inactive)
REMARK    1  A    between atoms: C_6  and  N_7
REMARK    2  A    between atoms: C_9  and  C_10
REMARK    3  A    between atoms: C_10  and  C_11
REMARK                            x       y       z     vdW  Elec       q    Type
REMARK                         _______ _______ _______ _____ _____    ______ ____
ROOT
ATOM      1  N   UNL     1       2.915   4.647  -9.278  0.00  0.00    -0.219 N 
ATOM      2  C   UNL     1       2.488   4.458  -8.002  0.00  0.00    +0.276 A 
ATOM      3  O   UNL     1       1.390   3.872  -7.762  0.00  0.00    -0.266 OA
ATOM      4  C   UNL     1       3.187   4.909  -6.888  0.00  0.00    +0.059 A 
ATOM      5  C   UNL     1       4.356   5.604  -7.176  0.00  0.00    +0.020 A 
ATOM      6  C   UNL     1       4.779   6.646  -6.361  0.00  0.00    +0.001 A 
ATOM      7  C   UNL     1       3.971   7.146  -5.346  0.00  0.00    +0.000 A 
ATOM      8  C   UNL     1       2.800   6.490  -5.075  0.00  0.00    +0.000 A 
ATOM      9  C   UNL     1       4.890   5.372  -8.437  0.00  0.00    +0.083 A 
ATOM     10  C   UNL     1       2.542   5.284  -5.713  0.00  0.00    +0.005 A 
ATOM     11  N   UNL     1       4.026   5.289  -9.482  0.00  0.00    -0.171 NA
ENDROOT
BRANCH   1  16
ATOM     12  C   UNL     1      -0.550   7.608 -11.424  0.00  0.00    +0.090 C 
ATOM     13  N   UNL     1      -0.327   6.787 -11.276  0.00  0.00    -0.271 NA
ATOM     14  C   UNL     1       0.000   6.485  -9.883  0.00  0.00    +0.074 C 
ATOM     15  C   UNL     1       1.524   6.460  -9.837  0.00  0.00    +0.042 C 
ATOM     16  C   UNL     1       1.734   4.885 -10.307  0.00  0.00    +0.110 C 
ATOM     17  C   UNL     1       2.721   5.333 -11.558  0.00  0.00    +0.026 C 
ATOM     18  C   UNL     1       1.894   6.389 -12.290  0.00  0.00    +0.019 C 
ATOM     19  C   UNL     1       0.428   6.014 -12.214  0.00  0.00    +0.072 C 
ENDBRANCH   1  16
BRANCH   9  20
ATOM     20  C   UNL     1       6.304   5.737  -8.625  0.00  0.00    +0.074 C 
BRANCH  20  21
ATOM     21  C   UNL     1       6.597   5.952 -10.075  0.00  0.00    -0.016 A 
ATOM     22  C   UNL     1       7.693   5.289 -10.611  0.00  0.00    -0.003 A 
ATOM     23  C   UNL     1       8.126   5.621 -11.890  0.00  0.00    +0.011 A 
ATOM     24  C   UNL     1       7.373   6.473 -12.688  0.00  0.00    +0.058 A 
ATOM     25 CL   UNL     1       7.537   6.491 -14.419  0.00  0.00    -0.082 Cl
ATOM     26  C   UNL     1       6.554   7.383 -12.032  0.00  0.00    +0.011 A 
ATOM     27  C   UNL     1       6.223   7.120 -10.727  0.00  0.00    -0.003 A 
ENDBRANCH  20  21
ENDBRANCH   9  20
TORSDOF 3
ENDMDL
