MODEL 1
REMARK VINA RESULT:      -9.1      0.000      0.000
REMARK  Name = 
REMARK  2 active torsions:
REMARK  status: ('A' for Active; 'I' for Inactive)
REMARK    1  A    between atoms: C_24  and  C_26
REMARK    2  A    between atoms: C_26  and  C_28
REMARK                            x       y       z     vdW  Elec       q    Type
REMARK                         _______ _______ _______ _____ _____    ______ ____
ROOT
ATOM      1  C   UNL     1       3.353   6.780 -10.377  0.00  0.00    +0.003 C 
ATOM      2  C   UNL     1       3.586   5.271  -9.807  0.00  0.00    +0.035 C 
ATOM      3  C   UNL     1       2.083   5.120  -9.193  0.00  0.00    +0.178 C 
ATOM      4  O   UNL     1       2.186   3.728  -8.968  0.00  0.00    -0.218 OA
ATOM      5  C   UNL     1       2.079   5.820  -7.974  0.00  0.00    +0.035 C 
ATOM      6  C   UNL     1       3.342   4.958  -7.423  0.00  0.00    +0.006 C 
ATOM      7  C   UNL     1       3.506   6.046  -6.154  0.00  0.00    +0.036 C 
ATOM      8  C   UNL     1       2.718   5.096  -5.132  0.00  0.00    +0.168 C 
ATOM      9  C   UNL     1       1.451   4.475  -5.915  0.00  0.00    +0.182 C 
ATOM     10  O   UNL     1       0.427   4.918  -4.881  0.00  0.00    -0.220 OA
ATOM     11  F   UNL     1       3.359   3.876  -5.000  0.00  0.00    -0.237 F 
ATOM     12  C   UNL     1       2.672   5.877  -4.014  0.00  0.00    +0.066 C 
ATOM     13  C   UNL     1       3.834   6.780  -3.929  0.00  0.00    -0.003 C 
ATOM     14  C   UNL     1       3.833   7.752  -3.005  0.00  0.00    +0.036 C 
ATOM     15  C   UNL     1       2.879   7.529  -1.899  0.00  0.00    +0.195 C 
ATOM     16  C   UNL     1       2.696   6.083  -1.653  0.00  0.00    +0.038 C 
ATOM     17  O   UNL     1       3.043   8.236  -0.858  0.00  0.00    -0.287 OA
ATOM     18  C   UNL     1       5.324   6.409  -4.432  0.00  0.00    +0.180 C 
ATOM     19  F   UNL     1       5.433   5.204  -3.520  0.00  0.00    -0.233 F 
ATOM     20  C   UNL     1       1.548   6.929  -4.025  0.00  0.00    +0.011 C 
ATOM     21  C   UNL     1       2.712   5.213  -2.669  0.00  0.00    -0.017 C 
ATOM     22  C   UNL     1       4.931   5.441  -5.710  0.00  0.00    +0.042 C 
ATOM     23  C   UNL     1       2.504   7.283  -7.955  0.00  0.00    +0.003 C 
ATOM     24  C   UNL     1       1.146   5.770  -6.888  0.00  0.00    +0.038 C 
ATOM     25  C   UNL     1       4.288   5.792  -8.426  0.00  0.00    +0.003 C 
ENDROOT
BRANCH   3  26
ATOM     26  C   UNL     1       1.115   5.297 -10.254  0.00  0.00    +0.194 C 
ATOM     27  O   UNL     1       0.888   4.494 -11.161  0.00  0.00    -0.292 OA
BRANCH  26  28
ATOM     28  C   UNL     1      -0.096   6.178 -10.076  0.00  0.00    +0.161 C 
ATOM     29 CL   UNL     1      -0.245   7.393 -11.341  0.00  0.00    -0.105 Cl
ENDBRANCH  26  28
ENDBRANCH   3  26
TORSDOF 2
ENDMDL
MODEL 2
REMARK VINA RESULT:      -8.6      3.300      6.530
REMARK  Name = 
REMARK  2 active torsions:
REMARK  status: ('A' for Active; 'I' for Inactive)
REMARK    1  A    between atoms: C_24  and  C_26
REMARK    2  A    between atoms: C_26  and  C_28
REMARK                            x       y       z     vdW  Elec       q    Type
REMARK                         _______ _______ _______ _____ _____    ______ ____
ROOT
ATOM      1  C   UNL     1      -2.867   7.604  -3.763  0.00  0.00    +0.003 C 
ATOM      2  C   UNL     1      -2.577   6.002  -3.848  0.00  0.00    +0.035 C 
ATOM      3  C   UNL     1      -1.107   6.089  -3.149  0.00  0.00    +0.178 C 
ATOM      4  O   UNL     1      -0.986   4.694  -2.954  0.00  0.00    -0.218 OA
ATOM      5  C   UNL     1      -0.218   6.530  -4.144  0.00  0.00    +0.035 C 
ATOM      6  C   UNL     1      -0.648   5.312  -5.131  0.00  0.00    +0.006 C 
ATOM      7  C   UNL     1       0.157   6.076  -6.392  0.00  0.00    +0.036 C 
ATOM      8  C   UNL     1       1.459   5.158  -6.222  0.00  0.00    +0.168 C 
ATOM      9  C   UNL     1       1.749   5.004  -4.641  0.00  0.00    +0.182 C 
ATOM     10  O   UNL     1       3.195   5.469  -4.726  0.00  0.00    -0.220 OA
ATOM     11  F   UNL     1       1.145   3.821  -6.395  0.00  0.00    -0.237 F 
ATOM     12  C   UNL     1       2.301   5.705  -7.147  0.00  0.00    +0.066 C 
ATOM     13  C   UNL     1       1.562   6.283  -8.284  0.00  0.00    -0.003 C 
ATOM     14  C   UNL     1       2.227   7.038  -9.170  0.00  0.00    +0.036 C 
ATOM     15  C   UNL     1       3.691   6.837  -9.154  0.00  0.00    +0.195 C 
ATOM     16  C   UNL     1       4.022   5.453  -8.756  0.00  0.00    +0.038 C 
ATOM     17  O   UNL     1       4.335   7.279 -10.155  0.00  0.00    -0.287 OA
ATOM     18  C   UNL     1       0.192   5.679  -8.892  0.00  0.00    +0.180 C 
ATOM     19  F   UNL     1       0.812   4.333  -9.202  0.00  0.00    -0.233 F 
ATOM     20  C   UNL     1       3.032   6.970  -6.664  0.00  0.00    +0.011 C 
ATOM     21  C   UNL     1       3.278   4.808  -7.851  0.00  0.00    -0.017 C 
ATOM     22  C   UNL     1      -0.468   5.087  -7.499  0.00  0.00    +0.042 C 
ATOM     23  C   UNL     1      -0.518   7.825  -4.888  0.00  0.00    +0.003 C 
ATOM     24  C   UNL     1       1.213   6.493  -4.181  0.00  0.00    +0.038 C 
ATOM     25  C   UNL     1      -2.042   6.079  -5.390  0.00  0.00    +0.003 C 
ENDROOT
BRANCH   3  26
ATOM     26  C   UNL     1      -1.239   6.680  -1.834  0.00  0.00    +0.194 C 
ATOM     27  O   UNL     1      -2.205   6.548  -1.080  0.00  0.00    -0.292 OA
BRANCH  26  28
ATOM     28  C   UNL     1      -0.030   7.043  -1.009  0.00  0.00    +0.161 C 
ATOM     29 CL   UNL     1       1.013   5.662  -0.689  0.00  0.00    -0.105 Cl
ENDBRANCH  26  28
ENDBRANCH   3  26
TORSDOF 2
ENDMDL
MODEL 3
REMARK VINA RESULT:      -8.4      3.034      7.174
REMARK  Name = 
REMARK  2 active torsions:
REMARK  status: ('A' for Active; 'I' for Inactive)
REMARK    1  A    between atoms: C_24  and  C_26
REMARK    2  A    between atoms: C_26  and  C_28
REMARK                            x       y       z     vdW  Elec       q    Type
REMARK                         _______ _______ _______ _____ _____    ______ ____
ROOT
ATOM      1  C   UNL     1       1.318   6.954  -4.775  0.00  0.00    +0.003 C 
ATOM      2  C   UNL     1       1.152   5.396  -5.226  0.00  0.00    +0.035 C 
ATOM      3  C   UNL     1       2.643   5.280  -5.876  0.00  0.00    +0.178 C 
ATOM      4  O   UNL     1       2.611   3.872  -5.996  0.00  0.00    -0.218 OA
ATOM      5  C   UNL     1       2.573   5.887  -7.142  0.00  0.00    +0.035 C 
ATOM      6  C   UNL     1       1.345   4.920  -7.588  0.00  0.00    +0.006 C 
ATOM      7  C   UNL     1       1.084   5.901  -8.926  0.00  0.00    +0.036 C 
ATOM      8  C   UNL     1       1.894   4.921  -9.902  0.00  0.00    +0.168 C 
ATOM      9  C   UNL     1       3.216   4.429  -9.117  0.00  0.00    +0.182 C 
ATOM     10  O   UNL     1       4.183   4.848 -10.214  0.00  0.00    -0.220 OA
ATOM     11  F   UNL     1       1.318   3.663  -9.924  0.00  0.00    -0.237 F 
ATOM     12  C   UNL     1       1.864   5.619 -11.074  0.00  0.00    +0.066 C 
ATOM     13  C   UNL     1       0.652   6.450 -11.187  0.00  0.00    -0.003 C 
ATOM     14  C   UNL     1       0.573   7.349 -12.178  0.00  0.00    +0.036 C 
ATOM     15  C   UNL     1       1.505   7.096 -13.296  0.00  0.00    +0.195 C 
ATOM     16  C   UNL     1       1.761   5.648 -13.442  0.00  0.00    +0.038 C 
ATOM     17  O   UNL     1       1.272   7.714 -14.379  0.00  0.00    -0.287 OA
ATOM     18  C   UNL     1      -0.800   6.038 -10.609  0.00  0.00    +0.180 C 
ATOM     19  F   UNL     1      -0.868   4.765 -11.427  0.00  0.00    -0.233 F 
ATOM     20  C   UNL     1       2.928   6.727 -11.176  0.00  0.00    +0.011 C 
ATOM     21  C   UNL     1       1.823   4.855 -12.366  0.00  0.00    -0.017 C 
ATOM     22  C   UNL     1      -0.317   5.190  -9.278  0.00  0.00    +0.042 C 
ATOM     23  C   UNL     1       2.067   7.320  -7.253  0.00  0.00    +0.003 C 
ATOM     24  C   UNL     1       3.476   5.807  -8.251  0.00  0.00    +0.038 C 
ATOM     25  C   UNL     1       0.384   5.775  -6.617  0.00  0.00    +0.003 C 
ENDROOT
BRANCH   3  26
ATOM     26  C   UNL     1       3.630   5.587  -4.863  0.00  0.00    +0.194 C 
ATOM     27  O   UNL     1       3.845   4.926  -3.845  0.00  0.00    -0.292 OA
BRANCH  26  28
ATOM     28  C   UNL     1       4.864   6.392  -5.184  0.00  0.00    +0.161 C 
ATOM     29 CL   UNL     1       4.951   7.896  -4.274  0.00  0.00    -0.105 Cl
ENDBRANCH  26  28
ENDBRANCH   3  26
TORSDOF 2
ENDMDL
MODEL 4
REMARK VINA RESULT:      -8.1      3.228      4.947
REMARK  Name = 
REMARK  2 active torsions:
REMARK  status: ('A' for Active; 'I' for Inactive)
REMARK    1  A    between atoms: C_24  and  C_26
REMARK    2  A    between atoms: C_26  and  C_28
REMARK                            x       y       z     vdW  Elec       q    Type
REMARK                         _______ _______ _______ _____ _____    ______ ____
ROOT
ATOM      1  C   UNL     1       7.697   7.250 -11.547  0.00  0.00    +0.003 C 
ATOM      2  C   UNL     1       7.255   5.682 -11.505  0.00  0.00    +0.035 C 
ATOM      3  C   UNL     1       5.830   5.919 -12.262  0.00  0.00    +0.178 C 
ATOM      4  O   UNL     1       5.587   4.545 -12.490  0.00  0.00    -0.218 OA
ATOM      5  C   UNL     1       4.945   6.426 -11.296  0.00  0.00    +0.035 C 
ATOM      6  C   UNL     1       5.217   5.157 -10.317  0.00  0.00    +0.006 C 
ATOM      7  C   UNL     1       4.434   5.973  -9.075  0.00  0.00    +0.036 C 
ATOM      8  C   UNL     1       3.059   5.186  -9.316  0.00  0.00    +0.168 C 
ATOM      9  C   UNL     1       2.824   5.086 -10.910  0.00  0.00    +0.182 C 
ATOM     10  O   UNL     1       1.426   5.685 -10.875  0.00  0.00    -0.220 OA
ATOM     11  F   UNL     1       3.238   3.823  -9.158  0.00  0.00    -0.237 F 
ATOM     12  C   UNL     1       2.234   5.795  -8.416  0.00  0.00    +0.066 C 
ATOM     13  C   UNL     1       2.975   6.282  -7.238  0.00  0.00    -0.003 C 
ATOM     14  C   UNL     1       2.347   7.083  -6.365  0.00  0.00    +0.036 C 
ATOM     15  C   UNL     1       0.873   7.022  -6.445  0.00  0.00    +0.195 C 
ATOM     16  C   UNL     1       0.430   5.682  -6.883  0.00  0.00    +0.038 C 
ATOM     17  O   UNL     1       0.232   7.507  -5.463  0.00  0.00    -0.287 OA
ATOM     18  C   UNL     1       4.255   5.542  -6.587  0.00  0.00    +0.180 C 
ATOM     19  F   UNL     1       3.498   4.256  -6.330  0.00  0.00    -0.233 F 
ATOM     20  C   UNL     1       1.647   7.132  -8.903  0.00  0.00    +0.011 C 
ATOM     21  C   UNL     1       1.148   4.985  -7.771  0.00  0.00    -0.017 C 
ATOM     22  C   UNL     1       4.915   4.912  -7.963  0.00  0.00    +0.042 C 
ATOM     23  C   UNL     1       5.334   7.675 -10.514  0.00  0.00    +0.003 C 
ATOM     24  C   UNL     1       3.517   6.525 -11.319  0.00  0.00    +0.038 C 
ATOM     25  C   UNL     1       6.664   5.784  -9.986  0.00  0.00    +0.003 C 
ENDROOT
BRANCH   3  26
ATOM     26  C   UNL     1       6.073   6.517 -13.559  0.00  0.00    +0.194 C 
ATOM     27  O   UNL     1       6.071   7.724 -13.805  0.00  0.00    -0.292 OA
BRANCH  26  28
ATOM     28  C   UNL     1       6.894   5.812 -14.609  0.00  0.00    +0.161 C 
ATOM     29 CL   UNL     1       6.875   6.646 -16.159  0.00  0.00    -0.105 Cl
ENDBRANCH  26  28
ENDBRANCH   3  26
TORSDOF 2
ENDMDL
MODEL 5
REMARK VINA RESULT:      -7.9      2.665      6.477
REMARK  Name = 
REMARK  2 active torsions:
REMARK  status: ('A' for Active; 'I' for Inactive)
REMARK    1  A    between atoms: C_24  and  C_26
REMARK    2  A    between atoms: C_26  and  C_28
REMARK                            x       y       z     vdW  Elec       q    Type
REMARK                         _______ _______ _______ _____ _____    ______ ____
ROOT
ATOM      1  C   UNL     1       4.814   4.521  -3.463  0.00  0.00    +0.003 C 
ATOM      2  C   UNL     1       4.778   6.095  -3.885  0.00  0.00    +0.035 C 
ATOM      3  C   UNL     1       3.175   6.267  -3.644  0.00  0.00    +0.178 C 
ATOM      4  O   UNL     1       3.195   7.679  -3.719  0.00  0.00    -0.218 OA
ATOM      5  C   UNL     1       2.542   5.719  -4.772  0.00  0.00    +0.035 C 
ATOM      6  C   UNL     1       3.386   6.684  -5.771  0.00  0.00    +0.006 C 
ATOM      7  C   UNL     1       2.862   5.763  -7.074  0.00  0.00    +0.036 C 
ATOM      8  C   UNL     1       1.699   6.802  -7.443  0.00  0.00    +0.168 C 
ATOM      9  C   UNL     1       1.011   7.279  -6.063  0.00  0.00    +0.182 C 
ATOM     10  O   UNL     1      -0.405   6.929  -6.494  0.00  0.00    -0.220 OA
ATOM     11  F   UNL     1       2.226   8.050  -7.728  0.00  0.00    -0.237 F 
ATOM     12  C   UNL     1       1.078   6.159  -8.474  0.00  0.00    +0.066 C 
ATOM     13  C   UNL     1       2.014   5.314  -9.237  0.00  0.00    -0.003 C 
ATOM     14  C   UNL     1       1.522   4.461 -10.146  0.00  0.00    +0.036 C 
ATOM     15  C   UNL     1       0.151   4.783 -10.593  0.00  0.00    +0.195 C 
ATOM     16  C   UNL     1      -0.086   6.240 -10.537  0.00  0.00    +0.038 C 
ATOM     17  O   UNL     1      -0.248   4.212 -11.655  0.00  0.00    -0.287 OA
ATOM     18  C   UNL     1       3.567   5.673  -9.503  0.00  0.00    +0.180 C 
ATOM     19  F   UNL     1       3.243   6.982 -10.193  0.00  0.00    -0.233 F 
ATOM     20  C   UNL     1       0.078   5.076  -8.032  0.00  0.00    +0.011 C 
ATOM     21  C   UNL     1       0.461   6.982  -9.568  0.00  0.00    -0.017 C 
ATOM     22  C   UNL     1       3.894   6.465  -8.092  0.00  0.00    +0.042 C 
ATOM     23  C   UNL     1       2.856   4.284  -5.179  0.00  0.00    +0.003 C 
ATOM     24  C   UNL     1       1.194   5.867  -5.233  0.00  0.00    +0.038 C 
ATOM     25  C   UNL     1       4.681   5.768  -5.483  0.00  0.00    +0.003 C 
ENDROOT
BRANCH   3  26
ATOM     26  C   UNL     1       2.860   5.930  -2.272  0.00  0.00    +0.194 C 
ATOM     27  O   UNL     1       3.276   6.521  -1.273  0.00  0.00    -0.292 OA
BRANCH  26  28
ATOM     28  C   UNL     1       1.585   5.212  -1.910  0.00  0.00    +0.161 C 
ATOM     29 CL   UNL     1       0.214   6.302  -1.743  0.00  0.00    -0.105 Cl
ENDBRANCH  26  28
ENDBRANCH   3  26
TORSDOF 2
ENDMDL
MODEL 6
REMARK VINA RESULT:      -6.2      3.104      6.244
REMARK  Name = 
REMARK  2 active torsions:
REMARK  status: ('A' for Active; 'I' for Inactive)
REMARK    1  A    between atoms: C_24  and  C_26
REMARK    2  A    between atoms: C_26  and  C_28
REMARK                            x       y       z     vdW  Elec       q    Type
REMARK                         _______ _______ _______ _____ _____    ______ ____
ROOT
ATOM      1  C   UNL     1      -1.441   6.890  -5.873  0.00  0.00    +0.003 C 
ATOM      2  C   UNL     1      -1.103   5.331  -6.211  0.00  0.00    +0.035 C 
ATOM      3  C   UNL     1       0.314   5.318  -5.404  0.00  0.00    +0.178 C 
ATOM      4  O   UNL     1       0.459   3.912  -5.443  0.00  0.00    -0.218 OA
ATOM      5  C   UNL     1       1.256   5.937  -6.244  0.00  0.00    +0.035 C 
ATOM      6  C   UNL     1       0.926   4.902  -7.453  0.00  0.00    +0.006 C 
ATOM      7  C   UNL     1       1.793   5.883  -8.504  0.00  0.00    +0.036 C 
ATOM      8  C   UNL     1       3.106   4.969  -8.401  0.00  0.00    +0.168 C 
ATOM      9  C   UNL     1       3.292   4.550  -6.854  0.00  0.00    +0.182 C 
ATOM     10  O   UNL     1       4.727   5.044  -6.755  0.00  0.00    -0.220 OA
ATOM     11  F   UNL     1       2.840   3.678  -8.822  0.00  0.00    -0.237 F 
ATOM     12  C   UNL     1       3.992   5.681  -9.157  0.00  0.00    +0.066 C 
ATOM     13  C   UNL     1       3.317   6.435 -10.228  0.00  0.00    -0.003 C 
ATOM     14  C   UNL     1       4.019   7.342 -10.922  0.00  0.00    +0.036 C 
ATOM     15  C   UNL     1       5.483   7.163 -10.837  0.00  0.00    +0.195 C 
ATOM     16  C   UNL     1       5.824   5.736 -10.659  0.00  0.00    +0.038 C 
ATOM     17  O   UNL     1       6.181   7.781 -11.698  0.00  0.00    -0.287 OA
ATOM     18  C   UNL     1       2.007   5.925 -11.025  0.00  0.00    +0.180 C 
ATOM     19  F   UNL     1       2.684   4.662 -11.517  0.00  0.00    -0.233 F 
ATOM     20  C   UNL     1       4.655   6.854  -8.414  0.00  0.00    +0.011 C 
ATOM     21  C   UNL     1       5.038   4.934  -9.932  0.00  0.00    -0.017 C 
ATOM     22  C   UNL     1       1.272   5.091  -9.805  0.00  0.00    +0.042 C 
ATOM     23  C   UNL     1       0.972   7.337  -6.775  0.00  0.00    +0.003 C 
ATOM     24  C   UNL     1       2.687   5.929  -6.184  0.00  0.00    +0.038 C 
ATOM     25  C   UNL     1      -0.468   5.681  -7.675  0.00  0.00    +0.003 C 
ENDROOT
BRANCH   3  26
ATOM     26  C   UNL     1       0.078   5.671  -4.020  0.00  0.00    +0.194 C 
ATOM     27  O   UNL     1      -0.756   5.150  -3.278  0.00  0.00    -0.292 OA
BRANCH  26  28
ATOM     28  C   UNL     1       1.158   6.292  -3.171  0.00  0.00    +0.161 C 
ATOM     29 CL   UNL     1       2.490   5.187  -2.850  0.00  0.00    -0.105 Cl
ENDBRANCH  26  28
ENDBRANCH   3  26
TORSDOF 2
ENDMDL
