MODEL 1
REMARK VINA RESULT:      -3.7      0.000      0.000
REMARK  Name = 
REMARK  1 active torsions:
REMARK  status: ('A' for Active; 'I' for Inactive)
REMARK    1  A    between atoms: C_2  and  C_4
REMARK                            x       y       z     vdW  Elec       q    Type
REMARK                         _______ _______ _______ _____ _____    ______ ____
ROOT
ATOM      1  C   UNL     1       7.119   7.405 -10.872  0.00  0.00    +0.085 C 
ATOM      2  C   UNL     1       7.659   6.038 -10.735  0.00  0.00    +0.252 C 
ATOM      3  O   UNL     1       7.681   5.436  -9.644  0.00  0.00    -0.284 OA
ENDROOT
BRANCH   2   4
ATOM      4  C   UNL     1       8.299   5.473 -11.928  0.00  0.00    +0.422 C 
ATOM      5  O   UNL     1       9.529   5.969 -12.334  0.00  0.00    -0.237 OA
ATOM      6  O   UNL     1       7.697   4.562 -12.564  0.00  0.00    -0.237 OA
ENDBRANCH   2   4
TORSDOF 1
ENDMDL
MODEL 2
REMARK VINA RESULT:      -3.6      1.313      1.960
REMARK  Name = 
REMARK  1 active torsions:
REMARK  status: ('A' for Active; 'I' for Inactive)
REMARK    1  A    between atoms: C_2  and  C_4
REMARK                            x       y       z     vdW  Elec       q    Type
REMARK                         _______ _______ _______ _____ _____    ______ ____
ROOT
ATOM      1  C   UNL     1       7.429   6.046  -9.789  0.00  0.00    +0.085 C 
ATOM      2  C   UNL     1       7.557   6.509 -11.185  0.00  0.00    +0.252 C 
ATOM      3  O   UNL     1       6.943   7.503 -11.617  0.00  0.00    -0.284 OA
ENDROOT
BRANCH   2   4
ATOM      4  C   UNL     1       8.342   5.651 -12.080  0.00  0.00    +0.422 C 
ATOM      5  O   UNL     1       7.716   4.594 -12.724  0.00  0.00    -0.237 OA
ATOM      6  O   UNL     1       9.574   5.889 -12.220  0.00  0.00    -0.237 OA
ENDBRANCH   2   4
TORSDOF 1
ENDMDL
MODEL 3
REMARK VINA RESULT:      -3.3     12.302     13.468
REMARK  Name = 
REMARK  1 active torsions:
REMARK  status: ('A' for Active; 'I' for Inactive)
REMARK    1  A    between atoms: C_2  and  C_4
REMARK                            x       y       z     vdW  Elec       q    Type
REMARK                         _______ _______ _______ _____ _____    ______ ____
ROOT
ATOM      1  C   UNL     1      -1.993   7.825  -4.272  0.00  0.00    +0.085 C 
ATOM      2  C   UNL     1      -2.481   6.432  -4.312  0.00  0.00    +0.252 C 
ATOM      3  O   UNL     1      -2.505   5.764  -5.364  0.00  0.00    -0.284 OA
ENDROOT
BRANCH   2   4
ATOM      4  C   UNL     1      -3.069   5.917  -3.070  0.00  0.00    +0.422 C 
ATOM      5  O   UNL     1      -2.752   4.633  -2.653  0.00  0.00    -0.237 OA
ATOM      6  O   UNL     1      -3.867   6.656  -2.427  0.00  0.00    -0.237 OA
ENDBRANCH   2   4
TORSDOF 1
ENDMDL
MODEL 4
REMARK VINA RESULT:      -3.3      2.227      3.068
REMARK  Name = 
REMARK  1 active torsions:
REMARK  status: ('A' for Active; 'I' for Inactive)
REMARK    1  A    between atoms: C_2  and  C_4
REMARK                            x       y       z     vdW  Elec       q    Type
REMARK                         _______ _______ _______ _____ _____    ______ ____
ROOT
ATOM      1  C   UNL     1       7.442   6.744 -11.728  0.00  0.00    +0.085 C 
ATOM      2  C   UNL     1       6.990   5.434 -12.236  0.00  0.00    +0.252 C 
ATOM      3  O   UNL     1       7.784   4.577 -12.669  0.00  0.00    -0.284 OA
ENDROOT
BRANCH   2   4
ATOM      4  C   UNL     1       5.538   5.245 -12.335  0.00  0.00    +0.422 C 
ATOM      5  O   UNL     1       5.010   4.643 -13.468  0.00  0.00    -0.237 OA
ATOM      6  O   UNL     1       4.809   5.657 -11.390  0.00  0.00    -0.237 OA
ENDBRANCH   2   4
TORSDOF 1
ENDMDL
MODEL 5
REMARK VINA RESULT:      -3.2     12.517     13.229
REMARK  Name = 
REMARK  1 active torsions:
REMARK  status: ('A' for Active; 'I' for Inactive)
REMARK    1  A    between atoms: C_2  and  C_4
REMARK                            x       y       z     vdW  Elec       q    Type
REMARK                         _______ _______ _______ _____ _____    ______ ____
ROOT
ATOM      1  C   UNL     1      -1.980   7.935  -4.290  0.00  0.00    +0.085 C 
ATOM      2  C   UNL     1      -2.334   7.026  -3.182  0.00  0.00    +0.252 C 
ATOM      3  O   UNL     1      -2.277   7.377  -1.988  0.00  0.00    -0.284 OA
ENDROOT
BRANCH   2   4
ATOM      4  C   UNL     1      -2.624   5.636  -3.554  0.00  0.00    +0.422 C 
ATOM      5  O   UNL     1      -2.738   5.305  -4.896  0.00  0.00    -0.237 OA
ATOM      6  O   UNL     1      -2.783   4.785  -2.635  0.00  0.00    -0.237 OA
ENDBRANCH   2   4
TORSDOF 1
ENDMDL
MODEL 6
REMARK VINA RESULT:      -3.2     11.764     12.622
REMARK  Name = 
REMARK  1 active torsions:
REMARK  status: ('A' for Active; 'I' for Inactive)
REMARK    1  A    between atoms: C_2  and  C_4
REMARK                            x       y       z     vdW  Elec       q    Type
REMARK                         _______ _______ _______ _____ _____    ______ ____
ROOT
ATOM      1  C   UNL     1      -2.266   5.549  -6.098  0.00  0.00    +0.085 C 
ATOM      2  C   UNL     1      -2.317   6.230  -4.789  0.00  0.00    +0.252 C 
ATOM      3  O   UNL     1      -2.586   7.441  -4.678  0.00  0.00    -0.284 OA
ENDROOT
BRANCH   2   4
ATOM      4  C   UNL     1      -1.894   5.435  -3.630  0.00  0.00    +0.422 C 
ATOM      5  O   UNL     1      -2.854   4.776  -2.876  0.00  0.00    -0.237 OA
ATOM      6  O   UNL     1      -0.665   5.392  -3.342  0.00  0.00    -0.237 OA
ENDBRANCH   2   4
TORSDOF 1
ENDMDL
MODEL 7
REMARK VINA RESULT:      -3.2     11.755     12.846
REMARK  Name = 
REMARK  1 active torsions:
REMARK  status: ('A' for Active; 'I' for Inactive)
REMARK    1  A    between atoms: C_2  and  C_4
REMARK                            x       y       z     vdW  Elec       q    Type
REMARK                         _______ _______ _______ _____ _____    ______ ____
ROOT
ATOM      1  C   UNL     1      -2.338   7.101  -2.407  0.00  0.00    +0.085 C 
ATOM      2  C   UNL     1      -1.918   5.693  -2.554  0.00  0.00    +0.252 C 
ATOM      3  O   UNL     1      -2.731   4.749  -2.535  0.00  0.00    -0.284 OA
ENDROOT
BRANCH   2   4
ATOM      4  C   UNL     1      -0.471   5.450  -2.582  0.00  0.00    +0.422 C 
ATOM      5  O   UNL     1       0.085   4.571  -1.664  0.00  0.00    -0.237 OA
ATOM      6  O   UNL     1       0.230   6.068  -3.432  0.00  0.00    -0.237 OA
ENDBRANCH   2   4
TORSDOF 1
ENDMDL
MODEL 8
REMARK VINA RESULT:      -2.8      6.435      7.238
REMARK  Name = 
REMARK  1 active torsions:
REMARK  status: ('A' for Active; 'I' for Inactive)
REMARK    1  A    between atoms: C_2  and  C_4
REMARK                            x       y       z     vdW  Elec       q    Type
REMARK                         _______ _______ _______ _____ _____    ______ ____
ROOT
ATOM      1  C   UNL     1       0.852   5.817  -8.292  0.00  0.00    +0.085 C 
ATOM      2  C   UNL     1       2.260   6.072  -7.930  0.00  0.00    +0.252 C 
ATOM      3  O   UNL     1       3.140   5.194  -8.019  0.00  0.00    -0.284 OA
ENDROOT
BRANCH   2   4
ATOM      4  C   UNL     1       2.546   7.378  -7.324  0.00  0.00    +0.422 C 
ATOM      5  O   UNL     1       3.281   7.431  -6.150  0.00  0.00    -0.237 OA
ATOM      6  O   UNL     1       2.092   8.416  -7.883  0.00  0.00    -0.237 OA
ENDBRANCH   2   4
TORSDOF 1
ENDMDL
MODEL 9
REMARK VINA RESULT:      -2.8      6.766      7.651
REMARK  Name = 
REMARK  1 active torsions:
REMARK  status: ('A' for Active; 'I' for Inactive)
REMARK    1  A    between atoms: C_2  and  C_4
REMARK                            x       y       z     vdW  Elec       q    Type
REMARK                         _______ _______ _______ _____ _____    ______ ____
ROOT
ATOM      1  C   UNL     1       5.336   7.503  -4.187  0.00  0.00    +0.085 C 
ATOM      2  C   UNL     1       3.925   7.286  -4.566  0.00  0.00    +0.252 C 
ATOM      3  O   UNL     1       2.994   7.366  -3.742  0.00  0.00    -0.284 OA
ENDROOT
BRANCH   2   4
ATOM      4  C   UNL     1       3.688   6.832  -5.941  0.00  0.00    +0.422 C 
ATOM      5  O   UNL     1       2.871   7.586  -6.770  0.00  0.00    -0.237 OA
ATOM      6  O   UNL     1       4.221   5.752  -6.322  0.00  0.00    -0.237 OA
ENDBRANCH   2   4
TORSDOF 1
ENDMDL
