MODEL 1
REMARK VINA RESULT:      -9.8      0.000      0.000
REMARK  Name = 
REMARK  4 active torsions:
REMARK  status: ('A' for Active; 'I' for Inactive)
REMARK    1  A    between atoms: C_2  and  C_3
REMARK    2  A    between atoms: C_8  and  C_9
REMARK    3  A    between atoms: C_11  and  C_12
REMARK    4  A    between atoms: N_19  and  C_20
REMARK                            x       y       z     vdW  Elec       q    Type
REMARK                         _______ _______ _______ _____ _____    ______ ____
ROOT
ATOM      1  C   UNL     1       2.571   4.773  -8.832  0.00  0.00    +0.057 A 
ATOM      2  C   UNL     1       2.815   4.637  -7.471  0.00  0.00    +0.265 A 
ATOM      3  O   UNL     1       1.785   4.556  -6.735  0.00  0.00    -0.267 OA
ATOM      4  N   UNL     1       3.931   5.072  -6.875  0.00  0.00    -0.273 N 
ATOM      5  C   UNL     1       4.995   5.350  -7.668  0.00  0.00    +0.084 A 
ATOM      6  C   UNL     1       4.935   5.204  -9.049  0.00  0.00    +0.035 A 
ATOM      7  C   UNL     1       3.708   4.891  -9.622  0.00  0.00    +0.008 A 
ENDROOT
BRANCH   1   9
ATOM      8  C   UNL     1       1.000   6.484  -9.564  0.00  0.00    +0.069 A 
ATOM      9  C   UNL     1       1.238   5.139  -9.342  0.00  0.00    +0.014 A 
ATOM     10  C   UNL     1       0.636   4.268 -10.237  0.00  0.00    +0.001 A 
ATOM     11  C   UNL     1      -0.070   4.708 -11.349  0.00  0.00    +0.000 A 
ATOM     12  C   UNL     1      -0.151   6.063 -11.616  0.00  0.00    +0.001 A 
ATOM     13  C   UNL     1       0.212   6.936 -10.614  0.00  0.00    +0.010 A 
BRANCH   8  15
ATOM     14  N   UNL     1       2.132   8.164  -7.962  0.00  0.00    -0.191 NA
ATOM     15  C   UNL     1       1.550   7.393  -8.586  0.00  0.00    +0.100 C 
ENDBRANCH   8  15
ENDBRANCH   1   9
BRANCH   4  16
ATOM     16  C   UNL     1       3.925   5.593  -5.541  0.00  0.00    +0.067 A 
ATOM     17  C   UNL     1       4.034   6.933  -5.302  0.00  0.00    +0.018 A 
ATOM     18  C   UNL     1       4.000   7.340  -3.974  0.00  0.00    +0.001 A 
ATOM     19  C   UNL     1       4.382   6.472  -2.966  0.00  0.00    +0.000 A 
ATOM     20  C   UNL     1       4.651   5.156  -3.300  0.00  0.00    +0.001 A 
ATOM     21  C   UNL     1       4.130   4.697  -4.504  0.00  0.00    +0.018 A 
ENDBRANCH   4  16
BRANCH   6  22
ATOM     22  C   UNL     1       5.978   5.896  -9.814  0.00  0.00    +0.083 A 
ATOM     23  N   UNL     1       7.173   5.270  -9.865  0.00  0.00    -0.244 NA
ATOM     24  C   UNL     1       8.038   5.576 -10.858  0.00  0.00    +0.099 A 
ATOM     25  C   UNL     1       7.969   6.801 -11.495  0.00  0.00    +0.021 A 
ATOM     26  C   UNL     1       6.725   7.412 -11.529  0.00  0.00    +0.003 A 
ATOM     27  C   UNL     1       5.728   6.879 -10.726  0.00  0.00    +0.019 A 
ENDBRANCH   6  22
TORSDOF 4
ENDMDL
MODEL 2
REMARK VINA RESULT:      -9.3      3.150      7.618
REMARK  Name = 
REMARK  4 active torsions:
REMARK  status: ('A' for Active; 'I' for Inactive)
REMARK    1  A    between atoms: C_2  and  C_3
REMARK    2  A    between atoms: C_8  and  C_9
REMARK    3  A    between atoms: C_11  and  C_12
REMARK    4  A    between atoms: N_19  and  C_20
REMARK                            x       y       z     vdW  Elec       q    Type
REMARK                         _______ _______ _______ _____ _____    ______ ____
ROOT
ATOM      1  C   UNL     1       2.094   4.855  -6.193  0.00  0.00    +0.057 A 
ATOM      2  C   UNL     1       1.803   4.587  -7.525  0.00  0.00    +0.265 A 
ATOM      3  O   UNL     1       2.807   4.462  -8.290  0.00  0.00    -0.267 OA
ATOM      4  N   UNL     1       0.654   4.937  -8.115  0.00  0.00    -0.273 N 
ATOM      5  C   UNL     1      -0.386   5.262  -7.310  0.00  0.00    +0.084 A 
ATOM      6  C   UNL     1      -0.271   5.248  -5.925  0.00  0.00    +0.035 A 
ATOM      7  C   UNL     1       0.984   5.020  -5.374  0.00  0.00    +0.008 A 
ENDROOT
BRANCH   1   9
ATOM      8  C   UNL     1       3.657   6.665  -5.730  0.00  0.00    +0.069 A 
ATOM      9  C   UNL     1       3.434   5.300  -5.773  0.00  0.00    +0.014 A 
ATOM     10  C   UNL     1       4.073   4.558  -4.791  0.00  0.00    +0.001 A 
ATOM     11  C   UNL     1       4.802   5.144  -3.764  0.00  0.00    +0.000 A 
ATOM     12  C   UNL     1       4.868   6.523  -3.674  0.00  0.00    +0.001 A 
ATOM     13  C   UNL     1       4.466   7.257  -4.769  0.00  0.00    +0.010 A 
BRANCH   8  15
ATOM     14  N   UNL     1       2.428   8.066  -7.518  0.00  0.00    -0.191 NA
ATOM     15  C   UNL     1       3.067   7.435  -6.800  0.00  0.00    +0.100 C 
ENDBRANCH   8  15
ENDBRANCH   1   9
BRANCH   4  16
ATOM     16  C   UNL     1       0.598   5.330  -9.491  0.00  0.00    +0.067 A 
ATOM     17  C   UNL     1       0.411   6.634  -9.848  0.00  0.00    +0.018 A 
ATOM     18  C   UNL     1       0.388   6.917 -11.209  0.00  0.00    +0.001 A 
ATOM     19  C   UNL     1       0.025   5.940 -12.119  0.00  0.00    +0.000 A 
ATOM     20  C   UNL     1      -0.165   4.648 -11.658  0.00  0.00    +0.001 A 
ATOM     21  C   UNL     1       0.412   4.331 -10.434  0.00  0.00    +0.018 A 
ENDBRANCH   4  16
BRANCH   6  22
ATOM     22  C   UNL     1      -1.304   5.984  -5.187  0.00  0.00    +0.083 A 
ATOM     23  N   UNL     1      -2.218   5.221  -4.549  0.00  0.00    -0.244 NA
ATOM     24  C   UNL     1      -2.922   5.751  -3.524  0.00  0.00    +0.099 A 
ATOM     25  C   UNL     1      -3.105   7.119  -3.433  0.00  0.00    +0.021 A 
ATOM     26  C   UNL     1      -2.125   7.914  -4.004  0.00  0.00    +0.003 A 
ATOM     27  C   UNL     1      -1.191   7.293  -4.820  0.00  0.00    +0.019 A 
ENDBRANCH   6  22
TORSDOF 4
ENDMDL
MODEL 3
REMARK VINA RESULT:      -8.8      3.387      4.962
REMARK  Name = 
REMARK  4 active torsions:
REMARK  status: ('A' for Active; 'I' for Inactive)
REMARK    1  A    between atoms: C_2  and  C_3
REMARK    2  A    between atoms: C_8  and  C_9
REMARK    3  A    between atoms: C_11  and  C_12
REMARK    4  A    between atoms: N_19  and  C_20
REMARK                            x       y       z     vdW  Elec       q    Type
REMARK                         _______ _______ _______ _____ _____    ______ ____
ROOT
ATOM      1  C   UNL     1       0.543   5.040  -7.621  0.00  0.00    +0.057 A 
ATOM      2  C   UNL     1      -0.497   5.017  -6.699  0.00  0.00    +0.265 A 
ATOM      3  O   UNL     1      -1.657   5.197  -7.179  0.00  0.00    -0.267 OA
ATOM      4  N   UNL     1      -0.342   5.317  -5.405  0.00  0.00    -0.273 N 
ATOM      5  C   UNL     1       0.920   5.318  -4.911  0.00  0.00    +0.084 A 
ATOM      6  C   UNL     1       2.019   5.031  -5.712  0.00  0.00    +0.035 A 
ATOM      7  C   UNL     1       1.811   4.872  -7.077  0.00  0.00    +0.008 A 
ENDROOT
BRANCH   1   9
ATOM      8  C   UNL     1       1.300   6.471  -9.440  0.00  0.00    +0.069 A 
ATOM      9  C   UNL     1       0.354   5.571  -8.982  0.00  0.00    +0.014 A 
ATOM     10  C   UNL     1      -0.166   4.710  -9.936  0.00  0.00    +0.001 A 
ATOM     11  C   UNL     1       0.302   4.670 -11.243  0.00  0.00    +0.000 A 
ATOM     12  C   UNL     1       1.357   5.483 -11.616  0.00  0.00    +0.001 A 
ATOM     13  C   UNL     1       1.705   6.511 -10.768  0.00  0.00    +0.010 A 
BRANCH   8  15
ATOM     14  N   UNL     1       2.153   8.332  -7.866  0.00  0.00    -0.191 NA
ATOM     15  C   UNL     1       1.782   7.429  -8.473  0.00  0.00    +0.100 C 
ENDBRANCH   8  15
ENDBRANCH   1   9
BRANCH   4  16
ATOM     16  C   UNL     1      -1.367   5.977  -4.652  0.00  0.00    +0.067 A 
ATOM     17  C   UNL     1      -1.316   7.319  -4.410  0.00  0.00    +0.018 A 
ATOM     18  C   UNL     1      -2.366   7.869  -3.685  0.00  0.00    +0.001 A 
ATOM     19  C   UNL     1      -3.099   7.083  -2.812  0.00  0.00    +0.000 A 
ATOM     20  C   UNL     1      -2.858   5.720  -2.794  0.00  0.00    +0.001 A 
ATOM     21  C   UNL     1      -2.226   5.183  -3.909  0.00  0.00    +0.018 A 
ENDBRANCH   4  16
BRANCH   6  22
ATOM     22  C   UNL     1       3.324   5.444  -5.183  0.00  0.00    +0.083 A 
ATOM     23  N   UNL     1       3.635   6.747  -5.355  0.00  0.00    -0.244 NA
ATOM     24  C   UNL     1       4.568   7.314  -4.560  0.00  0.00    +0.099 A 
ATOM     25  C   UNL     1       5.535   6.537  -3.949  0.00  0.00    +0.021 A 
ATOM     26  C   UNL     1       5.194   5.220  -3.683  0.00  0.00    +0.003 A 
ATOM     27  C   UNL     1       4.032   4.730  -4.262  0.00  0.00    +0.019 A 
ENDBRANCH   6  22
TORSDOF 4
ENDMDL
MODEL 4
REMARK VINA RESULT:      -8.5      2.879      6.006
REMARK  Name = 
REMARK  4 active torsions:
REMARK  status: ('A' for Active; 'I' for Inactive)
REMARK    1  A    between atoms: C_2  and  C_3
REMARK    2  A    between atoms: C_8  and  C_9
REMARK    3  A    between atoms: C_11  and  C_12
REMARK    4  A    between atoms: N_19  and  C_20
REMARK                            x       y       z     vdW  Elec       q    Type
REMARK                         _______ _______ _______ _____ _____    ______ ____
ROOT
ATOM      1  C   UNL     1       3.268   6.622  -6.542  0.00  0.00    +0.057 A 
ATOM      2  C   UNL     1       3.848   6.894  -5.309  0.00  0.00    +0.265 A 
ATOM      3  O   UNL     1       5.086   6.631  -5.217  0.00  0.00    -0.267 OA
ATOM      4  N   UNL     1       3.164   6.915  -4.160  0.00  0.00    -0.273 N 
ATOM      5  C   UNL     1       1.814   7.005  -4.240  0.00  0.00    +0.084 A 
ATOM      6  C   UNL     1       1.155   7.060  -5.463  0.00  0.00    +0.035 A 
ATOM      7  C   UNL     1       1.906   6.886  -6.619  0.00  0.00    +0.008 A 
ENDROOT
BRANCH   1   9
ATOM      8  C   UNL     1       3.276   4.643  -7.963  0.00  0.00    +0.069 A 
ATOM      9  C   UNL     1       3.946   5.779  -7.543  0.00  0.00    +0.014 A 
ATOM     10  C   UNL     1       4.701   6.422  -8.512  0.00  0.00    +0.001 A 
ATOM     11  C   UNL     1       4.706   6.025  -9.843  0.00  0.00    +0.000 A 
ATOM     12  C   UNL     1       3.899   4.977 -10.247  0.00  0.00    +0.001 A 
ATOM     13  C   UNL     1       3.352   4.176  -9.268  0.00  0.00    +0.010 A 
BRANCH   8  15
ATOM     14  N   UNL     1       1.843   3.502  -6.143  0.00  0.00    -0.191 NA
ATOM     15  C   UNL     1       2.559   3.919  -6.940  0.00  0.00    +0.100 C 
ENDBRANCH   8  15
ENDBRANCH   1   9
BRANCH   4  16
ATOM     16  C   UNL     1       3.744   6.484  -2.924  0.00  0.00    +0.067 A 
ATOM     17  C   UNL     1       3.482   5.247  -2.411  0.00  0.00    +0.018 A 
ATOM     18  C   UNL     1       4.107   4.916  -1.214  0.00  0.00    +0.001 A 
ATOM     19  C   UNL     1       4.504   5.909  -0.335  0.00  0.00    +0.000 A 
ATOM     20  C   UNL     1       4.399   7.228  -0.742  0.00  0.00    +0.001 A 
ATOM     21  C   UNL     1       4.308   7.454  -2.110  0.00  0.00    +0.018 A 
ENDBRANCH   4  16
BRANCH   6  22
ATOM     22  C   UNL     1      -0.280   6.757  -5.433  0.00  0.00    +0.083 A 
ATOM     23  N   UNL     1      -1.045   7.635  -4.750  0.00  0.00    -0.244 NA
ATOM     24  C   UNL     1      -2.370   7.701  -5.012  0.00  0.00    +0.099 A 
ATOM     25  C   UNL     1      -3.032   6.615  -5.556  0.00  0.00    +0.021 A 
ATOM     26  C   UNL     1      -2.275   5.756  -6.336  0.00  0.00    +0.003 A 
ATOM     27  C   UNL     1      -0.897   5.909  -6.306  0.00  0.00    +0.019 A 
ENDBRANCH   6  22
TORSDOF 4
ENDMDL
MODEL 5
REMARK VINA RESULT:      -8.1      2.842      7.557
REMARK  Name = 
REMARK  4 active torsions:
REMARK  status: ('A' for Active; 'I' for Inactive)
REMARK    1  A    between atoms: C_2  and  C_3
REMARK    2  A    between atoms: C_8  and  C_9
REMARK    3  A    between atoms: C_11  and  C_12
REMARK    4  A    between atoms: N_19  and  C_20
REMARK                            x       y       z     vdW  Elec       q    Type
REMARK                         _______ _______ _______ _____ _____    ______ ____
ROOT
ATOM      1  C   UNL     1       3.037   5.087  -3.559  0.00  0.00    +0.057 A 
ATOM      2  C   UNL     1       3.525   4.506  -4.724  0.00  0.00    +0.265 A 
ATOM      3  O   UNL     1       4.787   4.402  -4.795  0.00  0.00    -0.267 OA
ATOM      4  N   UNL     1       2.869   4.527  -5.889  0.00  0.00    -0.273 N 
ATOM      5  C   UNL     1       1.548   4.826  -5.856  0.00  0.00    +0.084 A 
ATOM      6  C   UNL     1       0.892   5.115  -4.665  0.00  0.00    +0.035 A 
ATOM      7  C   UNL     1       1.655   5.222  -3.508  0.00  0.00    +0.008 A 
ENDROOT
BRANCH   1   9
ATOM      8  C   UNL     1       3.978   7.203  -2.807  0.00  0.00    +0.069 A 
ATOM      9  C   UNL     1       3.917   5.830  -2.642  0.00  0.00    +0.014 A 
ATOM     10  C   UNL     1       4.002   5.380  -1.333  0.00  0.00    +0.001 A 
ATOM     11  C   UNL     1       4.036   6.242  -0.245  0.00  0.00    +0.000 A 
ATOM     12  C   UNL     1       3.938   7.607  -0.451  0.00  0.00    +0.001 A 
ATOM     13  C   UNL     1       4.113   8.075  -1.734  0.00  0.00    +0.010 A 
BRANCH   8  15
ATOM     14  N   UNL     1       4.033   7.849  -5.307  0.00  0.00    -0.191 NA
ATOM     15  C   UNL     1       3.978   7.676  -4.171  0.00  0.00    +0.100 C 
ENDBRANCH   8  15
ENDBRANCH   1   9
BRANCH   4  16
ATOM     16  C   UNL     1       3.555   4.616  -7.144  0.00  0.00    +0.067 A 
ATOM     17  C   UNL     1       4.640   5.428  -7.302  0.00  0.00    +0.018 A 
ATOM     18  C   UNL     1       5.246   5.432  -8.553  0.00  0.00    +0.001 A 
ATOM     19  C   UNL     1       4.520   5.096  -9.682  0.00  0.00    +0.000 A 
ATOM     20  C   UNL     1       3.232   4.618  -9.518  0.00  0.00    +0.001 A 
ATOM     21  C   UNL     1       2.906   4.118  -8.263  0.00  0.00    +0.018 A 
ENDBRANCH   4  16
BRANCH   6  22
ATOM     22  C   UNL     1      -0.400   5.797  -4.792  0.00  0.00    +0.083 A 
ATOM     23  N   UNL     1      -0.503   6.973  -4.135  0.00  0.00    -0.244 NA
ATOM     24  C   UNL     1      -1.444   7.864  -4.519  0.00  0.00    +0.099 A 
ATOM     25  C   UNL     1      -2.580   7.441  -5.186  0.00  0.00    +0.021 A 
ATOM     26  C   UNL     1      -2.460   6.284  -5.940  0.00  0.00    +0.003 A 
ATOM     27  C   UNL     1      -1.313   5.524  -5.768  0.00  0.00    +0.019 A 
ENDBRANCH   6  22
TORSDOF 4
ENDMDL
MODEL 6
REMARK VINA RESULT:      -8.0      2.244      5.897
REMARK  Name = 
REMARK  4 active torsions:
REMARK  status: ('A' for Active; 'I' for Inactive)
REMARK    1  A    between atoms: C_2  and  C_3
REMARK    2  A    between atoms: C_8  and  C_9
REMARK    3  A    between atoms: C_11  and  C_12
REMARK    4  A    between atoms: N_19  and  C_20
REMARK                            x       y       z     vdW  Elec       q    Type
REMARK                         _______ _______ _______ _____ _____    ______ ____
ROOT
ATOM      1  C   UNL     1       1.800   6.552  -8.767  0.00  0.00    +0.057 A 
ATOM      2  C   UNL     1       1.133   6.674  -9.980  0.00  0.00    +0.265 A 
ATOM      3  O   UNL     1      -0.103   6.391  -9.955  0.00  0.00    -0.267 OA
ATOM      4  N   UNL     1       1.737   6.568 -11.168  0.00  0.00    -0.273 N 
ATOM      5  C   UNL     1       3.088   6.678 -11.193  0.00  0.00    +0.084 A 
ATOM      6  C   UNL     1       3.827   6.881 -10.034  0.00  0.00    +0.035 A 
ATOM      7  C   UNL     1       3.159   6.836  -8.815  0.00  0.00    +0.008 A 
ENDROOT
BRANCH   1   9
ATOM      8  C   UNL     1       1.885   4.709  -7.177  0.00  0.00    +0.069 A 
ATOM      9  C   UNL     1       1.205   5.826  -7.631  0.00  0.00    +0.014 A 
ATOM     10  C   UNL     1       0.570   6.578  -6.656  0.00  0.00    +0.001 A 
ATOM     11  C   UNL     1       0.690   6.302  -5.300  0.00  0.00    +0.000 A 
ATOM     12  C   UNL     1       1.507   5.265  -4.883  0.00  0.00    +0.001 A 
ATOM     13  C   UNL     1       1.930   4.362  -5.833  0.00  0.00    +0.010 A 
BRANCH   8  15
ATOM     14  N   UNL     1       3.105   3.352  -9.004  0.00  0.00    -0.191 NA
ATOM     15  C   UNL     1       2.475   3.872  -8.195  0.00  0.00    +0.100 C 
ENDBRANCH   8  15
ENDBRANCH   1   9
BRANCH   4  16
ATOM     16  C   UNL     1       1.082   5.991 -12.304  0.00  0.00    +0.067 A 
ATOM     17  C   UNL     1       1.095   4.644 -12.521  0.00  0.00    +0.018 A 
ATOM     18  C   UNL     1       0.416   4.180 -13.641  0.00  0.00    +0.001 A 
ATOM     19  C   UNL     1       0.220   5.008 -14.733  0.00  0.00    +0.000 A 
ATOM     20  C   UNL     1       0.582   6.340 -14.621  0.00  0.00    +0.001 A 
ATOM     21  C   UNL     1       0.718   6.844 -13.333  0.00  0.00    +0.018 A 
ENDBRANCH   4  16
BRANCH   6  22
ATOM     22  C   UNL     1       5.262   6.589 -10.127  0.00  0.00    +0.083 A 
ATOM     23  N   UNL     1       5.980   7.444 -10.885  0.00  0.00    -0.244 NA
ATOM     24  C   UNL     1       7.316   7.532 -10.697  0.00  0.00    +0.099 A 
ATOM     25  C   UNL     1       8.018   6.475 -10.146  0.00  0.00    +0.021 A 
ATOM     26  C   UNL     1       7.312   5.642  -9.292  0.00  0.00    +0.003 A 
ATOM     27  C   UNL     1       5.933   5.783  -9.255  0.00  0.00    +0.019 A 
ENDBRANCH   6  22
TORSDOF 4
ENDMDL
MODEL 7
REMARK VINA RESULT:      -7.9      3.284      5.973
REMARK  Name = 
REMARK  4 active torsions:
REMARK  status: ('A' for Active; 'I' for Inactive)
REMARK    1  A    between atoms: C_2  and  C_3
REMARK    2  A    between atoms: C_8  and  C_9
REMARK    3  A    between atoms: C_11  and  C_12
REMARK    4  A    between atoms: N_19  and  C_20
REMARK                            x       y       z     vdW  Elec       q    Type
REMARK                         _______ _______ _______ _____ _____    ______ ____
ROOT
ATOM      1  C   UNL     1       2.018   4.690  -6.285  0.00  0.00    +0.057 A 
ATOM      2  C   UNL     1       0.688   4.757  -5.887  0.00  0.00    +0.265 A 
ATOM      3  O   UNL     1      -0.164   4.774  -6.827  0.00  0.00    -0.267 OA
ATOM      4  N   UNL     1       0.292   5.287  -4.724  0.00  0.00    -0.273 N 
ATOM      5  C   UNL     1       1.233   5.456  -3.764  0.00  0.00    +0.084 A 
ATOM      6  C   UNL     1       2.562   5.110  -3.973  0.00  0.00    +0.035 A 
ATOM      7  C   UNL     1       2.941   4.704  -5.247  0.00  0.00    +0.008 A 
ENDROOT
BRANCH   1   9
ATOM      8  C   UNL     1       2.891   6.235  -7.953  0.00  0.00    +0.069 A 
ATOM      9  C   UNL     1       2.420   4.964  -7.676  0.00  0.00    +0.014 A 
ATOM     10  C   UNL     1       3.025   3.934  -8.380  0.00  0.00    +0.001 A 
ATOM     11  C   UNL     1       4.106   4.140  -9.226  0.00  0.00    +0.000 A 
ATOM     12  C   UNL     1       4.643   5.409  -9.353  0.00  0.00    +0.001 A 
ATOM     13  C   UNL     1       3.904   6.468  -8.874  0.00  0.00    +0.010 A 
BRANCH   8  15
ATOM     14  N   UNL     1       1.623   8.256  -6.963  0.00  0.00    -0.191 NA
ATOM     15  C   UNL     1       2.207   7.321  -7.290  0.00  0.00    +0.100 C 
ENDBRANCH   8  15
ENDBRANCH   1   9
BRANCH   4  16
ATOM     16  C   UNL     1      -0.945   5.997  -4.597  0.00  0.00    +0.067 A 
ATOM     17  C   UNL     1      -1.027   7.332  -4.866  0.00  0.00    +0.018 A 
ATOM     18  C   UNL     1      -2.276   7.927  -4.729  0.00  0.00    +0.001 A 
ATOM     19  C   UNL     1      -3.220   7.381  -3.877  0.00  0.00    +0.000 A 
ATOM     20  C   UNL     1      -2.945   6.159  -3.287  0.00  0.00    +0.001 A 
ATOM     21  C   UNL     1      -1.967   5.379  -3.892  0.00  0.00    +0.018 A 
ENDBRANCH   4  16
BRANCH   6  22
ATOM     22  C   UNL     1       3.533   5.694  -3.040  0.00  0.00    +0.083 A 
ATOM     23  N   UNL     1       4.171   6.799  -3.482  0.00  0.00    -0.244 NA
ATOM     24  C   UNL     1       4.734   7.640  -2.586  0.00  0.00    +0.099 A 
ATOM     25  C   UNL     1       5.109   7.184  -1.335  0.00  0.00    +0.021 A 
ATOM     26  C   UNL     1       4.397   6.106  -0.831  0.00  0.00    +0.003 A 
ATOM     27  C   UNL     1       3.556   5.430  -1.702  0.00  0.00    +0.019 A 
ENDBRANCH   6  22
TORSDOF 4
ENDMDL
MODEL 8
REMARK VINA RESULT:      -7.9      2.132      5.317
REMARK  Name = 
REMARK  4 active torsions:
REMARK  status: ('A' for Active; 'I' for Inactive)
REMARK    1  A    between atoms: C_2  and  C_3
REMARK    2  A    between atoms: C_8  and  C_9
REMARK    3  A    between atoms: C_11  and  C_12
REMARK    4  A    between atoms: N_19  and  C_20
REMARK                            x       y       z     vdW  Elec       q    Type
REMARK                         _______ _______ _______ _____ _____    ______ ____
ROOT
ATOM      1  C   UNL     1       2.461   5.057  -8.148  0.00  0.00    +0.057 A 
ATOM      2  C   UNL     1       3.794   5.015  -8.539  0.00  0.00    +0.265 A 
ATOM      3  O   UNL     1       4.641   5.023  -7.595  0.00  0.00    -0.267 OA
ATOM      4  N   UNL     1       4.229   5.455  -9.725  0.00  0.00    -0.273 N 
ATOM      5  C   UNL     1       3.306   5.636 -10.700  0.00  0.00    +0.084 A 
ATOM      6  C   UNL     1       1.955   5.390 -10.484  0.00  0.00    +0.035 A 
ATOM      7  C   UNL     1       1.545   5.077  -9.193  0.00  0.00    +0.008 A 
ENDROOT
BRANCH   1   9
ATOM      8  C   UNL     1       1.491   6.673  -6.606  0.00  0.00    +0.069 A 
ATOM      9  C   UNL     1       2.073   5.429  -6.777  0.00  0.00    +0.014 A 
ATOM     10  C   UNL     1       1.586   4.423  -5.956  0.00  0.00    +0.001 A 
ATOM     11  C   UNL     1       0.514   4.612  -5.095  0.00  0.00    +0.000 A 
ATOM     12  C   UNL     1      -0.137   5.833  -5.071  0.00  0.00    +0.001 A 
ATOM     13  C   UNL     1       0.485   6.902  -5.676  0.00  0.00    +0.010 A 
BRANCH   8  15
ATOM     14  N   UNL     1       2.445   8.476  -8.191  0.00  0.00    -0.191 NA
ATOM     15  C   UNL     1       2.051   7.746  -7.394  0.00  0.00    +0.100 C 
ENDBRANCH   8  15
ENDBRANCH   1   9
BRANCH   4  16
ATOM     16  C   UNL     1       5.512   6.073  -9.880  0.00  0.00    +0.067 A 
ATOM     17  C   UNL     1       5.695   7.120 -10.737  0.00  0.00    +0.018 A 
ATOM     18  C   UNL     1       6.973   7.662 -10.803  0.00  0.00    +0.001 A 
ATOM     19  C   UNL     1       8.077   6.893 -10.478  0.00  0.00    +0.000 A 
ATOM     20  C   UNL     1       7.866   5.633  -9.946  0.00  0.00    +0.001 A 
ATOM     21  C   UNL     1       6.614   5.388  -9.394  0.00  0.00    +0.018 A 
ENDBRANCH   4  16
BRANCH   6  22
ATOM     22  C   UNL     1       1.030   5.988 -11.453  0.00  0.00    +0.083 A 
ATOM     23  N   UNL     1       0.022   6.713 -10.923  0.00  0.00    -0.244 NA
ATOM     24  C   UNL     1      -0.606   7.633 -11.689  0.00  0.00    +0.099 A 
ATOM     25  C   UNL     1      -0.603   7.516 -13.067  0.00  0.00    +0.021 A 
ATOM     26  C   UNL     1       0.475   6.853 -13.631  0.00  0.00    +0.003 A 
ATOM     27  C   UNL     1       1.318   6.158 -12.775  0.00  0.00    +0.019 A 
ENDBRANCH   6  22
TORSDOF 4
ENDMDL
MODEL 9
REMARK VINA RESULT:      -7.4      2.711      7.446
REMARK  Name = 
REMARK  4 active torsions:
REMARK  status: ('A' for Active; 'I' for Inactive)
REMARK    1  A    between atoms: C_2  and  C_3
REMARK    2  A    between atoms: C_8  and  C_9
REMARK    3  A    between atoms: C_11  and  C_12
REMARK    4  A    between atoms: N_19  and  C_20
REMARK                            x       y       z     vdW  Elec       q    Type
REMARK                         _______ _______ _______ _____ _____    ______ ____
ROOT
ATOM      1  C   UNL     1       3.652   5.890 -10.026  0.00  0.00    +0.057 A 
ATOM      2  C   UNL     1       3.017   5.612 -11.230  0.00  0.00    +0.265 A 
ATOM      3  O   UNL     1       3.711   5.808 -12.273  0.00  0.00    -0.267 OA
ATOM      4  N   UNL     1       1.689   5.652 -11.391  0.00  0.00    -0.273 N 
ATOM      5  C   UNL     1       0.925   5.635 -10.272  0.00  0.00    +0.084 A 
ATOM      6  C   UNL     1       1.488   5.590  -9.002  0.00  0.00    +0.035 A 
ATOM      7  C   UNL     1       2.869   5.699  -8.893  0.00  0.00    +0.008 A 
ENDROOT
BRANCH   1   9
ATOM      8  C   UNL     1       6.048   5.997  -9.605  0.00  0.00    +0.069 A 
ATOM      9  C   UNL     1       4.899   6.673  -9.976  0.00  0.00    +0.014 A 
ATOM     10  C   UNL     1       5.068   7.664 -10.931  0.00  0.00    +0.001 A 
ATOM     11  C   UNL     1       6.284   7.898 -11.559  0.00  0.00    +0.000 A 
ATOM     12  C   UNL     1       7.371   7.094 -11.267  0.00  0.00    +0.001 A 
ATOM     13  C   UNL     1       7.291   6.290 -10.151  0.00  0.00    +0.010 A 
BRANCH   8  15
ATOM     14  N   UNL     1       5.779   4.421  -7.576  0.00  0.00    -0.191 NA
ATOM     15  C   UNL     1       5.896   5.025  -8.549  0.00  0.00    +0.100 C 
ENDBRANCH   8  15
ENDBRANCH   1   9
BRANCH   4  16
ATOM     16  C   UNL     1       1.087   6.076 -12.619  0.00  0.00    +0.067 A 
ATOM     17  C   UNL     1       1.134   5.296 -13.738  0.00  0.00    +0.018 A 
ATOM     18  C   UNL     1       0.505   5.789 -14.875  0.00  0.00    +0.001 A 
ATOM     19  C   UNL     1       0.334   7.151 -15.045  0.00  0.00    +0.000 A 
ATOM     20  C   UNL     1       0.667   7.991 -13.996  0.00  0.00    +0.001 A 
ATOM     21  C   UNL     1       0.745   7.414 -12.734  0.00  0.00    +0.018 A 
ENDBRANCH   4  16
BRANCH   6  22
ATOM     22  C   UNL     1       0.605   5.972  -7.894  0.00  0.00    +0.083 A 
ATOM     23  N   UNL     1      -0.616   5.394  -7.898  0.00  0.00    -0.244 NA
ATOM     24  C   UNL     1      -1.320   5.329  -6.746  0.00  0.00    +0.099 A 
ATOM     25  C   UNL     1      -1.081   6.232  -5.726  0.00  0.00    +0.021 A 
ATOM     26  C   UNL     1       0.197   6.763  -5.657  0.00  0.00    +0.003 A 
ATOM     27  C   UNL     1       1.041   6.545  -6.735  0.00  0.00    +0.019 A 
ENDBRANCH   6  22
TORSDOF 4
ENDMDL
