MODEL 1
REMARK VINA RESULT:      -7.5      0.000      0.000
REMARK  Name = 
REMARK  2 active torsions:
REMARK  status: ('A' for Active; 'I' for Inactive)
REMARK    1  A    between atoms: C_10  and  C_11
REMARK    2  A    between atoms: C_11  and  C_12
REMARK                            x       y       z     vdW  Elec       q    Type
REMARK                         _______ _______ _______ _____ _____    ______ ____
ROOT
ATOM      1  C   UNL     1       1.117   5.043  -4.358  0.00  0.00    +0.061 C 
ENDROOT
BRANCH   1   4
ATOM      2  O   UNL     1       1.291   4.840  -7.174  0.00  0.00    -0.286 OA
ATOM      3  C   UNL     1       2.366   5.353  -6.451  0.00  0.00    +0.203 A 
ATOM      4  C   UNL     1       2.177   5.742  -5.129  0.00  0.00    +0.033 A 
ATOM      5  C   UNL     1       3.343   6.029  -4.428  0.00  0.00    +0.068 A 
ATOM      6 CL   UNL     1       3.415   5.970  -2.681  0.00  0.00    -0.082 Cl
ATOM      7  C   UNL     1       4.511   6.353  -5.091  0.00  0.00    +0.069 A 
ATOM      8 CL   UNL     1       5.698   7.419  -4.355  0.00  0.00    -0.081 Cl
ATOM      9  C   UNL     1       4.644   5.989  -6.423  0.00  0.00    +0.027 A 
ATOM     10  C   UNL     1       3.585   5.387  -7.075  0.00  0.00    +0.097 A 
ATOM     11 CL   UNL     1       3.976   4.450  -8.505  0.00  0.00    -0.079 Cl
ENDBRANCH   1   4
BRANCH   1  12
ATOM     12  C   UNL     1       0.154   5.966  -3.727  0.00  0.00    +0.033 A 
ATOM     13  C   UNL     1      -0.333   5.616  -2.474  0.00  0.00    +0.068 A 
ATOM     14 CL   UNL     1       0.647   4.650  -1.379  0.00  0.00    -0.082 Cl
ATOM     15  C   UNL     1      -1.537   6.123  -2.003  0.00  0.00    +0.069 A 
ATOM     16 CL   UNL     1      -1.767   6.384  -0.277  0.00  0.00    -0.081 Cl
ATOM     17  C   UNL     1      -2.486   6.544  -2.928  0.00  0.00    +0.027 A 
ATOM     18  C   UNL     1      -2.045   6.881  -4.201  0.00  0.00    +0.097 A 
ATOM     19 CL   UNL     1      -3.010   7.945  -5.219  0.00  0.00    -0.079 Cl
ATOM     20  C   UNL     1      -0.740   6.596  -4.583  0.00  0.00    +0.203 A 
ATOM     21  O   UNL     1      -0.150   7.288  -5.645  0.00  0.00    -0.286 OA
ENDBRANCH   1  12
TORSDOF 2
ENDMDL
MODEL 2
REMARK VINA RESULT:      -7.5      2.037      5.903
REMARK  Name = 
REMARK  2 active torsions:
REMARK  status: ('A' for Active; 'I' for Inactive)
REMARK    1  A    between atoms: C_10  and  C_11
REMARK    2  A    between atoms: C_11  and  C_12
REMARK                            x       y       z     vdW  Elec       q    Type
REMARK                         _______ _______ _______ _____ _____    ______ ____
ROOT
ATOM      1  C   UNL     1       0.437   6.850  -5.737  0.00  0.00    +0.061 C 
ENDROOT
BRANCH   1   4
ATOM      2  O   UNL     1      -2.341   6.371  -5.511  0.00  0.00    -0.286 OA
ATOM      3  C   UNL     1      -1.497   6.059  -4.446  0.00  0.00    +0.203 A 
ATOM      4  C   UNL     1      -0.125   5.997  -4.658  0.00  0.00    +0.033 A 
ATOM      5  C   UNL     1       0.644   5.901  -3.503  0.00  0.00    +0.068 A 
ATOM      6 CL   UNL     1       2.326   6.380  -3.465  0.00  0.00    -0.082 Cl
ATOM      7  C   UNL     1       0.098   5.440  -2.320  0.00  0.00    +0.069 A 
ATOM      8 CL   UNL     1       1.090   4.597  -1.140  0.00  0.00    -0.081 Cl
ATOM      9  C   UNL     1      -1.280   5.474  -2.165  0.00  0.00    +0.027 A 
ATOM     10  C   UNL     1      -2.075   5.890  -3.215  0.00  0.00    +0.097 A 
ATOM     11 CL   UNL     1      -3.682   6.459  -2.804  0.00  0.00    -0.079 Cl
ENDBRANCH   1   4
BRANCH   1  12
ATOM     12  C   UNL     1       1.123   6.076  -6.790  0.00  0.00    +0.033 A 
ATOM     13  C   UNL     1       2.430   6.434  -7.092  0.00  0.00    +0.068 A 
ATOM     14 CL   UNL     1       3.461   7.149  -5.860  0.00  0.00    -0.082 Cl
ATOM     15  C   UNL     1       2.997   6.120  -8.321  0.00  0.00    +0.069 A 
ATOM     16 CL   UNL     1       4.725   5.805  -8.438  0.00  0.00    -0.081 Cl
ATOM     17  C   UNL     1       2.153   5.926  -9.409  0.00  0.00    +0.027 A 
ATOM     18  C   UNL     1       0.830   5.590  -9.152  0.00  0.00    +0.097 A 
ATOM     19 CL   UNL     1      -0.130   4.772 -10.380  0.00  0.00    -0.079 Cl
ATOM     20  C   UNL     1       0.333   5.663  -7.856  0.00  0.00    +0.203 A 
ATOM     21  O   UNL     1      -0.808   4.939  -7.498  0.00  0.00    -0.286 OA
ENDBRANCH   1  12
TORSDOF 2
ENDMDL
MODEL 3
REMARK VINA RESULT:      -7.5      2.300      3.678
REMARK  Name = 
REMARK  2 active torsions:
REMARK  status: ('A' for Active; 'I' for Inactive)
REMARK    1  A    between atoms: C_10  and  C_11
REMARK    2  A    between atoms: C_11  and  C_12
REMARK                            x       y       z     vdW  Elec       q    Type
REMARK                         _______ _______ _______ _____ _____    ______ ____
ROOT
ATOM      1  C   UNL     1       1.359   4.954  -3.615  0.00  0.00    +0.061 C 
ENDROOT
BRANCH   1   4
ATOM      2  O   UNL     1       2.482   7.037  -5.163  0.00  0.00    -0.286 OA
ATOM      3  C   UNL     1       2.851   6.894  -3.827  0.00  0.00    +0.203 A 
ATOM      4  C   UNL     1       2.087   6.089  -2.990  0.00  0.00    +0.033 A 
ATOM      5  C   UNL     1       2.651   5.831  -1.746  0.00  0.00    +0.068 A 
ATOM      6 CL   UNL     1       2.194   4.440  -0.788  0.00  0.00    -0.082 Cl
ATOM      7  C   UNL     1       3.626   6.659  -1.220  0.00  0.00    +0.069 A 
ATOM      8 CL   UNL     1       3.795   6.858   0.517  0.00  0.00    -0.081 Cl
ATOM      9  C   UNL     1       4.335   7.483  -2.081  0.00  0.00    +0.027 A 
ATOM     10  C   UNL     1       4.003   7.517  -3.422  0.00  0.00    +0.097 A 
ATOM     11 CL   UNL     1       5.244   8.086  -4.523  0.00  0.00    -0.079 Cl
ENDBRANCH   1   4
BRANCH   1  12
ATOM     12  C   UNL     1      -0.090   5.199  -3.750  0.00  0.00    +0.033 A 
ATOM     13  C   UNL     1      -0.553   5.597  -4.998  0.00  0.00    +0.068 A 
ATOM     14 CL   UNL     1       0.289   5.096  -6.458  0.00  0.00    -0.082 Cl
ATOM     15  C   UNL     1      -1.753   6.283  -5.134  0.00  0.00    +0.069 A 
ATOM     16 CL   UNL     1      -2.722   6.078  -6.589  0.00  0.00    -0.081 Cl
ATOM     17  C   UNL     1      -2.227   7.011  -4.049  0.00  0.00    +0.027 A 
ATOM     18  C   UNL     1      -1.771   6.661  -2.784  0.00  0.00    +0.097 A 
ATOM     19 CL   UNL     1      -2.708   7.088  -1.356  0.00  0.00    -0.079 Cl
ATOM     20  C   UNL     1      -0.720   5.763  -2.648  0.00  0.00    +0.203 A 
ATOM     21  O   UNL     1      -0.535   5.072  -1.446  0.00  0.00    -0.286 OA
ENDBRANCH   1  12
TORSDOF 2
ENDMDL
MODEL 4
REMARK VINA RESULT:      -7.3      2.359      6.795
REMARK  Name = 
REMARK  2 active torsions:
REMARK  status: ('A' for Active; 'I' for Inactive)
REMARK    1  A    between atoms: C_10  and  C_11
REMARK    2  A    between atoms: C_11  and  C_12
REMARK                            x       y       z     vdW  Elec       q    Type
REMARK                         _______ _______ _______ _____ _____    ______ ____
ROOT
ATOM      1  C   UNL     1       1.565   4.625  -6.760  0.00  0.00    +0.061 C 
ENDROOT
BRANCH   1   4
ATOM      2  O   UNL     1       2.908   4.979  -4.297  0.00  0.00    -0.286 OA
ATOM      3  C   UNL     1       1.601   5.440  -4.443  0.00  0.00    +0.203 A 
ATOM      4  C   UNL     1       1.055   5.552  -5.717  0.00  0.00    +0.033 A 
ATOM      5  C   UNL     1      -0.312   5.804  -5.750  0.00  0.00    +0.068 A 
ATOM      6 CL   UNL     1      -1.294   5.420  -7.146  0.00  0.00    -0.082 Cl
ATOM      7  C   UNL     1      -0.962   6.353  -4.661  0.00  0.00    +0.069 A 
ATOM      8 CL   UNL     1      -2.384   7.362  -4.876  0.00  0.00    -0.081 Cl
ATOM      9  C   UNL     1      -0.363   6.263  -3.413  0.00  0.00    +0.027 A 
ATOM     10  C   UNL     1       0.895   5.703  -3.299  0.00  0.00    +0.097 A 
ATOM     11 CL   UNL     1       1.341   5.095  -1.715  0.00  0.00    -0.079 Cl
ENDBRANCH   1   4
BRANCH   1  12
ATOM     12  C   UNL     1       2.319   5.311  -7.827  0.00  0.00    +0.033 A 
ATOM     13  C   UNL     1       1.779   5.283  -9.106  0.00  0.00    +0.068 A 
ATOM     14 CL   UNL     1       0.038   5.179  -9.331  0.00  0.00    -0.082 Cl
ATOM     15  C   UNL     1       2.576   5.467 -10.228  0.00  0.00    +0.069 A 
ATOM     16 CL   UNL     1       1.906   6.227 -11.668  0.00  0.00    -0.081 Cl
ATOM     17  C   UNL     1       3.931   5.170 -10.134  0.00  0.00    +0.027 A 
ATOM     18  C   UNL     1       4.507   5.164  -8.871  0.00  0.00    +0.097 A 
ATOM     19 CL   UNL     1       6.244   5.385  -8.689  0.00  0.00    -0.079 Cl
ATOM     20  C   UNL     1       3.704   5.239  -7.740  0.00  0.00    +0.203 A 
ATOM     21  O   UNL     1       4.240   5.668  -6.522  0.00  0.00    -0.286 OA
ENDBRANCH   1  12
TORSDOF 2
ENDMDL
MODEL 5
REMARK VINA RESULT:      -7.3      3.178      4.922
REMARK  Name = 
REMARK  2 active torsions:
REMARK  status: ('A' for Active; 'I' for Inactive)
REMARK    1  A    between atoms: C_10  and  C_11
REMARK    2  A    between atoms: C_11  and  C_12
REMARK                            x       y       z     vdW  Elec       q    Type
REMARK                         _______ _______ _______ _____ _____    ______ ____
ROOT
ATOM      1  C   UNL     1       2.884   4.811  -8.658  0.00  0.00    +0.061 C 
ENDROOT
BRANCH   1   4
ATOM      2  O   UNL     1       1.603   5.667 -11.029  0.00  0.00    -0.286 OA
ATOM      3  C   UNL     1       2.980   5.830 -10.891  0.00  0.00    +0.203 A 
ATOM      4  C   UNL     1       3.560   5.704  -9.633  0.00  0.00    +0.033 A 
ATOM      5  C   UNL     1       4.949   5.662  -9.628  0.00  0.00    +0.068 A 
ATOM      6 CL   UNL     1       5.852   4.951  -8.309  0.00  0.00    -0.082 Cl
ATOM      7  C   UNL     1       5.682   6.162 -10.688  0.00  0.00    +0.069 A 
ATOM      8 CL   UNL     1       7.289   6.827 -10.437  0.00  0.00    -0.081 Cl
ATOM      9  C   UNL     1       5.055   6.317 -11.916  0.00  0.00    +0.027 A 
ATOM     10  C   UNL     1       3.706   6.045 -12.033  0.00  0.00    +0.097 A 
ATOM     11 CL   UNL     1       3.114   5.695 -13.647  0.00  0.00    -0.079 Cl
ENDBRANCH   1   4
BRANCH   1  12
ATOM     12  C   UNL     1       2.073   5.543  -7.665  0.00  0.00    +0.033 A 
ATOM     13  C   UNL     1       2.641   5.760  -6.417  0.00  0.00    +0.068 A 
ATOM     14 CL   UNL     1       4.386   5.901  -6.248  0.00  0.00    -0.082 Cl
ATOM     15  C   UNL     1       1.853   6.002  -5.299  0.00  0.00    +0.069 A 
ATOM     16 CL   UNL     1       2.454   7.032  -4.004  0.00  0.00    -0.081 Cl
ATOM     17  C   UNL     1       0.544   5.532  -5.298  0.00  0.00    +0.027 A 
ATOM     18  C   UNL     1      -0.055   5.279  -6.525  0.00  0.00    +0.097 A 
ATOM     19 CL   UNL     1      -1.810   5.260  -6.666  0.00  0.00    -0.079 Cl
ATOM     20  C   UNL     1       0.707   5.292  -7.687  0.00  0.00    +0.203 A 
ATOM     21  O   UNL     1       0.094   5.478  -8.930  0.00  0.00    -0.286 OA
ENDBRANCH   1  12
TORSDOF 2
ENDMDL
MODEL 6
REMARK VINA RESULT:      -7.3      1.606      6.510
REMARK  Name = 
REMARK  2 active torsions:
REMARK  status: ('A' for Active; 'I' for Inactive)
REMARK    1  A    between atoms: C_10  and  C_11
REMARK    2  A    between atoms: C_11  and  C_12
REMARK                            x       y       z     vdW  Elec       q    Type
REMARK                         _______ _______ _______ _____ _____    ______ ____
ROOT
ATOM      1  C   UNL     1       1.231   5.102  -4.593  0.00  0.00    +0.061 C 
ENDROOT
BRANCH   1   4
ATOM      2  O   UNL     1       0.942   5.646  -1.833  0.00  0.00    -0.286 OA
ATOM      3  C   UNL     1      -0.049   6.052  -2.725  0.00  0.00    +0.203 A 
ATOM      4  C   UNL     1       0.224   6.070  -4.088  0.00  0.00    +0.033 A 
ATOM      5  C   UNL     1      -0.881   6.272  -4.907  0.00  0.00    +0.068 A 
ATOM      6 CL   UNL     1      -0.900   5.773  -6.583  0.00  0.00    -0.082 Cl
ATOM      7  C   UNL     1      -2.032   6.860  -4.417  0.00  0.00    +0.069 A 
ATOM      8 CL   UNL     1      -3.076   7.805  -5.468  0.00  0.00    -0.081 Cl
ATOM      9  C   UNL     1      -2.247   6.865  -3.047  0.00  0.00    +0.027 A 
ATOM     10  C   UNL     1      -1.279   6.356  -2.202  0.00  0.00    +0.097 A 
ATOM     11 CL   UNL     1      -1.814   5.857  -0.608  0.00  0.00    -0.079 Cl
ENDBRANCH   1   4
BRANCH   1  12
ATOM     12  C   UNL     1       2.327   5.744  -5.345  0.00  0.00    +0.033 A 
ATOM     13  C   UNL     1       2.796   5.083  -6.473  0.00  0.00    +0.068 A 
ATOM     14 CL   UNL     1       1.725   4.040  -7.400  0.00  0.00    -0.082 Cl
ATOM     15  C   UNL     1       4.070   5.325  -6.971  0.00  0.00    +0.069 A 
ATOM     16 CL   UNL     1       4.379   5.189  -8.699  0.00  0.00    -0.081 Cl
ATOM     17  C   UNL     1       5.041   5.807  -6.101  0.00  0.00    +0.027 A 
ATOM     18  C   UNL     1       4.615   6.454  -4.948  0.00  0.00    +0.097 A 
ATOM     19 CL   UNL     1       5.686   7.577  -4.117  0.00  0.00    -0.079 Cl
ATOM     20  C   UNL     1       3.274   6.421  -4.587  0.00  0.00    +0.203 A 
ATOM     21  O   UNL     1       2.753   7.389  -3.722  0.00  0.00    -0.286 OA
ENDBRANCH   1  12
TORSDOF 2
ENDMDL
MODEL 7
REMARK VINA RESULT:      -7.2      2.826      6.131
REMARK  Name = 
REMARK  2 active torsions:
REMARK  status: ('A' for Active; 'I' for Inactive)
REMARK    1  A    between atoms: C_10  and  C_11
REMARK    2  A    between atoms: C_11  and  C_12
REMARK                            x       y       z     vdW  Elec       q    Type
REMARK                         _______ _______ _______ _____ _____    ______ ____
ROOT
ATOM      1  C   UNL     1       1.172   5.458  -2.952  0.00  0.00    +0.061 C 
ENDROOT
BRANCH   1   4
ATOM      2  O   UNL     1      -0.983   6.898  -1.820  0.00  0.00    -0.286 OA
ATOM      3  C   UNL     1      -1.075   6.433  -3.131  0.00  0.00    +0.203 A 
ATOM      4  C   UNL     1       0.074   6.009  -3.788  0.00  0.00    +0.033 A 
ATOM      5  C   UNL     1      -0.146   5.360  -4.998  0.00  0.00    +0.068 A 
ATOM      6 CL   UNL     1       1.028   4.266  -5.693  0.00  0.00    -0.082 Cl
ATOM      7  C   UNL     1      -1.325   5.538  -5.697  0.00  0.00    +0.069 A 
ATOM      8 CL   UNL     1      -1.359   5.419  -7.450  0.00  0.00    -0.081 Cl
ATOM      9  C   UNL     1      -2.438   6.009  -5.017  0.00  0.00    +0.027 A 
ATOM     10  C   UNL     1      -2.326   6.362  -3.686  0.00  0.00    +0.097 A 
ATOM     11 CL   UNL     1      -3.811   6.382  -2.753  0.00  0.00    -0.079 Cl
ENDBRANCH   1   4
BRANCH   1  12
ATOM     12  C   UNL     1       2.191   6.464  -2.596  0.00  0.00    +0.033 A 
ATOM     13  C   UNL     1       3.215   6.681  -3.508  0.00  0.00    +0.068 A 
ATOM     14 CL   UNL     1       2.941   6.430  -5.227  0.00  0.00    -0.082 Cl
ATOM     15  C   UNL     1       4.431   7.222  -3.110  0.00  0.00    +0.069 A 
ATOM     16 CL   UNL     1       5.356   8.222  -4.225  0.00  0.00    -0.081 Cl
ATOM     17  C   UNL     1       4.819   7.073  -1.783  0.00  0.00    +0.027 A 
ATOM     18  C   UNL     1       3.829   6.831  -0.840  0.00  0.00    +0.097 A 
ATOM     19 CL   UNL     1       4.111   7.204   0.857  0.00  0.00    -0.079 Cl
ATOM     20  C   UNL     1       2.535   6.536  -1.252  0.00  0.00    +0.203 A 
ATOM     21  O   UNL     1       1.458   6.720  -0.378  0.00  0.00    -0.286 OA
ENDBRANCH   1  12
TORSDOF 2
ENDMDL
MODEL 8
REMARK VINA RESULT:      -7.2      4.222      6.978
REMARK  Name = 
REMARK  2 active torsions:
REMARK  status: ('A' for Active; 'I' for Inactive)
REMARK    1  A    between atoms: C_10  and  C_11
REMARK    2  A    between atoms: C_11  and  C_12
REMARK                            x       y       z     vdW  Elec       q    Type
REMARK                         _______ _______ _______ _____ _____    ______ ____
ROOT
ATOM      1  C   UNL     1       3.990   6.766  -9.661  0.00  0.00    +0.061 C 
ENDROOT
BRANCH   1   4
ATOM      2  O   UNL     1       6.754   6.195  -9.847  0.00  0.00    -0.286 OA
ATOM      3  C   UNL     1       5.914   5.900 -10.919  0.00  0.00    +0.203 A 
ATOM      4  C   UNL     1       4.537   5.885 -10.725  0.00  0.00    +0.033 A 
ATOM      5  C   UNL     1       3.780   5.802 -11.888  0.00  0.00    +0.068 A 
ATOM      6 CL   UNL     1       2.115   6.334 -11.953  0.00  0.00    -0.082 Cl
ATOM      7  C   UNL     1       4.326   5.312 -13.060  0.00  0.00    +0.069 A 
ATOM      8 CL   UNL     1       3.322   4.488 -14.244  0.00  0.00    -0.081 Cl
ATOM      9  C   UNL     1       5.706   5.299 -13.197  0.00  0.00    +0.027 A 
ATOM     10  C   UNL     1       6.501   5.699 -12.141  0.00  0.00    +0.097 A 
ATOM     11 CL   UNL     1       8.131   6.213 -12.537  0.00  0.00    -0.079 Cl
ENDBRANCH   1   4
BRANCH   1  12
ATOM     12  C   UNL     1       3.325   6.020  -8.575  0.00  0.00    +0.033 A 
ATOM     13  C   UNL     1       1.992   6.319  -8.323  0.00  0.00    +0.068 A 
ATOM     14 CL   UNL     1       0.952   6.895  -9.619  0.00  0.00    -0.082 Cl
ATOM     15  C   UNL     1       1.416   6.050  -7.089  0.00  0.00    +0.069 A 
ATOM     16 CL   UNL     1      -0.294   5.642  -6.987  0.00  0.00    -0.081 Cl
ATOM     17  C   UNL     1       2.243   5.973  -5.974  0.00  0.00    +0.027 A 
ATOM     18  C   UNL     1       3.588   5.699  -6.182  0.00  0.00    +0.097 A 
ATOM     19 CL   UNL     1       4.564   5.017  -4.886  0.00  0.00    -0.079 Cl
ATOM     20  C   UNL     1       4.111   5.721  -7.469  0.00  0.00    +0.203 A 
ATOM     21  O   UNL     1       5.300   5.044  -7.758  0.00  0.00    -0.286 OA
ENDBRANCH   1  12
TORSDOF 2
ENDMDL
MODEL 9
REMARK VINA RESULT:      -7.2      2.558      5.337
REMARK  Name = 
REMARK  2 active torsions:
REMARK  status: ('A' for Active; 'I' for Inactive)
REMARK    1  A    between atoms: C_10  and  C_11
REMARK    2  A    between atoms: C_11  and  C_12
REMARK                            x       y       z     vdW  Elec       q    Type
REMARK                         _______ _______ _______ _____ _____    ______ ____
ROOT
ATOM      1  C   UNL     1       1.294   5.009  -2.956  0.00  0.00    +0.061 C 
ENDROOT
BRANCH   1   4
ATOM      2  O   UNL     1      -0.829   6.639  -2.042  0.00  0.00    -0.286 OA
ATOM      3  C   UNL     1      -0.756   6.290  -3.390  0.00  0.00    +0.203 A 
ATOM      4  C   UNL     1       0.427   5.764  -3.897  0.00  0.00    +0.033 A 
ATOM      5  C   UNL     1       0.335   5.244  -5.183  0.00  0.00    +0.068 A 
ATOM      6 CL   UNL     1       1.468   4.056  -5.787  0.00  0.00    -0.082 Cl
ATOM      7  C   UNL     1      -0.680   5.631  -6.037  0.00  0.00    +0.069 A 
ATOM      8 CL   UNL     1      -0.434   5.648  -7.777  0.00  0.00    -0.081 Cl
ATOM      9  C   UNL     1      -1.826   6.195  -5.497  0.00  0.00    +0.027 A 
ATOM     10  C   UNL     1      -1.896   6.430  -4.138  0.00  0.00    +0.097 A 
ATOM     11 CL   UNL     1      -3.503   6.580  -3.450  0.00  0.00    -0.079 Cl
ENDBRANCH   1   4
BRANCH   1  12
ATOM     12  C   UNL     1       2.460   5.786  -2.492  0.00  0.00    +0.033 A 
ATOM     13  C   UNL     1       2.289   6.572  -1.360  0.00  0.00    +0.068 A 
ATOM     14 CL   UNL     1       1.124   6.110  -0.126  0.00  0.00    -0.082 Cl
ATOM     15  C   UNL     1       3.116   7.659  -1.107  0.00  0.00    +0.069 A 
ATOM     16 CL   UNL     1       3.476   8.124   0.552  0.00  0.00    -0.081 Cl
ATOM     17  C   UNL     1       3.752   8.271  -2.181  0.00  0.00    +0.027 A 
ATOM     18  C   UNL     1       3.923   7.528  -3.343  0.00  0.00    +0.097 A 
ATOM     19 CL   UNL     1       5.180   7.964  -4.495  0.00  0.00    -0.079 Cl
ATOM     20  C   UNL     1       3.285   6.302  -3.484  0.00  0.00    +0.203 A 
ATOM     21  O   UNL     1       3.763   5.361  -4.401  0.00  0.00    -0.286 OA
ENDBRANCH   1  12
TORSDOF 2
ENDMDL
