MODEL 1
REMARK VINA RESULT:      -7.3      0.000      0.000
REMARK  Name = 
REMARK  4 active torsions:
REMARK  status: ('A' for Active; 'I' for Inactive)
REMARK    1  A    between atoms: C_2  and  C_3
REMARK    2  A    between atoms: N_5  and  C_6
REMARK    3  A    between atoms: C_6  and  C_7
REMARK    4  A    between atoms: C_9  and  C_10
REMARK                            x       y       z     vdW  Elec       q    Type
REMARK                         _______ _______ _______ _____ _____    ______ ____
ROOT
ATOM      1  C   UNL     1       4.613   5.911  -7.608  0.00  0.00    +0.026 C 
ATOM      2  C   UNL     1       4.321   5.052  -9.105  0.00  0.00    +0.024 C 
ATOM      3  C   UNL     1       3.491   6.558  -8.784  0.00  0.00    +0.006 C 
ENDROOT
BRANCH   2   4
ATOM      4  C   UNL     1       5.590   5.716  -9.929  0.00  0.00    -0.023 A 
ATOM      5  C   UNL     1       5.453   5.408 -11.281  0.00  0.00    +0.012 A 
ATOM      6  C   UNL     1       4.266   5.355 -12.154  0.00  0.00    +0.076 C 
ATOM      7  C   UNL     1       4.832   5.307 -13.560  0.00  0.00    +0.210 C 
ATOM      8  O   UNL     1       6.225   5.185 -13.394  0.00  0.00    -0.475 OA
ATOM      9  C   UNL     1       6.587   5.368 -12.073  0.00  0.00    +0.134 A 
ATOM     10  C   UNL     1       7.838   5.410 -11.466  0.00  0.00    +0.037 A 
ATOM     11  C   UNL     1       7.872   6.053 -10.238  0.00  0.00    +0.003 A 
ATOM     12  C   UNL     1       6.805   5.727  -9.409  0.00  0.00    -0.004 A 
ENDBRANCH   2   4
BRANCH   1  13
ATOM     13  C   UNL     1       3.388   5.124  -6.783  0.00  0.00    +0.115 C 
BRANCH  13  15
ATOM     14  C   UNL     1       3.644   6.768  -5.004  0.00  0.00    +0.241 C 
ATOM     15  N   UNL     1       3.896   5.427  -5.442  0.00  0.00    -0.205 NA
ATOM     16  O   UNL     1       2.428   7.052  -4.910  0.00  0.00    -0.273 OA
BRANCH  14  18
ATOM     17  C   UNL     1       5.531   7.409  -4.219  0.00  0.00    +0.010 C 
ATOM     18  C   UNL     1       4.616   7.607  -4.273  0.00  0.00    +0.087 C 
ENDBRANCH  14  18
ENDBRANCH  13  15
ENDBRANCH   1  13
TORSDOF 4
ENDMDL
MODEL 2
REMARK VINA RESULT:      -6.9      2.361      6.822
REMARK  Name = 
REMARK  4 active torsions:
REMARK  status: ('A' for Active; 'I' for Inactive)
REMARK    1  A    between atoms: C_2  and  C_3
REMARK    2  A    between atoms: N_5  and  C_6
REMARK    3  A    between atoms: C_6  and  C_7
REMARK    4  A    between atoms: C_9  and  C_10
REMARK                            x       y       z     vdW  Elec       q    Type
REMARK                         _______ _______ _______ _____ _____    ______ ____
ROOT
ATOM      1  C   UNL     1       5.204   5.095  -8.347  0.00  0.00    +0.026 C 
ATOM      2  C   UNL     1       3.721   5.916  -7.912  0.00  0.00    +0.024 C 
ATOM      3  C   UNL     1       3.660   4.428  -8.828  0.00  0.00    +0.006 C 
ENDROOT
BRANCH   2   4
ATOM      4  C   UNL     1       3.574   5.219  -6.422  0.00  0.00    -0.023 A 
ATOM      5  C   UNL     1       2.252   5.346  -6.000  0.00  0.00    +0.012 A 
ATOM      6  C   UNL     1       0.978   5.227  -6.732  0.00  0.00    +0.076 C 
ATOM      7  C   UNL     1      -0.075   5.125  -5.646  0.00  0.00    +0.210 C 
ATOM      8  O   UNL     1       0.617   5.339  -4.439  0.00  0.00    -0.475 OA
ATOM      9  C   UNL     1       1.984   5.344  -4.642  0.00  0.00    +0.134 A 
ATOM     10  C   UNL     1       3.041   5.442  -3.743  0.00  0.00    +0.037 A 
ATOM     11  C   UNL     1       4.255   4.963  -4.211  0.00  0.00    +0.003 A 
ATOM     12  C   UNL     1       4.534   5.337  -5.520  0.00  0.00    -0.004 A 
ENDBRANCH   2   4
BRANCH   1  13
ATOM     13  C   UNL     1       5.370   5.914  -9.796  0.00  0.00    +0.115 C 
BRANCH  13  15
ATOM     14  C   UNL     1       7.433   6.559 -10.919  0.00  0.00    +0.241 C 
ATOM     15  N   UNL     1       6.830   5.806  -9.859  0.00  0.00    -0.205 NA
ATOM     16  O   UNL     1       7.250   7.795 -10.833  0.00  0.00    -0.273 OA
BRANCH  14  18
ATOM     17  C   UNL     1       8.417   5.673 -12.602  0.00  0.00    +0.010 C 
ATOM     18  C   UNL     1       8.544   6.074 -11.764  0.00  0.00    +0.087 C 
ENDBRANCH  14  18
ENDBRANCH  13  15
ENDBRANCH   1  13
TORSDOF 4
ENDMDL
MODEL 3
REMARK VINA RESULT:      -6.9      2.403      2.850
REMARK  Name = 
REMARK  4 active torsions:
REMARK  status: ('A' for Active; 'I' for Inactive)
REMARK    1  A    between atoms: C_2  and  C_3
REMARK    2  A    between atoms: N_5  and  C_6
REMARK    3  A    between atoms: C_6  and  C_7
REMARK    4  A    between atoms: C_9  and  C_10
REMARK                            x       y       z     vdW  Elec       q    Type
REMARK                         _______ _______ _______ _____ _____    ______ ____
ROOT
ATOM      1  C   UNL     1       3.365   5.780  -8.706  0.00  0.00    +0.026 C 
ATOM      2  C   UNL     1       3.839   4.904 -10.145  0.00  0.00    +0.024 C 
ATOM      3  C   UNL     1       2.912   6.381 -10.285  0.00  0.00    +0.006 C 
ENDROOT
BRANCH   2   4
ATOM      4  C   UNL     1       5.326   5.609 -10.288  0.00  0.00    -0.023 A 
ATOM      5  C   UNL     1       5.817   5.358 -11.567  0.00  0.00    +0.012 A 
ATOM      6  C   UNL     1       5.150   5.334 -12.882  0.00  0.00    +0.076 C 
ATOM      7  C   UNL     1       6.288   5.348 -13.884  0.00  0.00    +0.210 C 
ATOM      8  O   UNL     1       7.460   5.227 -13.114  0.00  0.00    -0.475 OA
ATOM      9  C   UNL     1       7.188   5.356 -11.766  0.00  0.00    +0.134 A 
ATOM     10  C   UNL     1       8.031   5.380 -10.661  0.00  0.00    +0.037 A 
ATOM     11  C   UNL     1       7.496   5.972  -9.527  0.00  0.00    +0.003 A 
ATOM     12  C   UNL     1       6.178   5.605  -9.277  0.00  0.00    -0.004 A 
ENDBRANCH   2   4
BRANCH   1  13
ATOM     13  C   UNL     1       1.920   4.953  -8.539  0.00  0.00    +0.115 C 
BRANCH  13  15
ATOM     14  C   UNL     1       0.610   4.931  -6.486  0.00  0.00    +0.241 C 
ATOM     15  N   UNL     1       1.470   5.683  -7.350  0.00  0.00    -0.205 NA
ATOM     16  O   UNL     1       1.146   3.909  -5.998  0.00  0.00    -0.273 OA
BRANCH  14  18
ATOM     17  C   UNL     1      -1.397   5.647  -6.269  0.00  0.00    +0.010 C 
ATOM     18  C   UNL     1      -0.592   5.474  -5.820  0.00  0.00    +0.087 C 
ENDBRANCH  14  18
ENDBRANCH  13  15
ENDBRANCH   1  13
TORSDOF 4
ENDMDL
MODEL 4
REMARK VINA RESULT:      -6.8      4.423      8.820
REMARK  Name = 
REMARK  4 active torsions:
REMARK  status: ('A' for Active; 'I' for Inactive)
REMARK    1  A    between atoms: C_2  and  C_3
REMARK    2  A    between atoms: N_5  and  C_6
REMARK    3  A    between atoms: C_6  and  C_7
REMARK    4  A    between atoms: C_9  and  C_10
REMARK                            x       y       z     vdW  Elec       q    Type
REMARK                         _______ _______ _______ _____ _____    ______ ____
ROOT
ATOM      1  C   UNL     1       0.787   6.003  -7.748  0.00  0.00    +0.026 C 
ATOM      2  C   UNL     1       0.925   5.072  -6.273  0.00  0.00    +0.024 C 
ATOM      3  C   UNL     1       1.868   6.530  -6.478  0.00  0.00    +0.006 C 
ENDROOT
BRANCH   2   4
ATOM      4  C   UNL     1      -0.351   5.787  -5.505  0.00  0.00    -0.023 A 
ATOM      5  C   UNL     1      -0.302   5.449  -4.153  0.00  0.00    +0.012 A 
ATOM      6  C   UNL     1       0.831   5.318  -3.220  0.00  0.00    +0.076 C 
ATOM      7  C   UNL     1       0.189   5.276  -1.847  0.00  0.00    +0.210 C 
ATOM      8  O   UNL     1      -1.197   5.230  -2.089  0.00  0.00    -0.475 OA
ATOM      9  C   UNL     1      -1.479   5.454  -3.423  0.00  0.00    +0.134 A 
ATOM     10  C   UNL     1      -2.691   5.572  -4.095  0.00  0.00    +0.037 A 
ATOM     11  C   UNL     1      -2.626   6.237  -5.310  0.00  0.00    +0.003 A 
ATOM     12  C   UNL     1      -1.534   5.870  -6.087  0.00  0.00    -0.004 A 
ENDBRANCH   2   4
BRANCH   1  13
ATOM     13  C   UNL     1       2.011   5.168  -8.526  0.00  0.00    +0.115 C 
BRANCH  13  15
ATOM     14  C   UNL     1       1.304   6.019 -10.696  0.00  0.00    +0.241 C 
ATOM     15  N   UNL     1       1.263   4.932  -9.765  0.00  0.00    -0.205 NA
ATOM     16  O   UNL     1       2.454   6.289 -11.114  0.00  0.00    -0.273 OA
BRANCH  14  18
ATOM     17  C   UNL     1      -0.372   7.236 -11.243  0.00  0.00    +0.010 C 
ATOM     18  C   UNL     1       0.146   6.492 -11.484  0.00  0.00    +0.087 C 
ENDBRANCH  14  18
ENDBRANCH  13  15
ENDBRANCH   1  13
TORSDOF 4
ENDMDL
MODEL 5
REMARK VINA RESULT:      -6.6      3.540      5.142
REMARK  Name = 
REMARK  4 active torsions:
REMARK  status: ('A' for Active; 'I' for Inactive)
REMARK    1  A    between atoms: C_2  and  C_3
REMARK    2  A    between atoms: N_5  and  C_6
REMARK    3  A    between atoms: C_6  and  C_7
REMARK    4  A    between atoms: C_9  and  C_10
REMARK                            x       y       z     vdW  Elec       q    Type
REMARK                         _______ _______ _______ _____ _____    ______ ____
ROOT
ATOM      1  C   UNL     1       0.561   4.893  -5.988  0.00  0.00    +0.026 C 
ATOM      2  C   UNL     1       2.012   5.525  -6.734  0.00  0.00    +0.024 C 
ATOM      3  C   UNL     1       1.929   3.840  -6.272  0.00  0.00    +0.006 C 
ENDROOT
BRANCH   2   4
ATOM      4  C   UNL     1       1.507   5.311  -8.292  0.00  0.00    -0.023 A 
ATOM      5  C   UNL     1       2.597   5.489  -9.142  0.00  0.00    +0.012 A 
ATOM      6  C   UNL     1       4.008   5.083  -9.016  0.00  0.00    +0.076 C 
ATOM      7  C   UNL     1       4.579   5.261 -10.410  0.00  0.00    +0.210 C 
ATOM      8  O   UNL     1       3.552   5.872 -11.154  0.00  0.00    -0.475 OA
ATOM      9  C   UNL     1       2.366   5.889 -10.447  0.00  0.00    +0.134 A 
ATOM     10  C   UNL     1       1.092   6.316 -10.808  0.00  0.00    +0.037 A 
ATOM     11  C   UNL     1       0.059   5.783 -10.052  0.00  0.00    +0.003 A 
ATOM     12  C   UNL     1       0.325   5.752  -8.688  0.00  0.00    -0.004 A 
ENDBRANCH   2   4
BRANCH   1  13
ATOM     13  C   UNL     1       1.071   5.237  -4.432  0.00  0.00    +0.115 C 
BRANCH  13  15
ATOM     14  C   UNL     1      -1.251   5.798  -3.956  0.00  0.00    +0.241 C 
ATOM     15  N   UNL     1       0.077   6.285  -4.181  0.00  0.00    -0.205 NA
ATOM     16  O   UNL     1      -1.360   5.065  -2.946  0.00  0.00    -0.273 OA
BRANCH  14  18
ATOM     17  C   UNL     1      -2.465   7.173  -5.062  0.00  0.00    +0.010 C 
ATOM     18  C   UNL     1      -2.475   6.419  -4.503  0.00  0.00    +0.087 C 
ENDBRANCH  14  18
ENDBRANCH  13  15
ENDBRANCH   1  13
TORSDOF 4
ENDMDL
MODEL 6
REMARK VINA RESULT:      -6.6      4.145      8.574
REMARK  Name = 
REMARK  4 active torsions:
REMARK  status: ('A' for Active; 'I' for Inactive)
REMARK    1  A    between atoms: C_2  and  C_3
REMARK    2  A    between atoms: N_5  and  C_6
REMARK    3  A    between atoms: C_6  and  C_7
REMARK    4  A    between atoms: C_9  and  C_10
REMARK                            x       y       z     vdW  Elec       q    Type
REMARK                         _______ _______ _______ _____ _____    ______ ____
ROOT
ATOM      1  C   UNL     1       1.866   6.403  -6.411  0.00  0.00    +0.026 C 
ATOM      2  C   UNL     1       1.414   5.327  -5.106  0.00  0.00    +0.024 C 
ATOM      3  C   UNL     1       2.225   6.837  -4.755  0.00  0.00    +0.006 C 
ENDROOT
BRANCH   2   4
ATOM      4  C   UNL     1      -0.124   5.905  -4.938  0.00  0.00    -0.023 A 
ATOM      5  C   UNL     1      -0.596   5.553  -3.675  0.00  0.00    +0.012 A 
ATOM      6  C   UNL     1       0.068   5.519  -2.360  0.00  0.00    +0.076 C 
ATOM      7  C   UNL     1      -1.069   5.395  -1.363  0.00  0.00    +0.210 C 
ATOM      8  O   UNL     1      -2.226   5.218  -2.145  0.00  0.00    -0.475 OA
ATOM      9  C   UNL     1      -1.963   5.434  -3.484  0.00  0.00    +0.134 A 
ATOM     10  C   UNL     1      -2.804   5.445  -4.592  0.00  0.00    +0.037 A 
ATOM     11  C   UNL     1      -2.315   6.131  -5.693  0.00  0.00    +0.003 A 
ATOM     12  C   UNL     1      -0.972   5.882  -5.952  0.00  0.00    -0.004 A 
ENDBRANCH   2   4
BRANCH   1  13
ATOM     13  C   UNL     1       3.372   5.705  -6.619  0.00  0.00    +0.115 C 
BRANCH  13  15
ATOM     14  C   UNL     1       4.249   5.129  -8.818  0.00  0.00    +0.241 C 
ATOM     15  N   UNL     1       3.509   6.072  -8.032  0.00  0.00    -0.205 NA
ATOM     16  O   UNL     1       3.724   3.993  -8.876  0.00  0.00    -0.273 OA
BRANCH  14  18
ATOM     17  C   UNL     1       6.070   5.884  -9.653  0.00  0.00    +0.010 C 
ATOM     18  C   UNL     1       5.240   5.494  -9.850  0.00  0.00    +0.087 C 
ENDBRANCH  14  18
ENDBRANCH  13  15
ENDBRANCH   1  13
TORSDOF 4
ENDMDL
MODEL 7
REMARK VINA RESULT:      -6.5      2.854      6.812
REMARK  Name = 
REMARK  4 active torsions:
REMARK  status: ('A' for Active; 'I' for Inactive)
REMARK    1  A    between atoms: C_2  and  C_3
REMARK    2  A    between atoms: N_5  and  C_6
REMARK    3  A    between atoms: C_6  and  C_7
REMARK    4  A    between atoms: C_9  and  C_10
REMARK                            x       y       z     vdW  Elec       q    Type
REMARK                         _______ _______ _______ _____ _____    ______ ____
ROOT
ATOM      1  C   UNL     1       3.432   6.042  -9.128  0.00  0.00    +0.026 C 
ATOM      2  C   UNL     1       1.784   6.569  -8.869  0.00  0.00    +0.024 C 
ATOM      3  C   UNL     1       2.104   4.943  -9.429  0.00  0.00    +0.006 C 
ENDROOT
BRANCH   2   4
ATOM      4  C   UNL     1       1.742   6.202  -7.259  0.00  0.00    -0.023 A 
ATOM      5  C   UNL     1       0.412   6.048  -6.872  0.00  0.00    +0.012 A 
ATOM      6  C   UNL     1      -0.737   5.426  -7.554  0.00  0.00    +0.076 C 
ATOM      7  C   UNL     1      -1.787   5.278  -6.470  0.00  0.00    +0.210 C 
ATOM      8  O   UNL     1      -1.251   5.933  -5.345  0.00  0.00    -0.475 OA
ATOM      9  C   UNL     1       0.074   6.270  -5.548  0.00  0.00    +0.134 A 
ATOM     10  C   UNL     1       1.010   6.851  -4.699  0.00  0.00    +0.037 A 
ATOM     11  C   UNL     1       2.334   6.634  -5.050  0.00  0.00    +0.003 A 
ATOM     12  C   UNL     1       2.579   6.774  -6.411  0.00  0.00    -0.004 A 
ENDBRANCH   2   4
BRANCH   1  13
ATOM     13  C   UNL     1       3.463   6.538 -10.726  0.00  0.00    +0.115 C 
BRANCH  13  15
ATOM     14  C   UNL     1       5.855   6.090 -10.627  0.00  0.00    +0.241 C 
ATOM     15  N   UNL     1       4.823   7.082 -10.685  0.00  0.00    -0.205 NA
ATOM     16  O   UNL     1       5.889   5.333 -11.625  0.00  0.00    -0.273 OA
BRANCH  14  18
ATOM     17  C   UNL     1       7.708   5.505  -9.725  0.00  0.00    +0.010 C 
ATOM     18  C   UNL     1       7.062   6.184  -9.781  0.00  0.00    +0.087 C 
ENDBRANCH  14  18
ENDBRANCH  13  15
ENDBRANCH   1  13
TORSDOF 4
ENDMDL
MODEL 8
REMARK VINA RESULT:      -6.4      2.233      6.871
REMARK  Name = 
REMARK  4 active torsions:
REMARK  status: ('A' for Active; 'I' for Inactive)
REMARK    1  A    between atoms: C_2  and  C_3
REMARK    2  A    between atoms: N_5  and  C_6
REMARK    3  A    between atoms: C_6  and  C_7
REMARK    4  A    between atoms: C_9  and  C_10
REMARK                            x       y       z     vdW  Elec       q    Type
REMARK                         _______ _______ _______ _____ _____    ______ ____
ROOT
ATOM      1  C   UNL     1       3.953   5.592  -8.296  0.00  0.00    +0.026 C 
ATOM      2  C   UNL     1       2.610   6.094  -7.294  0.00  0.00    +0.024 C 
ATOM      3  C   UNL     1       2.531   4.582  -8.168  0.00  0.00    +0.006 C 
ENDROOT
BRANCH   2   4
ATOM      4  C   UNL     1       3.204   5.460  -5.888  0.00  0.00    -0.023 A 
ATOM      5  C   UNL     1       2.218   5.551  -4.907  0.00  0.00    +0.012 A 
ATOM      6  C   UNL     1       0.759   5.348  -4.967  0.00  0.00    +0.076 C 
ATOM      7  C   UNL     1       0.330   5.253  -3.516  0.00  0.00    +0.210 C 
ATOM      8  O   UNL     1       1.485   5.549  -2.768  0.00  0.00    -0.475 OA
ATOM      9  C   UNL     1       2.604   5.601  -3.578  0.00  0.00    +0.134 A 
ATOM     10  C   UNL     1       3.948   5.784  -3.271  0.00  0.00    +0.037 A 
ATOM     11  C   UNL     1       4.837   5.334  -4.235  0.00  0.00    +0.003 A 
ATOM     12  C   UNL     1       4.461   5.658  -5.533  0.00  0.00    -0.004 A 
ENDBRANCH   2   4
BRANCH   1  13
ATOM     13  C   UNL     1       3.365   6.352  -9.666  0.00  0.00    +0.115 C 
BRANCH  13  15
ATOM     14  C   UNL     1       5.552   5.878 -10.627  0.00  0.00    +0.241 C 
ATOM     15  N   UNL     1       4.660   6.873 -10.112  0.00  0.00    -0.205 NA
ATOM     16  O   UNL     1       5.124   5.290 -11.647  0.00  0.00    -0.273 OA
BRANCH  14  18
ATOM     17  C   UNL     1       7.361   5.797  -9.484  0.00  0.00    +0.010 C 
ATOM     18  C   UNL     1       7.002   5.828 -10.350  0.00  0.00    +0.087 C 
ENDBRANCH  14  18
ENDBRANCH  13  15
ENDBRANCH   1  13
TORSDOF 4
ENDMDL
MODEL 9
REMARK VINA RESULT:      -6.3      4.487      8.648
REMARK  Name = 
REMARK  4 active torsions:
REMARK  status: ('A' for Active; 'I' for Inactive)
REMARK    1  A    between atoms: C_2  and  C_3
REMARK    2  A    between atoms: N_5  and  C_6
REMARK    3  A    between atoms: C_6  and  C_7
REMARK    4  A    between atoms: C_9  and  C_10
REMARK                            x       y       z     vdW  Elec       q    Type
REMARK                         _______ _______ _______ _____ _____    ______ ____
ROOT
ATOM      1  C   UNL     1       1.524   5.756  -5.773  0.00  0.00    +0.026 C 
ATOM      2  C   UNL     1       0.126   6.647  -5.211  0.00  0.00    +0.024 C 
ATOM      3  C   UNL     1      -0.076   5.316  -6.328  0.00  0.00    +0.006 C 
ENDROOT
BRANCH   2   4
ATOM      4  C   UNL     1      -0.093   5.762  -3.833  0.00  0.00    -0.023 A 
ATOM      5  C   UNL     1      -1.340   6.076  -3.296  0.00  0.00    +0.012 A 
ATOM      6  C   UNL     1      -2.643   6.330  -3.937  0.00  0.00    +0.076 C 
ATOM      7  C   UNL     1      -3.644   6.264  -2.799  0.00  0.00    +0.210 C 
ATOM      8  O   UNL     1      -2.868   6.140  -1.631  0.00  0.00    -0.475 OA
ATOM      9  C   UNL     1      -1.541   5.909  -1.936  0.00  0.00    +0.134 A 
ATOM     10  C   UNL     1      -0.445   5.652  -1.117  0.00  0.00    +0.037 A 
ATOM     11  C   UNL     1       0.621   5.025  -1.744  0.00  0.00    +0.003 A 
ATOM     12  C   UNL     1       0.910   5.542  -3.001  0.00  0.00    -0.004 A 
ENDBRANCH   2   4
BRANCH   1  13
ATOM     13  C   UNL     1       1.773   6.754  -7.092  0.00  0.00    +0.115 C 
BRANCH  13  15
ATOM     14  C   UNL     1       3.980   6.521  -6.088  0.00  0.00    +0.241 C 
ATOM     15  N   UNL     1       2.963   7.417  -6.552  0.00  0.00    -0.205 NA
ATOM     16  O   UNL     1       4.456   5.785  -6.983  0.00  0.00    -0.273 OA
BRANCH  14  18
ATOM     17  C   UNL     1       4.756   7.507  -4.352  0.00  0.00    +0.010 C 
ATOM     18  C   UNL     1       4.765   6.712  -4.851  0.00  0.00    +0.087 C 
ENDBRANCH  14  18
ENDBRANCH  13  15
ENDBRANCH   1  13
TORSDOF 4
ENDMDL
