MODEL 1
REMARK VINA RESULT:      -9.3      0.000      0.000
REMARK  Name = 
REMARK  4 active torsions:
REMARK  status: ('A' for Active; 'I' for Inactive)
REMARK    1  A    between atoms: C_2  and  C_4
REMARK    2  A    between atoms: C_7  and  N_8
REMARK    3  A    between atoms: C_10  and  C_11
REMARK    4  A    between atoms: C_19  and  C_20
REMARK                            x       y       z     vdW  Elec       q    Type
REMARK                         _______ _______ _______ _____ _____    ______ ____
ROOT
ATOM      1  N   UNL     1       1.171   5.962  -7.953  0.00  0.00    -0.211 N 
ATOM      2  C   UNL     1       0.064   5.587  -8.639  0.00  0.00    +0.168 A 
ATOM      3  N   UNL     1      -0.867   5.388  -7.675  0.00  0.00    -0.206 NA
ATOM      4  C   UNL     1      -0.364   5.772  -6.485  0.00  0.00    +0.187 A 
ATOM      5  N   UNL     1       0.781   6.437  -6.773  0.00  0.00    -0.144 NA
ENDROOT
BRANCH   2   6
ATOM      6  C   UNL     1      -0.161   5.754 -10.081  0.00  0.00    +0.075 A 
ATOM      7  C   UNL     1       0.212   4.713 -10.920  0.00  0.00    +0.199 A 
ATOM      8  O   UNL     1       0.720   3.531 -10.371  0.00  0.00    -0.286 OA
ATOM      9  C   UNL     1       0.615   5.001 -12.217  0.00  0.00    +0.042 A 
ATOM     10  C   UNL     1       0.689   6.303 -12.694  0.00  0.00    +0.003 A 
ATOM     11  C   UNL     1       0.017   7.261 -11.959  0.00  0.00    +0.000 A 
ATOM     12  C   UNL     1      -0.085   7.036 -10.592  0.00  0.00    +0.006 A 
ENDBRANCH   2   6
BRANCH   4  13
ATOM     13  C   UNL     1      -1.084   6.038  -5.232  0.00  0.00    +0.076 A 
ATOM     14  C   UNL     1      -0.424   5.624  -4.081  0.00  0.00    +0.199 A 
ATOM     15  O   UNL     1       0.779   4.917  -4.142  0.00  0.00    -0.286 OA
ATOM     16  C   UNL     1      -0.962   5.949  -2.856  0.00  0.00    +0.042 A 
ATOM     17  C   UNL     1      -1.832   7.022  -2.794  0.00  0.00    +0.003 A 
ATOM     18  C   UNL     1      -2.088   7.787  -3.921  0.00  0.00    +0.000 A 
ATOM     19  C   UNL     1      -1.724   7.269  -5.156  0.00  0.00    +0.006 A 
ENDBRANCH   4  13
BRANCH   1  23
ATOM     20  C   UNL     1       4.605   5.619 -10.256  0.00  0.00    +0.080 A 
ATOM     21  C   UNL     1       4.122   6.876  -9.914  0.00  0.00    +0.008 A 
ATOM     22  C   UNL     1       3.131   7.047  -8.956  0.00  0.00    +0.019 A 
ATOM     23  C   UNL     1       2.488   5.911  -8.479  0.00  0.00    +0.085 A 
ATOM     24  C   UNL     1       3.290   4.778  -8.396  0.00  0.00    +0.019 A 
ATOM     25  C   UNL     1       4.223   4.587  -9.407  0.00  0.00    +0.008 A 
BRANCH  20  27
ATOM     26  O   UNL     1       4.376   5.903 -12.538  0.00  0.00    -0.241 OA
ATOM     27  C   UNL     1       5.065   5.352 -11.626  0.00  0.00    +0.388 C 
ATOM     28  O   UNL     1       6.439   5.336 -11.884  0.00  0.00    -0.241 OA
ENDBRANCH  20  27
ENDBRANCH   1  23
TORSDOF 4
ENDMDL
MODEL 2
REMARK VINA RESULT:      -9.0      1.325      3.463
REMARK  Name = 
REMARK  4 active torsions:
REMARK  status: ('A' for Active; 'I' for Inactive)
REMARK    1  A    between atoms: C_2  and  C_4
REMARK    2  A    between atoms: C_7  and  N_8
REMARK    3  A    between atoms: C_10  and  C_11
REMARK    4  A    between atoms: C_19  and  C_20
REMARK                            x       y       z     vdW  Elec       q    Type
REMARK                         _______ _______ _______ _____ _____    ______ ____
ROOT
ATOM      1  N   UNL     1       0.062   5.718  -8.335  0.00  0.00    -0.211 N 
ATOM      2  C   UNL     1       1.165   6.065  -7.628  0.00  0.00    +0.168 A 
ATOM      3  N   UNL     1       0.686   6.357  -6.395  0.00  0.00    -0.206 NA
ATOM      4  C   UNL     1      -0.626   6.053  -6.345  0.00  0.00    +0.187 A 
ATOM      5  N   UNL     1      -0.878   5.342  -7.470  0.00  0.00    -0.144 NA
ENDROOT
BRANCH   2   6
ATOM      6  C   UNL     1       2.558   5.794  -8.007  0.00  0.00    +0.075 A 
ATOM      7  C   UNL     1       3.271   6.813  -8.625  0.00  0.00    +0.199 A 
ATOM      8  O   UNL     1       2.673   8.065  -8.804  0.00  0.00    -0.286 OA
ATOM      9  C   UNL     1       4.274   6.485  -9.527  0.00  0.00    +0.042 A 
ATOM     10  C   UNL     1       4.567   5.169  -9.858  0.00  0.00    +0.003 A 
ATOM     11  C   UNL     1       4.073   4.201  -9.004  0.00  0.00    +0.000 A 
ATOM     12  C   UNL     1       2.882   4.496  -8.352  0.00  0.00    +0.006 A 
ENDBRANCH   2   6
BRANCH   4  13
ATOM     13  C   UNL     1      -1.483   5.899  -5.161  0.00  0.00    +0.076 A 
ATOM     14  C   UNL     1      -0.833   5.426  -4.028  0.00  0.00    +0.199 A 
ATOM     15  O   UNL     1       0.507   5.033  -4.064  0.00  0.00    -0.286 OA
ATOM     16  C   UNL     1      -1.526   5.373  -2.839  0.00  0.00    +0.042 A 
ATOM     17  C   UNL     1      -2.633   6.190  -2.699  0.00  0.00    +0.003 A 
ATOM     18  C   UNL     1      -2.981   7.085  -3.699  0.00  0.00    +0.000 A 
ATOM     19  C   UNL     1      -2.408   6.915  -4.951  0.00  0.00    +0.006 A 
ENDBRANCH   4  13
BRANCH   1  23
ATOM     20  C   UNL     1       0.767   5.666 -12.423  0.00  0.00    +0.080 A 
ATOM     21  C   UNL     1       0.390   4.499 -11.769  0.00  0.00    +0.008 A 
ATOM     22  C   UNL     1      -0.089   4.509 -10.465  0.00  0.00    +0.019 A 
ATOM     23  C   UNL     1      -0.002   5.699  -9.753  0.00  0.00    +0.085 A 
ATOM     24  C   UNL     1      -0.160   6.850 -10.516  0.00  0.00    +0.019 A 
ATOM     25  C   UNL     1       0.395   6.846 -11.790  0.00  0.00    +0.008 A 
BRANCH  20  27
ATOM     26  O   UNL     1       2.979   6.027 -12.986  0.00  0.00    -0.241 OA
ATOM     27  C   UNL     1       1.849   5.640 -13.416  0.00  0.00    +0.388 C 
ATOM     28  O   UNL     1       1.919   4.567 -14.310  0.00  0.00    -0.241 OA
ENDBRANCH  20  27
ENDBRANCH   1  23
TORSDOF 4
ENDMDL
MODEL 3
REMARK VINA RESULT:      -9.0      2.404      7.665
REMARK  Name = 
REMARK  4 active torsions:
REMARK  status: ('A' for Active; 'I' for Inactive)
REMARK    1  A    between atoms: C_2  and  C_4
REMARK    2  A    between atoms: C_7  and  N_8
REMARK    3  A    between atoms: C_10  and  C_11
REMARK    4  A    between atoms: C_19  and  C_20
REMARK                            x       y       z     vdW  Elec       q    Type
REMARK                         _______ _______ _______ _____ _____    ______ ____
ROOT
ATOM      1  N   UNL     1       0.660   5.815  -7.387  0.00  0.00    -0.211 N 
ATOM      2  C   UNL     1       1.858   5.270  -7.062  0.00  0.00    +0.168 A 
ATOM      3  N   UNL     1       2.317   4.768  -8.234  0.00  0.00    -0.206 NA
ATOM      4  C   UNL     1       1.487   5.133  -9.230  0.00  0.00    +0.187 A 
ATOM      5  N   UNL     1       0.665   6.068  -8.694  0.00  0.00    -0.144 NA
ENDROOT
BRANCH   2   6
ATOM      6  C   UNL     1       2.624   5.527  -5.836  0.00  0.00    +0.075 A 
ATOM      7  C   UNL     1       3.283   6.745  -5.728  0.00  0.00    +0.199 A 
ATOM      8  O   UNL     1       3.146   7.698  -6.743  0.00  0.00    -0.286 OA
ATOM      9  C   UNL     1       4.453   6.817  -4.984  0.00  0.00    +0.042 A 
ATOM     10  C   UNL     1       5.004   5.701  -4.368  0.00  0.00    +0.003 A 
ATOM     11  C   UNL     1       4.171   4.607  -4.228  0.00  0.00    +0.000 A 
ATOM     12  C   UNL     1       3.195   4.441  -5.203  0.00  0.00    +0.006 A 
ENDBRANCH   2   6
BRANCH   4  13
ATOM     13  C   UNL     1       1.729   5.101 -10.679  0.00  0.00    +0.076 A 
ATOM     14  C   UNL     1       0.648   4.675 -11.442  0.00  0.00    +0.199 A 
ATOM     15  O   UNL     1      -0.530   4.217 -10.849  0.00  0.00    -0.286 OA
ATOM     16  C   UNL     1       0.741   4.736 -12.814  0.00  0.00    +0.042 A 
ATOM     17  C   UNL     1       1.659   5.612 -13.363  0.00  0.00    +0.003 A 
ATOM     18  C   UNL     1       2.405   6.453 -12.551  0.00  0.00    +0.000 A 
ATOM     19  C   UNL     1       2.452   6.171 -11.193  0.00  0.00    +0.006 A 
ENDBRANCH   4  13
BRANCH   1  23
ATOM     20  C   UNL     1      -1.907   6.081  -4.139  0.00  0.00    +0.080 A 
ATOM     21  C   UNL     1      -0.935   7.054  -4.336  0.00  0.00    +0.008 A 
ATOM     22  C   UNL     1      -0.218   7.147  -5.522  0.00  0.00    +0.019 A 
ATOM     23  C   UNL     1      -0.358   6.118  -6.446  0.00  0.00    +0.085 A 
ATOM     24  C   UNL     1      -1.622   5.540  -6.489  0.00  0.00    +0.019 A 
ATOM     25  C   UNL     1      -2.289   5.386  -5.281  0.00  0.00    +0.008 A 
BRANCH  20  27
ATOM     26  O   UNL     1      -3.096   4.697  -2.721  0.00  0.00    -0.241 OA
ATOM     27  C   UNL     1      -2.145   5.534  -2.796  0.00  0.00    +0.388 C 
ATOM     28  O   UNL     1      -1.045   5.216  -1.993  0.00  0.00    -0.241 OA
ENDBRANCH  20  27
ENDBRANCH   1  23
TORSDOF 4
ENDMDL
MODEL 4
REMARK VINA RESULT:      -9.0      2.272      3.188
REMARK  Name = 
REMARK  4 active torsions:
REMARK  status: ('A' for Active; 'I' for Inactive)
REMARK    1  A    between atoms: C_2  and  C_4
REMARK    2  A    between atoms: C_7  and  N_8
REMARK    3  A    between atoms: C_10  and  C_11
REMARK    4  A    between atoms: C_19  and  C_20
REMARK                            x       y       z     vdW  Elec       q    Type
REMARK                         _______ _______ _______ _____ _____    ______ ____
ROOT
ATOM      1  N   UNL     1       3.638   6.347  -9.618  0.00  0.00    -0.211 N 
ATOM      2  C   UNL     1       2.671   5.892 -10.452  0.00  0.00    +0.168 A 
ATOM      3  N   UNL     1       1.709   5.432  -9.618  0.00  0.00    -0.206 NA
ATOM      4  C   UNL     1       2.038   5.738  -8.347  0.00  0.00    +0.187 A 
ATOM      5  N   UNL     1       3.076   6.605  -8.440  0.00  0.00    -0.144 NA
ENDROOT
BRANCH   2   6
ATOM      6  C   UNL     1       2.544   6.202 -11.882  0.00  0.00    +0.075 A 
ATOM      7  C   UNL     1       1.384   6.837 -12.307  0.00  0.00    +0.199 A 
ATOM      8  O   UNL     1       0.419   7.215 -11.367  0.00  0.00    -0.286 OA
ATOM      9  C   UNL     1       0.917   6.604 -13.593  0.00  0.00    +0.042 A 
ATOM     10  C   UNL     1       1.556   5.730 -14.462  0.00  0.00    +0.003 A 
ATOM     11  C   UNL     1       2.851   5.377 -14.130  0.00  0.00    +0.000 A 
ATOM     12  C   UNL     1       3.159   5.346 -12.776  0.00  0.00    +0.006 A 
ENDBRANCH   2   6
BRANCH   4  13
ATOM     13  C   UNL     1       1.181   5.730  -7.154  0.00  0.00    +0.076 A 
ATOM     14  C   UNL     1       1.380   4.651  -6.300  0.00  0.00    +0.199 A 
ATOM     15  O   UNL     1       2.255   3.613  -6.625  0.00  0.00    -0.286 OA
ATOM     16  C   UNL     1       0.714   4.629  -5.095  0.00  0.00    +0.042 A 
ATOM     17  C   UNL     1       0.264   5.831  -4.581  0.00  0.00    +0.003 A 
ATOM     18  C   UNL     1       0.547   7.025  -5.228  0.00  0.00    +0.000 A 
ATOM     19  C   UNL     1       0.990   6.963  -6.541  0.00  0.00    +0.006 A 
ENDBRANCH   4  13
BRANCH   1  23
ATOM     20  C   UNL     1       7.375   6.428 -11.418  0.00  0.00    +0.080 A 
ATOM     21  C   UNL     1       6.496   7.489 -11.597  0.00  0.00    +0.008 A 
ATOM     22  C   UNL     1       5.344   7.626 -10.833  0.00  0.00    +0.019 A 
ATOM     23  C   UNL     1       4.985   6.568 -10.007  0.00  0.00    +0.085 A 
ATOM     24  C   UNL     1       6.052   5.864  -9.460  0.00  0.00    +0.019 A 
ATOM     25  C   UNL     1       7.165   5.672 -10.270  0.00  0.00    +0.008 A 
BRANCH  20  27
ATOM     26  O   UNL     1       9.391   5.911 -12.423  0.00  0.00    -0.241 OA
ATOM     27  C   UNL     1       8.129   5.892 -12.559  0.00  0.00    +0.388 C 
ATOM     28  O   UNL     1       7.646   4.752 -13.210  0.00  0.00    -0.241 OA
ENDBRANCH  20  27
ENDBRANCH   1  23
TORSDOF 4
ENDMDL
MODEL 5
REMARK VINA RESULT:      -8.9      2.564      7.912
REMARK  Name = 
REMARK  4 active torsions:
REMARK  status: ('A' for Active; 'I' for Inactive)
REMARK    1  A    between atoms: C_2  and  C_4
REMARK    2  A    between atoms: C_7  and  N_8
REMARK    3  A    between atoms: C_10  and  C_11
REMARK    4  A    between atoms: C_19  and  C_20
REMARK                            x       y       z     vdW  Elec       q    Type
REMARK                         _______ _______ _______ _____ _____    ______ ____
ROOT
ATOM      1  N   UNL     1       3.174   6.160  -7.963  0.00  0.00    -0.211 N 
ATOM      2  C   UNL     1       4.155   5.544  -7.259  0.00  0.00    +0.168 A 
ATOM      3  N   UNL     1       5.073   5.212  -8.199  0.00  0.00    -0.206 NA
ATOM      4  C   UNL     1       4.709   5.742  -9.383  0.00  0.00    +0.187 A 
ATOM      5  N   UNL     1       3.702   6.604  -9.101  0.00  0.00    -0.144 NA
ENDROOT
BRANCH   2   6
ATOM      6  C   UNL     1       4.342   5.597  -5.804  0.00  0.00    +0.075 A 
ATOM      7  C   UNL     1       3.544   4.775  -5.018  0.00  0.00    +0.199 A 
ATOM      8  O   UNL     1       2.651   3.889  -5.629  0.00  0.00    -0.286 OA
ATOM      9  C   UNL     1       3.209   5.185  -3.735  0.00  0.00    +0.042 A 
ATOM     10  C   UNL     1       3.618   6.407  -3.221  0.00  0.00    +0.003 A 
ATOM     11  C   UNL     1       4.650   7.036  -3.890  0.00  0.00    +0.000 A 
ATOM     12  C   UNL     1       4.738   6.802  -5.257  0.00  0.00    +0.006 A 
ENDBRANCH   2   6
BRANCH   4  13
ATOM     13  C   UNL     1       5.523   5.920 -10.593  0.00  0.00    +0.076 A 
ATOM     14  C   UNL     1       4.829   5.782 -11.789  0.00  0.00    +0.199 A 
ATOM     15  O   UNL     1       3.486   5.397 -11.815  0.00  0.00    -0.286 OA
ATOM     16  C   UNL     1       5.481   6.060 -12.970  0.00  0.00    +0.042 A 
ATOM     17  C   UNL     1       6.592   6.881 -12.918  0.00  0.00    +0.003 A 
ATOM     18  C   UNL     1       6.985   7.462 -11.722  0.00  0.00    +0.000 A 
ATOM     19  C   UNL     1       6.453   6.953 -10.546  0.00  0.00    +0.006 A 
ENDBRANCH   4  13
BRANCH   1  23
ATOM     20  C   UNL     1      -0.452   6.109  -5.948  0.00  0.00    +0.080 A 
ATOM     21  C   UNL     1       0.420   7.178  -5.780  0.00  0.00    +0.008 A 
ATOM     22  C   UNL     1       1.522   7.363  -6.604  0.00  0.00    +0.019 A 
ATOM     23  C   UNL     1       1.848   6.343  -7.489  0.00  0.00    +0.085 A 
ATOM     24  C   UNL     1       0.762   5.641  -7.999  0.00  0.00    +0.019 A 
ATOM     25  C   UNL     1      -0.298   5.399  -7.133  0.00  0.00    +0.008 A 
BRANCH  20  27
ATOM     26  O   UNL     1      -0.413   5.422  -3.742  0.00  0.00    -0.241 OA
ATOM     27  C   UNL     1      -1.129   5.518  -4.786  0.00  0.00    +0.388 C 
ATOM     28  O   UNL     1      -2.460   5.865  -4.531  0.00  0.00    -0.241 OA
ENDBRANCH  20  27
ENDBRANCH   1  23
TORSDOF 4
ENDMDL
MODEL 6
REMARK VINA RESULT:      -8.8      2.542      3.301
REMARK  Name = 
REMARK  4 active torsions:
REMARK  status: ('A' for Active; 'I' for Inactive)
REMARK    1  A    between atoms: C_2  and  C_4
REMARK    2  A    between atoms: C_7  and  N_8
REMARK    3  A    between atoms: C_10  and  C_11
REMARK    4  A    between atoms: C_19  and  C_20
REMARK                            x       y       z     vdW  Elec       q    Type
REMARK                         _______ _______ _______ _____ _____    ______ ____
ROOT
ATOM      1  N   UNL     1       3.909   5.762  -8.090  0.00  0.00    -0.211 N 
ATOM      2  C   UNL     1       2.715   5.201  -8.404  0.00  0.00    +0.168 A 
ATOM      3  N   UNL     1       2.263   4.712  -7.224  0.00  0.00    -0.206 NA
ATOM      4  C   UNL     1       3.092   5.099  -6.235  0.00  0.00    +0.187 A 
ATOM      5  N   UNL     1       3.905   6.033  -6.787  0.00  0.00    -0.144 NA
ENDROOT
BRANCH   2   6
ATOM      6  C   UNL     1       1.944   5.434  -9.632  0.00  0.00    +0.075 A 
ATOM      7  C   UNL     1       1.312   6.662  -9.776  0.00  0.00    +0.199 A 
ATOM      8  O   UNL     1       1.481   7.646  -8.796  0.00  0.00    -0.286 OA
ATOM      9  C   UNL     1       0.137   6.736 -10.512  0.00  0.00    +0.042 A 
ATOM     10  C   UNL     1      -0.446   5.613 -11.084  0.00  0.00    +0.003 A 
ATOM     11  C   UNL     1       0.360   4.496 -11.193  0.00  0.00    +0.000 A 
ATOM     12  C   UNL     1       1.341   4.340 -10.222  0.00  0.00    +0.006 A 
ENDBRANCH   2   6
BRANCH   4  13
ATOM     13  C   UNL     1       2.854   5.085  -4.785  0.00  0.00    +0.076 A 
ATOM     14  C   UNL     1       3.981   4.833  -4.011  0.00  0.00    +0.199 A 
ATOM     15  O   UNL     1       5.211   4.516  -4.592  0.00  0.00    -0.286 OA
ATOM     16  C   UNL     1       3.879   4.929  -2.642  0.00  0.00    +0.042 A 
ATOM     17  C   UNL     1       2.851   5.693  -2.121  0.00  0.00    +0.003 A 
ATOM     18  C   UNL     1       2.002   6.399  -2.959  0.00  0.00    +0.000 A 
ATOM     19  C   UNL     1       1.995   6.067  -4.307  0.00  0.00    +0.006 A 
ENDBRANCH   4  13
BRANCH   1  23
ATOM     20  C   UNL     1       6.518   5.948 -11.310  0.00  0.00    +0.080 A 
ATOM     21  C   UNL     1       5.473   6.859 -11.211  0.00  0.00    +0.008 A 
ATOM     22  C   UNL     1       4.726   6.996 -10.047  0.00  0.00    +0.019 A 
ATOM     23  C   UNL     1       4.922   6.061  -9.038  0.00  0.00    +0.085 A 
ATOM     24  C   UNL     1       6.223   5.584  -8.927  0.00  0.00    +0.019 A 
ATOM     25  C   UNL     1       6.925   5.381 -10.109  0.00  0.00    +0.008 A 
BRANCH  20  27
ATOM     26  O   UNL     1       7.837   4.549 -12.591  0.00  0.00    -0.241 OA
ATOM     27  C   UNL     1       6.823   5.311 -12.599  0.00  0.00    +0.388 C 
ATOM     28  O   UNL     1       5.766   4.842 -13.386  0.00  0.00    -0.241 OA
ENDBRANCH  20  27
ENDBRANCH   1  23
TORSDOF 4
ENDMDL
MODEL 7
REMARK VINA RESULT:      -8.7      3.075      7.852
REMARK  Name = 
REMARK  4 active torsions:
REMARK  status: ('A' for Active; 'I' for Inactive)
REMARK    1  A    between atoms: C_2  and  C_4
REMARK    2  A    between atoms: C_7  and  N_8
REMARK    3  A    between atoms: C_10  and  C_11
REMARK    4  A    between atoms: C_19  and  C_20
REMARK                            x       y       z     vdW  Elec       q    Type
REMARK                         _______ _______ _______ _____ _____    ______ ____
ROOT
ATOM      1  N   UNL     1       4.519   5.756  -6.929  0.00  0.00    -0.211 N 
ATOM      2  C   UNL     1       3.407   5.952  -7.679  0.00  0.00    +0.168 A 
ATOM      3  N   UNL     1       3.877   6.028  -8.947  0.00  0.00    -0.206 NA
ATOM      4  C   UNL     1       5.194   5.743  -8.952  0.00  0.00    +0.187 A 
ATOM      5  N   UNL     1       5.462   5.248  -7.719  0.00  0.00    -0.144 NA
ENDROOT
BRANCH   2   6
ATOM      6  C   UNL     1       2.020   5.729  -7.249  0.00  0.00    +0.075 A 
ATOM      7  C   UNL     1       1.253   6.842  -6.933  0.00  0.00    +0.199 A 
ATOM      8  O   UNL     1       1.792   8.122  -7.095  0.00  0.00    -0.286 OA
ATOM      9  C   UNL     1       0.249   6.723  -5.982  0.00  0.00    +0.042 A 
ATOM     10  C   UNL     1       0.007   5.533  -5.310  0.00  0.00    +0.003 A 
ATOM     11  C   UNL     1       0.558   4.395  -5.868  0.00  0.00    +0.000 A 
ATOM     12  C   UNL     1       1.746   4.558  -6.568  0.00  0.00    +0.006 A 
ENDBRANCH   2   6
BRANCH   4  13
ATOM     13  C   UNL     1       6.050   5.394 -10.094  0.00  0.00    +0.076 A 
ATOM     14  C   UNL     1       5.525   5.724 -11.338  0.00  0.00    +0.199 A 
ATOM     15  O   UNL     1       4.237   6.248 -11.473  0.00  0.00    -0.286 OA
ATOM     16  C   UNL     1       6.311   5.554 -12.455  0.00  0.00    +0.042 A 
ATOM     17  C   UNL     1       7.683   5.517 -12.282  0.00  0.00    +0.003 A 
ATOM     18  C   UNL     1       8.241   5.722 -11.030  0.00  0.00    +0.000 A 
ATOM     19  C   UNL     1       7.408   5.635  -9.924  0.00  0.00    +0.006 A 
ENDBRANCH   4  13
BRANCH   1  23
ATOM     20  C   UNL     1       3.839   6.297  -2.872  0.00  0.00    +0.080 A 
ATOM     21  C   UNL     1       4.398   5.110  -3.329  0.00  0.00    +0.008 A 
ATOM     22  C   UNL     1       4.866   4.971  -4.630  0.00  0.00    +0.019 A 
ATOM     23  C   UNL     1       4.588   5.991  -5.531  0.00  0.00    +0.085 A 
ATOM     24  C   UNL     1       4.558   7.267  -4.979  0.00  0.00    +0.019 A 
ATOM     25  C   UNL     1       4.014   7.395  -3.707  0.00  0.00    +0.008 A 
BRANCH  20  27
ATOM     26  O   UNL     1       1.595   6.307  -2.319  0.00  0.00    -0.241 OA
ATOM     27  C   UNL     1       2.777   6.271  -1.857  0.00  0.00    +0.388 C 
ATOM     28  O   UNL     1       2.926   5.435  -0.746  0.00  0.00    -0.241 OA
ENDBRANCH  20  27
ENDBRANCH   1  23
TORSDOF 4
ENDMDL
MODEL 8
REMARK VINA RESULT:      -8.7      2.039      7.506
REMARK  Name = 
REMARK  4 active torsions:
REMARK  status: ('A' for Active; 'I' for Inactive)
REMARK    1  A    between atoms: C_2  and  C_4
REMARK    2  A    between atoms: C_7  and  N_8
REMARK    3  A    between atoms: C_10  and  C_11
REMARK    4  A    between atoms: C_19  and  C_20
REMARK                            x       y       z     vdW  Elec       q    Type
REMARK                         _______ _______ _______ _____ _____    ______ ____
ROOT
ATOM      1  N   UNL     1       0.712   5.869  -8.153  0.00  0.00    -0.211 N 
ATOM      2  C   UNL     1       1.843   5.121  -8.158  0.00  0.00    +0.168 A 
ATOM      3  N   UNL     1       1.987   4.754  -9.454  0.00  0.00    -0.206 NA
ATOM      4  C   UNL     1       1.057   5.382 -10.200  0.00  0.00    +0.187 A 
ATOM      5  N   UNL     1       0.515   6.322  -9.389  0.00  0.00    -0.144 NA
ENDROOT
BRANCH   2   6
ATOM      6  C   UNL     1       2.856   5.075  -7.095  0.00  0.00    +0.075 A 
ATOM      7  C   UNL     1       2.598   4.275  -5.990  0.00  0.00    +0.199 A 
ATOM      8  O   UNL     1       1.433   3.500  -5.953  0.00  0.00    -0.286 OA
ATOM      9  C   UNL     1       3.125   4.635  -4.757  0.00  0.00    +0.042 A 
ATOM     10  C   UNL     1       3.878   5.789  -4.586  0.00  0.00    +0.003 A 
ATOM     11  C   UNL     1       4.374   6.370  -5.738  0.00  0.00    +0.000 A 
ATOM     12  C   UNL     1       3.616   6.210  -6.891  0.00  0.00    +0.006 A 
ENDBRANCH   2   6
BRANCH   4  13
ATOM     13  C   UNL     1       1.016   5.546 -11.660  0.00  0.00    +0.076 A 
ATOM     14  C   UNL     1       2.169   6.086 -12.219  0.00  0.00    +0.199 A 
ATOM     15  O   UNL     1       3.229   6.529 -11.424  0.00  0.00    -0.286 OA
ATOM     16  C   UNL     1       2.271   6.156 -13.590  0.00  0.00    +0.042 A 
ATOM     17  C   UNL     1       1.484   5.303 -14.342  0.00  0.00    +0.003 A 
ATOM     18  C   UNL     1       0.678   4.358 -13.724  0.00  0.00    +0.000 A 
ATOM     19  C   UNL     1       0.429   4.504 -12.367  0.00  0.00    +0.006 A 
ENDBRANCH   4  13
BRANCH   1  23
ATOM     20  C   UNL     1      -1.044   6.030  -4.398  0.00  0.00    +0.080 A 
ATOM     21  C   UNL     1      -0.078   6.964  -4.752  0.00  0.00    +0.008 A 
ATOM     22  C   UNL     1       0.362   7.106  -6.063  0.00  0.00    +0.019 A 
ATOM     23  C   UNL     1      -0.049   6.155  -6.990  0.00  0.00    +0.085 A 
ATOM     24  C   UNL     1      -1.325   5.646  -6.780  0.00  0.00    +0.019 A 
ATOM     25  C   UNL     1      -1.715   5.439  -5.462  0.00  0.00    +0.008 A 
BRANCH  20  27
ATOM     26  O   UNL     1      -0.355   6.039  -2.192  0.00  0.00    -0.241 OA
ATOM     27  C   UNL     1      -1.011   5.400  -3.071  0.00  0.00    +0.388 C 
ATOM     28  O   UNL     1      -2.174   4.797  -2.582  0.00  0.00    -0.241 OA
ENDBRANCH  20  27
ENDBRANCH   1  23
TORSDOF 4
ENDMDL
MODEL 9
REMARK VINA RESULT:      -8.7      1.480      3.719
REMARK  Name = 
REMARK  4 active torsions:
REMARK  status: ('A' for Active; 'I' for Inactive)
REMARK    1  A    between atoms: C_2  and  C_4
REMARK    2  A    between atoms: C_7  and  N_8
REMARK    3  A    between atoms: C_10  and  C_11
REMARK    4  A    between atoms: C_19  and  C_20
REMARK                            x       y       z     vdW  Elec       q    Type
REMARK                         _______ _______ _______ _____ _____    ______ ____
ROOT
ATOM      1  N   UNL     1       0.295   5.754  -9.231  0.00  0.00    -0.211 N 
ATOM      2  C   UNL     1       1.481   6.006  -8.625  0.00  0.00    +0.168 A 
ATOM      3  N   UNL     1       1.146   6.226  -7.331  0.00  0.00    -0.206 NA
ATOM      4  C   UNL     1      -0.166   5.971  -7.160  0.00  0.00    +0.187 A 
ATOM      5  N   UNL     1      -0.566   5.353  -8.298  0.00  0.00    -0.144 NA
ENDROOT
BRANCH   2   6
ATOM      6  C   UNL     1       2.812   5.709  -9.168  0.00  0.00    +0.075 A 
ATOM      7  C   UNL     1       3.396   4.496  -8.825  0.00  0.00    +0.199 A 
ATOM      8  O   UNL     1       2.682   3.582  -8.043  0.00  0.00    -0.286 OA
ATOM      9  C   UNL     1       4.779   4.408  -8.749  0.00  0.00    +0.042 A 
ATOM     10  C   UNL     1       5.601   5.504  -8.973  0.00  0.00    +0.003 A 
ATOM     11  C   UNL     1       5.018   6.583  -9.612  0.00  0.00    +0.000 A 
ATOM     12  C   UNL     1       3.660   6.777  -9.393  0.00  0.00    +0.006 A 
ENDBRANCH   2   6
BRANCH   4  13
ATOM     13  C   UNL     1      -0.901   5.765  -5.905  0.00  0.00    +0.076 A 
ATOM     14  C   UNL     1      -0.105   5.465  -4.805  0.00  0.00    +0.199 A 
ATOM     15  O   UNL     1       1.273   5.275  -4.930  0.00  0.00    -0.286 OA
ATOM     16  C   UNL     1      -0.695   5.384  -3.564  0.00  0.00    +0.042 A 
ATOM     17  C   UNL     1      -1.901   6.033  -3.375  0.00  0.00    +0.003 A 
ATOM     18  C   UNL     1      -2.453   6.803  -4.388  0.00  0.00    +0.000 A 
ATOM     19  C   UNL     1      -1.953   6.642  -5.673  0.00  0.00    +0.006 A 
ENDBRANCH   4  13
BRANCH   1  23
ATOM     20  C   UNL     1       0.566   6.077 -13.358  0.00  0.00    +0.080 A 
ATOM     21  C   UNL     1       0.345   4.836 -12.773  0.00  0.00    +0.008 A 
ATOM     22  C   UNL     1       0.007   4.706 -11.431  0.00  0.00    +0.019 A 
ATOM     23  C   UNL     1       0.083   5.840 -10.632  0.00  0.00    +0.085 A 
ATOM     24  C   UNL     1      -0.236   7.031 -11.274  0.00  0.00    +0.019 A 
ATOM     25  C   UNL     1       0.179   7.171 -12.592  0.00  0.00    +0.008 A 
BRANCH  20  27
ATOM     26  O   UNL     1       2.494   5.383 -14.426  0.00  0.00    -0.241 OA
ATOM     27  C   UNL     1       1.536   6.215 -14.453  0.00  0.00    +0.388 C 
ATOM     28  O   UNL     1       1.065   6.497 -15.739  0.00  0.00    -0.241 OA
ENDBRANCH  20  27
ENDBRANCH   1  23
TORSDOF 4
ENDMDL
