MODEL 1
REMARK VINA RESULT:      -6.8      0.000      0.000
REMARK  Name = 
REMARK  8 active torsions:
REMARK  status: ('A' for Active; 'I' for Inactive)
REMARK    1  A    between atoms: C_2  and  O_3
REMARK    2  A    between atoms: O_3  and  C_4
REMARK    3  A    between atoms: C_4  and  C_6
REMARK    4  A    between atoms: C_8  and  O_9
REMARK    5  A    between atoms: O_9  and  C_10
REMARK    6  A    between atoms: C_10  and  C_11
REMARK    7  A    between atoms: C_10  and  C_13
REMARK    8  A    between atoms: C_15  and  N_16
REMARK                            x       y       z     vdW  Elec       q    Type
REMARK                         _______ _______ _______ _____ _____    ______ ____
ROOT
ATOM      1  C   UNL     1       3.741   6.117  -6.880  0.00  0.00    +0.053 C 
ATOM      2  C   UNL     1       2.771   7.057  -7.403  0.00  0.00    +0.054 C 
ATOM      3  C   UNL     1       1.536   6.224  -8.104  0.00  0.00    +0.119 C 
ATOM      4  N   UNL     1       1.722   4.934  -7.190  0.00  0.00    -0.131 NA
ATOM      5  C   UNL     1       2.408   5.470  -9.380  0.00  0.00    +0.144 C 
ATOM      6  C   UNL     1       3.893   6.329  -9.168  0.00  0.00    +0.158 C 
ATOM      7  C   UNL     1       4.291   5.398  -7.864  0.00  0.00    +0.007 C 
ENDROOT
BRANCH   5   8
ATOM      8  N   UNL     1       1.889   6.519 -10.405  0.00  0.00    -0.203 NA
ATOM      9  C   UNL     1       0.780   6.141 -11.203  0.00  0.00    +0.242 C 
ATOM     10  O   UNL     1       0.884   5.000 -11.749  0.00  0.00    -0.273 OA
ATOM     11  C   UNL     1      -0.457   6.947 -11.345  0.00  0.00    +0.096 C 
ENDBRANCH   5   8
BRANCH   1  12
ATOM     12  C   UNL     1       3.966   5.935  -5.472  0.00  0.00    +0.337 C 
ATOM     13  O   UNL     1       4.280   4.771  -5.072  0.00  0.00    -0.245 OA
BRANCH  12  14
ATOM     14  O   UNL     1       3.134   6.647  -4.603  0.00  0.00    -0.446 OA
BRANCH  14  16
ATOM     15  C   UNL     1       4.990   7.931  -3.993  0.00  0.00    +0.051 C 
ATOM     16  C   UNL     1       3.738   7.442  -3.622  0.00  0.00    +0.209 C 
ENDBRANCH  14  16
ENDBRANCH  12  14
ENDBRANCH   1  12
BRANCH   6  17
ATOM     17  O   UNL     1       4.586   5.348 -10.120  0.00  0.00    -0.353 OA
BRANCH  17  18
ATOM     18  C   UNL     1       5.540   6.043 -10.777  0.00  0.00    +0.116 C 
BRANCH  18  19
ATOM     19  C   UNL     1       6.898   5.491 -10.867  0.00  0.00    +0.030 C 
ATOM     20  C   UNL     1       7.542   5.576  -9.492  0.00  0.00    +0.003 C 
ENDBRANCH  18  19
BRANCH  18  21
ATOM     21  C   UNL     1       5.386   7.515 -10.837  0.00  0.00    +0.030 C 
ATOM     22  C   UNL     1       6.476   8.250 -11.541  0.00  0.00    +0.003 C 
ENDBRANCH  18  21
ENDBRANCH  17  18
ENDBRANCH   6  17
TORSDOF 8
ENDMDL
MODEL 2
REMARK VINA RESULT:      -6.8      2.650      7.172
REMARK  Name = 
REMARK  8 active torsions:
REMARK  status: ('A' for Active; 'I' for Inactive)
REMARK    1  A    between atoms: C_2  and  O_3
REMARK    2  A    between atoms: O_3  and  C_4
REMARK    3  A    between atoms: C_4  and  C_6
REMARK    4  A    between atoms: C_8  and  O_9
REMARK    5  A    between atoms: O_9  and  C_10
REMARK    6  A    between atoms: C_10  and  C_11
REMARK    7  A    between atoms: C_10  and  C_13
REMARK    8  A    between atoms: C_15  and  N_16
REMARK                            x       y       z     vdW  Elec       q    Type
REMARK                         _______ _______ _______ _____ _____    ______ ____
ROOT
ATOM      1  C   UNL     1       0.959   6.030  -8.803  0.00  0.00    +0.053 C 
ATOM      2  C   UNL     1       1.826   7.136  -8.452  0.00  0.00    +0.054 C 
ATOM      3  C   UNL     1       3.175   6.551  -7.710  0.00  0.00    +0.119 C 
ATOM      4  N   UNL     1       3.115   5.138  -8.442  0.00  0.00    -0.131 NA
ATOM      5  C   UNL     1       2.442   5.879  -6.307  0.00  0.00    +0.144 C 
ATOM      6  C   UNL     1       0.859   6.526  -6.556  0.00  0.00    +0.158 C 
ATOM      7  C   UNL     1       0.532   5.390  -7.709  0.00  0.00    +0.007 C 
ENDROOT
BRANCH   5   8
ATOM      8  N   UNL     1       2.865   7.107  -5.452  0.00  0.00    -0.203 NA
ATOM      9  C   UNL     1       3.775   6.868  -4.392  0.00  0.00    +0.242 C 
ATOM     10  O   UNL     1       3.471   5.888  -3.644  0.00  0.00    -0.273 OA
ATOM     11  C   UNL     1       5.036   7.622  -4.189  0.00  0.00    +0.096 C 
ENDBRANCH   5   8
BRANCH   1  12
ATOM     12  C   UNL     1       0.711   5.638 -10.162  0.00  0.00    +0.337 C 
ATOM     13  O   UNL     1       0.642   4.394 -10.413  0.00  0.00    -0.245 OA
BRANCH  12  14
ATOM     14  O   UNL     1       1.323   6.401 -11.161  0.00  0.00    -0.446 OA
BRANCH  14  16
ATOM     15  C   UNL     1      -0.630   7.576 -11.678  0.00  0.00    +0.051 C 
ATOM     16  C   UNL     1       0.511   6.941 -12.165  0.00  0.00    +0.209 C 
ENDBRANCH  14  16
ENDBRANCH  12  14
ENDBRANCH   1  12
BRANCH   6  17
ATOM     17  O   UNL     1       0.320   5.607  -5.454  0.00  0.00    -0.353 OA
BRANCH  17  18
ATOM     18  C   UNL     1      -0.737   6.237  -4.896  0.00  0.00    +0.116 C 
BRANCH  18  19
ATOM     19  C   UNL     1      -2.021   5.534  -4.793  0.00  0.00    +0.030 C 
ATOM     20  C   UNL     1      -2.620   5.422  -6.187  0.00  0.00    +0.003 C 
ENDBRANCH  18  19
BRANCH  18  21
ATOM     21  C   UNL     1      -0.761   7.716  -4.973  0.00  0.00    +0.030 C 
ATOM     22  C   UNL     1      -1.930   8.378  -4.324  0.00  0.00    +0.003 C 
ENDBRANCH  18  21
ENDBRANCH  17  18
ENDBRANCH   6  17
TORSDOF 8
ENDMDL
MODEL 3
REMARK VINA RESULT:      -6.6      2.878      6.306
REMARK  Name = 
REMARK  8 active torsions:
REMARK  status: ('A' for Active; 'I' for Inactive)
REMARK    1  A    between atoms: C_2  and  O_3
REMARK    2  A    between atoms: O_3  and  C_4
REMARK    3  A    between atoms: C_4  and  C_6
REMARK    4  A    between atoms: C_8  and  O_9
REMARK    5  A    between atoms: O_9  and  C_10
REMARK    6  A    between atoms: C_10  and  C_11
REMARK    7  A    between atoms: C_10  and  C_13
REMARK    8  A    between atoms: C_15  and  N_16
REMARK                            x       y       z     vdW  Elec       q    Type
REMARK                         _______ _______ _______ _____ _____    ______ ____
ROOT
ATOM      1  C   UNL     1       2.551   4.968  -6.774  0.00  0.00    +0.053 C 
ATOM      2  C   UNL     1       1.568   4.091  -6.172  0.00  0.00    +0.054 C 
ATOM      3  C   UNL     1       0.098   4.834  -6.190  0.00  0.00    +0.119 C 
ATOM      4  N   UNL     1       0.426   5.724  -7.469  0.00  0.00    -0.131 NA
ATOM      5  C   UNL     1       0.454   6.159  -5.153  0.00  0.00    +0.144 C 
ATOM      6  C   UNL     1       2.011   5.618  -4.632  0.00  0.00    +0.158 C 
ATOM      7  C   UNL     1       2.695   6.089  -6.059  0.00  0.00    +0.007 C 
ENDROOT
BRANCH   5   8
ATOM      8  N   UNL     1      -0.247   5.457  -3.954  0.00  0.00    -0.203 NA
ATOM      9  C   UNL     1      -1.484   6.002  -3.526  0.00  0.00    +0.242 C 
ATOM     10  O   UNL     1      -1.480   7.260  -3.364  0.00  0.00    -0.273 OA
ATOM     11  C   UNL     1      -2.726   5.212  -3.352  0.00  0.00    +0.096 C 
ENDBRANCH   5   8
BRANCH   1  12
ATOM     12  C   UNL     1       3.179   4.682  -8.034  0.00  0.00    +0.337 C 
ATOM     13  O   UNL     1       2.834   3.616  -8.635  0.00  0.00    -0.245 OA
BRANCH  12  14
ATOM     14  O   UNL     1       4.533   5.006  -8.153  0.00  0.00    -0.446 OA
BRANCH  14  16
ATOM     15  C   UNL     1       6.371   5.680  -9.430  0.00  0.00    +0.051 C 
ATOM     16  C   UNL     1       5.005   5.406  -9.409  0.00  0.00    +0.209 C 
ENDBRANCH  14  16
ENDBRANCH  12  14
ENDBRANCH   1  12
BRANCH   6  17
ATOM     17  O   UNL     1       2.273   6.997  -4.016  0.00  0.00    -0.353 OA
BRANCH  17  18
ATOM     18  C   UNL     1       3.284   6.849  -3.132  0.00  0.00    +0.116 C 
BRANCH  18  19
ATOM     19  C   UNL     1       4.345   7.861  -3.075  0.00  0.00    +0.030 C 
ATOM     20  C   UNL     1       5.449   7.453  -4.040  0.00  0.00    +0.003 C 
ENDBRANCH  18  19
BRANCH  18  21
ATOM     21  C   UNL     1       3.622   5.468  -2.715  0.00  0.00    +0.030 C 
ATOM     22  C   UNL     1       3.855   5.272  -1.255  0.00  0.00    +0.003 C 
ENDBRANCH  18  21
ENDBRANCH  17  18
ENDBRANCH   6  17
TORSDOF 8
ENDMDL
MODEL 4
REMARK VINA RESULT:      -6.6      1.856      5.419
REMARK  Name = 
REMARK  8 active torsions:
REMARK  status: ('A' for Active; 'I' for Inactive)
REMARK    1  A    between atoms: C_2  and  O_3
REMARK    2  A    between atoms: O_3  and  C_4
REMARK    3  A    between atoms: C_4  and  C_6
REMARK    4  A    between atoms: C_8  and  O_9
REMARK    5  A    between atoms: O_9  and  C_10
REMARK    6  A    between atoms: C_10  and  C_11
REMARK    7  A    between atoms: C_10  and  C_13
REMARK    8  A    between atoms: C_15  and  N_16
REMARK                            x       y       z     vdW  Elec       q    Type
REMARK                         _______ _______ _______ _____ _____    ______ ____
ROOT
ATOM      1  C   UNL     1       3.663   5.620  -8.533  0.00  0.00    +0.053 C 
ATOM      2  C   UNL     1       2.574   4.665  -8.520  0.00  0.00    +0.054 C 
ATOM      3  C   UNL     1       1.150   5.468  -8.722  0.00  0.00    +0.119 C 
ATOM      4  N   UNL     1       1.802   6.674  -9.531  0.00  0.00    -0.131 NA
ATOM      5  C   UNL     1       1.162   6.404  -7.279  0.00  0.00    +0.144 C 
ATOM      6  C   UNL     1       2.521   5.640  -6.533  0.00  0.00    +0.158 C 
ATOM      7  C   UNL     1       3.569   6.469  -7.504  0.00  0.00    +0.007 C 
ENDROOT
BRANCH   5   8
ATOM      8  N   UNL     1       0.170   5.423  -6.590  0.00  0.00    -0.203 NA
ATOM      9  C   UNL     1      -0.991   5.991  -6.005  0.00  0.00    +0.242 C 
ATOM     10  O   UNL     1      -0.772   6.996  -5.263  0.00  0.00    -0.273 OA
ATOM     11  C   UNL     1      -2.373   5.530  -6.281  0.00  0.00    +0.096 C 
ENDBRANCH   5   8
BRANCH   1  12
ATOM     12  C   UNL     1       4.630   5.680  -9.594  0.00  0.00    +0.337 C 
ATOM     13  O   UNL     1       4.408   4.982 -10.632  0.00  0.00    -0.245 OA
BRANCH  12  14
ATOM     14  O   UNL     1       5.974   5.760  -9.220  0.00  0.00    -0.446 OA
BRANCH  14  16
ATOM     15  C   UNL     1       7.289   7.115 -10.597  0.00  0.00    +0.051 C 
ATOM     16  C   UNL     1       6.936   5.816 -10.236  0.00  0.00    +0.209 C 
ENDBRANCH  14  16
ENDBRANCH  12  14
ENDBRANCH   1  12
BRANCH   6  17
ATOM     17  O   UNL     1       2.561   6.758  -5.485  0.00  0.00    -0.353 OA
BRANCH  17  18
ATOM     18  C   UNL     1       3.612   6.501  -4.675  0.00  0.00    +0.116 C 
BRANCH  18  19
ATOM     19  C   UNL     1       3.643   5.247  -3.912  0.00  0.00    +0.030 C 
ATOM     20  C   UNL     1       5.025   4.628  -4.065  0.00  0.00    +0.003 C 
ENDBRANCH  18  19
BRANCH  18  21
ATOM     21  C   UNL     1       4.339   7.667  -4.120  0.00  0.00    +0.030 C 
ATOM     22  C   UNL     1       3.999   8.032  -2.715  0.00  0.00    +0.003 C 
ENDBRANCH  18  21
ENDBRANCH  17  18
ENDBRANCH   6  17
TORSDOF 8
ENDMDL
MODEL 5
REMARK VINA RESULT:      -6.6      2.347      4.816
REMARK  Name = 
REMARK  8 active torsions:
REMARK  status: ('A' for Active; 'I' for Inactive)
REMARK    1  A    between atoms: C_2  and  O_3
REMARK    2  A    between atoms: O_3  and  C_4
REMARK    3  A    between atoms: C_4  and  C_6
REMARK    4  A    between atoms: C_8  and  O_9
REMARK    5  A    between atoms: O_9  and  C_10
REMARK    6  A    between atoms: C_10  and  C_11
REMARK    7  A    between atoms: C_10  and  C_13
REMARK    8  A    between atoms: C_15  and  N_16
REMARK                            x       y       z     vdW  Elec       q    Type
REMARK                         _______ _______ _______ _____ _____    ______ ____
ROOT
ATOM      1  C   UNL     1       1.393   6.004  -6.294  0.00  0.00    +0.053 C 
ATOM      2  C   UNL     1       2.511   5.093  -6.429  0.00  0.00    +0.054 C 
ATOM      3  C   UNL     1       3.893   5.962  -6.646  0.00  0.00    +0.119 C 
ATOM      4  N   UNL     1       3.356   7.243  -5.866  0.00  0.00    -0.131 NA
ATOM      5  C   UNL     1       3.515   6.698  -8.154  0.00  0.00    +0.144 C 
ATOM      6  C   UNL     1       2.077   5.798  -8.483  0.00  0.00    +0.158 C 
ATOM      7  C   UNL     1       1.213   6.712  -7.414  0.00  0.00    +0.007 C 
ENDROOT
BRANCH   5   8
ATOM      8  N   UNL     1       4.395   5.668  -8.919  0.00  0.00    -0.203 NA
ATOM      9  C   UNL     1       5.375   6.191  -9.800  0.00  0.00    +0.242 C 
ATOM     10  O   UNL     1       4.951   7.088 -10.591  0.00  0.00    -0.273 OA
ATOM     11  C   UNL     1       6.808   5.810  -9.774  0.00  0.00    +0.096 C 
ENDBRANCH   5   8
BRANCH   1  12
ATOM     12  C   UNL     1       0.674   6.173  -5.061  0.00  0.00    +0.337 C 
ATOM     13  O   UNL     1       0.769   5.250  -4.194  0.00  0.00    -0.245 OA
BRANCH  12  14
ATOM     14  O   UNL     1      -0.588   6.769  -5.143  0.00  0.00    -0.446 OA
BRANCH  14  16
ATOM     15  C   UNL     1      -2.350   5.760  -6.300  0.00  0.00    +0.051 C 
ATOM     16  C   UNL     1      -1.712   5.938  -5.074  0.00  0.00    +0.209 C 
ENDBRANCH  14  16
ENDBRANCH  12  14
ENDBRANCH   1  12
BRANCH   6  17
ATOM     17  O   UNL     1       1.745   6.764  -9.625  0.00  0.00    -0.353 OA
BRANCH  17  18
ATOM     18  C   UNL     1       0.843   6.144 -10.417  0.00  0.00    +0.116 C 
BRANCH  18  19
ATOM     19  C   UNL     1       0.713   4.683 -10.354  0.00  0.00    +0.030 C 
ATOM     20  C   UNL     1      -0.218   4.236 -11.472  0.00  0.00    +0.003 C 
ENDBRANCH  18  19
BRANCH  18  21
ATOM     21  C   UNL     1       0.482   6.817 -11.687  0.00  0.00    +0.030 C 
ATOM     22  C   UNL     1      -0.697   7.728 -11.623  0.00  0.00    +0.003 C 
ENDBRANCH  18  21
ENDBRANCH  17  18
ENDBRANCH   6  17
TORSDOF 8
ENDMDL
MODEL 6
REMARK VINA RESULT:      -6.5      1.760      2.369
REMARK  Name = 
REMARK  8 active torsions:
REMARK  status: ('A' for Active; 'I' for Inactive)
REMARK    1  A    between atoms: C_2  and  O_3
REMARK    2  A    between atoms: O_3  and  C_4
REMARK    3  A    between atoms: C_4  and  C_6
REMARK    4  A    between atoms: C_8  and  O_9
REMARK    5  A    between atoms: O_9  and  C_10
REMARK    6  A    between atoms: C_10  and  C_11
REMARK    7  A    between atoms: C_10  and  C_13
REMARK    8  A    between atoms: C_15  and  N_16
REMARK                            x       y       z     vdW  Elec       q    Type
REMARK                         _______ _______ _______ _____ _____    ______ ____
ROOT
ATOM      1  C   UNL     1       3.409   6.448  -8.114  0.00  0.00    +0.053 C 
ATOM      2  C   UNL     1       2.473   7.154  -8.965  0.00  0.00    +0.054 C 
ATOM      3  C   UNL     1       1.691   6.068  -9.925  0.00  0.00    +0.119 C 
ATOM      4  N   UNL     1       1.849   4.860  -8.899  0.00  0.00    -0.131 NA
ATOM      5  C   UNL     1       3.035   5.497 -10.835  0.00  0.00    +0.144 C 
ATOM      6  C   UNL     1       4.189   6.654 -10.271  0.00  0.00    +0.158 C 
ATOM      7  C   UNL     1       4.357   5.847  -8.840  0.00  0.00    +0.007 C 
ENDROOT
BRANCH   5   8
ATOM      8  N   UNL     1       2.648   6.397 -12.043  0.00  0.00    -0.203 NA
ATOM      9  C   UNL     1       2.594   5.774 -13.315  0.00  0.00    +0.242 C 
ATOM     10  O   UNL     1       3.604   5.060 -13.598  0.00  0.00    -0.273 OA
ATOM     11  C   UNL     1       1.433   5.855 -14.234  0.00  0.00    +0.096 C 
ENDBRANCH   5   8
BRANCH   1  12
ATOM     12  C   UNL     1       3.236   6.339  -6.692  0.00  0.00    +0.337 C 
ATOM     13  O   UNL     1       3.328   7.404  -6.005  0.00  0.00    -0.245 OA
BRANCH  12  14
ATOM     14  O   UNL     1       3.765   5.201  -6.077  0.00  0.00    -0.446 OA
BRANCH  14  16
ATOM     15  C   UNL     1       4.823   4.927  -4.010  0.00  0.00    +0.051 C 
ATOM     16  C   UNL     1       3.615   5.075  -4.691  0.00  0.00    +0.209 C 
ENDBRANCH  14  16
ENDBRANCH  12  14
ENDBRANCH   1  12
BRANCH   6  17
ATOM     17  O   UNL     1       5.313   5.827 -10.905  0.00  0.00    -0.353 OA
BRANCH  17  18
ATOM     18  C   UNL     1       6.276   6.695 -11.285  0.00  0.00    +0.116 C 
BRANCH  18  19
ATOM     19  C   UNL     1       6.442   7.008 -12.709  0.00  0.00    +0.030 C 
ATOM     20  C   UNL     1       7.167   5.847 -13.374  0.00  0.00    +0.003 C 
ENDBRANCH  18  19
BRANCH  18  21
ATOM     21  C   UNL     1       7.463   6.817 -10.407  0.00  0.00    +0.030 C 
ATOM     22  C   UNL     1       7.835   5.587  -9.650  0.00  0.00    +0.003 C 
ENDBRANCH  18  21
ENDBRANCH  17  18
ENDBRANCH   6  17
TORSDOF 8
ENDMDL
MODEL 7
REMARK VINA RESULT:      -6.4      2.568      3.444
REMARK  Name = 
REMARK  8 active torsions:
REMARK  status: ('A' for Active; 'I' for Inactive)
REMARK    1  A    between atoms: C_2  and  O_3
REMARK    2  A    between atoms: O_3  and  C_4
REMARK    3  A    between atoms: C_4  and  C_6
REMARK    4  A    between atoms: C_8  and  O_9
REMARK    5  A    between atoms: O_9  and  C_10
REMARK    6  A    between atoms: C_10  and  C_11
REMARK    7  A    between atoms: C_10  and  C_13
REMARK    8  A    between atoms: C_15  and  N_16
REMARK                            x       y       z     vdW  Elec       q    Type
REMARK                         _______ _______ _______ _____ _____    ______ ____
ROOT
ATOM      1  C   UNL     1       1.789   5.829  -8.707  0.00  0.00    +0.053 C 
ATOM      2  C   UNL     1       1.178   6.796  -9.597  0.00  0.00    +0.054 C 
ATOM      3  C   UNL     1       0.574   6.011 -10.913  0.00  0.00    +0.119 C 
ATOM      4  N   UNL     1       0.342   4.637 -10.142  0.00  0.00    -0.131 NA
ATOM      5  C   UNL     1       2.047   5.416 -11.572  0.00  0.00    +0.144 C 
ATOM      6  C   UNL     1       3.119   6.284 -10.531  0.00  0.00    +0.158 C 
ATOM      7  C   UNL     1       2.832   5.231  -9.292  0.00  0.00    +0.007 C 
ENDROOT
BRANCH   5   8
ATOM      8  N   UNL     1       2.075   6.554 -12.633  0.00  0.00    -0.203 NA
ATOM      9  C   UNL     1       1.982   6.165 -13.993  0.00  0.00    +0.242 C 
ATOM     10  O   UNL     1       2.765   5.224 -14.329  0.00  0.00    -0.273 OA
ATOM     11  C   UNL     1       1.004   6.727 -14.956  0.00  0.00    +0.096 C 
ENDBRANCH   5   8
BRANCH   1  12
ATOM     12  C   UNL     1       1.243   5.507  -7.418  0.00  0.00    +0.337 C 
ATOM     13  O   UNL     1       1.430   4.330  -6.978  0.00  0.00    -0.245 OA
BRANCH  12  14
ATOM     14  O   UNL     1      -0.004   6.056  -7.106  0.00  0.00    -0.446 OA
BRANCH  14  16
ATOM     15  C   UNL     1      -2.187   5.754  -6.326  0.00  0.00    +0.051 C 
ATOM     16  C   UNL     1      -1.089   5.182  -6.966  0.00  0.00    +0.209 C 
ENDBRANCH  14  16
ENDBRANCH  12  14
ENDBRANCH   1  12
BRANCH   6  17
ATOM     17  O   UNL     1       4.285   5.424 -11.032  0.00  0.00    -0.353 OA
BRANCH  17  18
ATOM     18  C   UNL     1       5.424   6.059 -10.679  0.00  0.00    +0.116 C 
BRANCH  18  19
ATOM     19  C   UNL     1       6.258   6.673 -11.719  0.00  0.00    +0.030 C 
ATOM     20  C   UNL     1       6.320   8.171 -11.463  0.00  0.00    +0.003 C 
ENDBRANCH  18  19
BRANCH  18  21
ATOM     21  C   UNL     1       6.089   5.614  -9.432  0.00  0.00    +0.030 C 
ATOM     22  C   UNL     1       7.579   5.564  -9.477  0.00  0.00    +0.003 C 
ENDBRANCH  18  21
ENDBRANCH  17  18
ENDBRANCH   6  17
TORSDOF 8
ENDMDL
MODEL 8
REMARK VINA RESULT:      -6.3      2.130      2.919
REMARK  Name = 
REMARK  8 active torsions:
REMARK  status: ('A' for Active; 'I' for Inactive)
REMARK    1  A    between atoms: C_2  and  O_3
REMARK    2  A    between atoms: O_3  and  C_4
REMARK    3  A    between atoms: C_4  and  C_6
REMARK    4  A    between atoms: C_8  and  O_9
REMARK    5  A    between atoms: O_9  and  C_10
REMARK    6  A    between atoms: C_10  and  C_11
REMARK    7  A    between atoms: C_10  and  C_13
REMARK    8  A    between atoms: C_15  and  N_16
REMARK                            x       y       z     vdW  Elec       q    Type
REMARK                         _______ _______ _______ _____ _____    ______ ____
ROOT
ATOM      1  C   UNL     1       1.917   5.609  -9.099  0.00  0.00    +0.053 C 
ATOM      2  C   UNL     1       1.254   6.695  -9.792  0.00  0.00    +0.054 C 
ATOM      3  C   UNL     1       0.431   6.088 -11.083  0.00  0.00    +0.119 C 
ATOM      4  N   UNL     1       0.221   4.651 -10.432  0.00  0.00    -0.131 NA
ATOM      5  C   UNL     1       1.763   5.500 -11.999  0.00  0.00    +0.144 C 
ATOM      6  C   UNL     1       3.017   6.197 -11.035  0.00  0.00    +0.158 C 
ATOM      7  C   UNL     1       2.833   5.030  -9.882  0.00  0.00    +0.007 C 
ENDROOT
BRANCH   5   8
ATOM      8  N   UNL     1       1.719   6.745 -12.932  0.00  0.00    -0.203 NA
ATOM      9  C   UNL     1       1.685   6.499 -14.328  0.00  0.00    +0.242 C 
ATOM     10  O   UNL     1       2.549   5.665 -14.739  0.00  0.00    -0.273 OA
ATOM     11  C   UNL     1       0.684   7.083 -15.253  0.00  0.00    +0.096 C 
ENDBRANCH   5   8
BRANCH   1  12
ATOM     12  C   UNL     1       1.530   5.174  -7.786  0.00  0.00    +0.337 C 
ATOM     13  O   UNL     1       0.576   5.793  -7.219  0.00  0.00    -0.245 OA
BRANCH  12  14
ATOM     14  O   UNL     1       2.555   4.768  -6.927  0.00  0.00    -0.446 OA
BRANCH  14  16
ATOM     15  C   UNL     1       4.447   5.918  -6.176  0.00  0.00    +0.051 C 
ATOM     16  C   UNL     1       3.075   5.713  -6.035  0.00  0.00    +0.209 C 
ENDBRANCH  14  16
ENDBRANCH  12  14
ENDBRANCH   1  12
BRANCH   6  17
ATOM     17  O   UNL     1       4.049   5.344 -11.780  0.00  0.00    -0.353 OA
BRANCH  17  18
ATOM     18  C   UNL     1       5.188   6.068 -11.844  0.00  0.00    +0.116 C 
BRANCH  18  19
ATOM     19  C   UNL     1       6.445   5.403 -12.209  0.00  0.00    +0.030 C 
ATOM     20  C   UNL     1       6.623   5.508 -13.716  0.00  0.00    +0.003 C 
ENDBRANCH  18  19
BRANCH  18  21
ATOM     21  C   UNL     1       5.267   7.282 -10.998  0.00  0.00    +0.030 C 
ATOM     22  C   UNL     1       6.412   8.194 -11.282  0.00  0.00    +0.003 C 
ENDBRANCH  18  21
ENDBRANCH  17  18
ENDBRANCH   6  17
TORSDOF 8
ENDMDL
MODEL 9
REMARK VINA RESULT:      -6.2      3.716      7.936
REMARK  Name = 
REMARK  8 active torsions:
REMARK  status: ('A' for Active; 'I' for Inactive)
REMARK    1  A    between atoms: C_2  and  O_3
REMARK    2  A    between atoms: O_3  and  C_4
REMARK    3  A    between atoms: C_4  and  C_6
REMARK    4  A    between atoms: C_8  and  O_9
REMARK    5  A    between atoms: O_9  and  C_10
REMARK    6  A    between atoms: C_10  and  C_11
REMARK    7  A    between atoms: C_10  and  C_13
REMARK    8  A    between atoms: C_15  and  N_16
REMARK                            x       y       z     vdW  Elec       q    Type
REMARK                         _______ _______ _______ _____ _____    ______ ____
ROOT
ATOM      1  C   UNL     1       2.343   5.521  -6.055  0.00  0.00    +0.053 C 
ATOM      2  C   UNL     1       2.943   6.597  -5.293  0.00  0.00    +0.054 C 
ATOM      3  C   UNL     1       3.580   5.986  -3.903  0.00  0.00    +0.119 C 
ATOM      4  N   UNL     1       3.833   4.536  -4.511  0.00  0.00    -0.131 NA
ATOM      5  C   UNL     1       2.129   5.442  -3.158  0.00  0.00    +0.144 C 
ATOM      6  C   UNL     1       1.025   6.159  -4.278  0.00  0.00    +0.158 C 
ATOM      7  C   UNL     1       1.321   4.974  -5.389  0.00  0.00    +0.007 C 
ENDROOT
BRANCH   5   8
ATOM      8  N   UNL     1       2.087   6.696  -2.237  0.00  0.00    -0.203 NA
ATOM      9  C   UNL     1       2.195   6.471  -0.842  0.00  0.00    +0.242 C 
ATOM     10  O   UNL     1       1.430   5.563  -0.392  0.00  0.00    -0.273 OA
ATOM     11  C   UNL     1       3.169   7.157   0.041  0.00  0.00    +0.096 C 
ENDBRANCH   5   8
BRANCH   1  12
ATOM     12  C   UNL     1       2.881   5.061  -7.305  0.00  0.00    +0.337 C 
ATOM     13  O   UNL     1       3.704   5.820  -7.906  0.00  0.00    -0.245 OA
BRANCH  12  14
ATOM     14  O   UNL     1       2.013   4.359  -8.146  0.00  0.00    -0.446 OA
BRANCH  14  16
ATOM     15  C   UNL     1       0.103   5.435  -8.955  0.00  0.00    +0.051 C 
ATOM     16  C   UNL     1       1.420   5.055  -9.205  0.00  0.00    +0.209 C 
ENDBRANCH  14  16
ENDBRANCH  12  14
ENDBRANCH   1  12
BRANCH   6  17
ATOM     17  O   UNL     1      -0.115   5.340  -3.663  0.00  0.00    -0.353 OA
BRANCH  17  18
ATOM     18  C   UNL     1      -1.235   6.092  -3.754  0.00  0.00    +0.116 C 
BRANCH  18  19
ATOM     19  C   UNL     1      -1.496   6.848  -4.985  0.00  0.00    +0.030 C 
ATOM     20  C   UNL     1      -2.262   5.950  -5.946  0.00  0.00    +0.003 C 
ENDBRANCH  18  19
BRANCH  18  21
ATOM     21  C   UNL     1      -1.808   6.609  -2.490  0.00  0.00    +0.030 C 
ATOM     22  C   UNL     1      -3.297   6.606  -2.407  0.00  0.00    +0.003 C 
ENDBRANCH  18  21
ENDBRANCH  17  18
ENDBRANCH   6  17
TORSDOF 8
ENDMDL
