MODEL 1
REMARK VINA RESULT:      -9.0      0.000      0.000
REMARK  Name = 
REMARK  2 active torsions:
REMARK  status: ('A' for Active; 'I' for Inactive)
REMARK    1  A    between atoms: S_2  and  C_5
REMARK    2  A    between atoms: C_7  and  C_8
REMARK                            x       y       z     vdW  Elec       q    Type
REMARK                         _______ _______ _______ _____ _____    ______ ____
ROOT
ATOM      1  C   UNL     1       4.925   6.024 -10.167  0.00  0.00    +0.135 A 
ATOM      2  C   UNL     1       6.006   5.641  -9.383  0.00  0.00    +0.076 A 
ATOM      3 CL   UNL     1       7.643   6.162  -9.771  0.00  0.00    -0.081 Cl
ATOM      4  C   UNL     1       5.696   5.081  -8.149  0.00  0.00    +0.013 A 
ATOM      5  C   UNL     1       4.441   5.326  -7.606  0.00  0.00    +0.001 A 
ATOM      6  C   UNL     1       3.510   6.144  -8.236  0.00  0.00    +0.030 A 
ATOM      7  C   UNL     1       3.712   6.341  -9.599  0.00  0.00    +0.021 A 
ENDROOT
BRANCH   6   8
ATOM      8  C   UNL     1       2.618   7.042  -7.437  0.00  0.00    +0.242 C 
ATOM      9  C   UNL     1       1.336   6.372  -7.090  0.00  0.00    +0.033 A 
ATOM     10  C   UNL     1       1.033   6.555  -5.769  0.00  0.00    +0.055 A 
ATOM     11  C   UNL     1      -0.273   6.434  -5.311  0.00  0.00    +0.004 A 
ATOM     12  C   UNL     1      -1.131   5.617  -6.034  0.00  0.00    +0.000 A 
ATOM     13  C   UNL     1      -0.866   5.405  -7.373  0.00  0.00    -0.000 A 
ATOM     14  C   UNL     1       2.265   6.939  -5.105  0.00  0.00    +0.267 C 
ATOM     15  O   UNL     1       2.487   6.874  -3.859  0.00  0.00    -0.268 OA
ATOM     16  C   UNL     1       0.381   5.748  -7.878  0.00  0.00    +0.000 A 
ATOM     17  N   UNL     1       3.168   7.336  -6.138  0.00  0.00    -0.167 NA
ATOM     18  O   UNL     1       2.291   8.197  -8.138  0.00  0.00    -0.194 OA
ENDBRANCH   6   8
BRANCH   1  20
ATOM     19  N   UNL     1       5.832   7.236 -12.117  0.00  0.00    +0.039 NA
ATOM     20  S   UNL     1       5.258   6.218 -11.883  0.00  0.00    +0.094 S 
ATOM     21  O   UNL     1       3.933   6.116 -12.608  0.00  0.00    -0.150 OA
ATOM     22  O   UNL     1       6.040   5.007 -12.345  0.00  0.00    -0.150 OA
ENDBRANCH   1  20
TORSDOF 2
ENDMDL
MODEL 2
REMARK VINA RESULT:      -8.9      1.816      2.363
REMARK  Name = 
REMARK  2 active torsions:
REMARK  status: ('A' for Active; 'I' for Inactive)
REMARK    1  A    between atoms: S_2  and  C_5
REMARK    2  A    between atoms: C_7  and  C_8
REMARK                            x       y       z     vdW  Elec       q    Type
REMARK                         _______ _______ _______ _____ _____    ______ ____
ROOT
ATOM      1  C   UNL     1       5.915   5.527 -11.253  0.00  0.00    +0.135 A 
ATOM      2  C   UNL     1       6.750   5.902 -10.208  0.00  0.00    +0.076 A 
ATOM      3 CL   UNL     1       7.987   7.136 -10.428  0.00  0.00    -0.081 Cl
ATOM      4  C   UNL     1       6.375   5.468  -8.942  0.00  0.00    +0.013 A 
ATOM      5  C   UNL     1       5.052   5.100  -8.733  0.00  0.00    +0.001 A 
ATOM      6  C   UNL     1       4.092   5.192  -9.733  0.00  0.00    +0.030 A 
ATOM      7  C   UNL     1       4.586   5.245 -11.033  0.00  0.00    +0.021 A 
ENDROOT
BRANCH   6   8
ATOM      8  C   UNL     1       2.688   5.601  -9.410  0.00  0.00    +0.242 C 
ATOM      9  C   UNL     1       2.313   5.218  -8.022  0.00  0.00    +0.033 A 
ATOM     10  C   UNL     1       1.702   6.259  -7.379  0.00  0.00    +0.055 A 
ATOM     11  C   UNL     1       0.876   6.038  -6.284  0.00  0.00    +0.004 A 
ATOM     12  C   UNL     1       1.107   4.895  -5.531  0.00  0.00    +0.000 A 
ATOM     13  C   UNL     1       1.719   3.817  -6.139  0.00  0.00    -0.000 A 
ATOM     14  C   UNL     1       2.044   7.464  -8.112  0.00  0.00    +0.267 C 
ATOM     15  O   UNL     1       1.964   8.649  -7.669  0.00  0.00    -0.268 OA
ATOM     16  C   UNL     1       2.351   4.000  -7.361  0.00  0.00    +0.000 A 
ATOM     17  N   UNL     1       2.534   7.033  -9.383  0.00  0.00    -0.167 NA
ATOM     18  O   UNL     1       1.768   4.993 -10.257  0.00  0.00    -0.194 OA
ENDBRANCH   6   8
BRANCH   1  20
ATOM     19  N   UNL     1       6.858   6.707 -13.205  0.00  0.00    +0.039 NA
ATOM     20  S   UNL     1       6.627   5.590 -12.860  0.00  0.00    +0.094 S 
ATOM     21  O   UNL     1       5.677   4.875 -13.796  0.00  0.00    -0.150 OA
ATOM     22  O   UNL     1       7.873   4.730 -12.850  0.00  0.00    -0.150 OA
ENDBRANCH   1  20
TORSDOF 2
ENDMDL
MODEL 3
REMARK VINA RESULT:      -8.7      4.770      7.368
REMARK  Name = 
REMARK  2 active torsions:
REMARK  status: ('A' for Active; 'I' for Inactive)
REMARK    1  A    between atoms: S_2  and  C_5
REMARK    2  A    between atoms: C_7  and  C_8
REMARK                            x       y       z     vdW  Elec       q    Type
REMARK                         _______ _______ _______ _____ _____    ______ ____
ROOT
ATOM      1  C   UNL     1      -1.039   5.536  -4.212  0.00  0.00    +0.135 A 
ATOM      2  C   UNL     1      -2.142   6.109  -4.832  0.00  0.00    +0.076 A 
ATOM      3 CL   UNL     1      -2.977   7.485  -4.116  0.00  0.00    -0.081 Cl
ATOM      4  C   UNL     1      -2.366   5.731  -6.151  0.00  0.00    +0.013 A 
ATOM      5  C   UNL     1      -1.308   5.197  -6.875  0.00  0.00    +0.001 A 
ATOM      6  C   UNL     1      -0.033   5.069  -6.337  0.00  0.00    +0.030 A 
ATOM      7  C   UNL     1       0.034   5.087  -4.947  0.00  0.00    +0.021 A 
ENDROOT
BRANCH   6   8
ATOM      8  C   UNL     1       1.180   5.299  -7.184  0.00  0.00    +0.242 C 
ATOM      9  C   UNL     1       0.817   5.537  -8.608  0.00  0.00    +0.033 A 
ATOM     10  C   UNL     1       1.492   6.616  -9.108  0.00  0.00    +0.055 A 
ATOM     11  C   UNL     1       1.680   6.770 -10.476  0.00  0.00    +0.004 A 
ATOM     12  C   UNL     1       0.753   6.175 -11.320  0.00  0.00    +0.000 A 
ATOM     13  C   UNL     1       0.049   5.080 -10.858  0.00  0.00    -0.000 A 
ATOM     14  C   UNL     1       1.956   7.385  -7.969  0.00  0.00    +0.267 C 
ATOM     15  O   UNL     1       2.320   8.600  -7.994  0.00  0.00    -0.268 OA
ATOM     16  C   UNL     1       0.056   4.797  -9.499  0.00  0.00    +0.000 A 
ATOM     17  N   UNL     1       1.860   6.521  -6.836  0.00  0.00    -0.167 NA
ATOM     18  O   UNL     1       2.035   4.203  -7.166  0.00  0.00    -0.194 OA
ENDBRANCH   6   8
BRANCH   1  20
ATOM     19  N   UNL     1      -0.893   6.670  -2.024  0.00  0.00    +0.039 NA
ATOM     20  S   UNL     1      -1.049   5.569  -2.454  0.00  0.00    +0.094 S 
ATOM     21  O   UNL     1       0.019   4.604  -1.985  0.00  0.00    -0.150 OA
ATOM     22  O   UNL     1      -2.351   4.956  -1.984  0.00  0.00    -0.150 OA
ENDBRANCH   1  20
TORSDOF 2
ENDMDL
MODEL 4
REMARK VINA RESULT:      -8.5      3.118      7.000
REMARK  Name = 
REMARK  2 active torsions:
REMARK  status: ('A' for Active; 'I' for Inactive)
REMARK    1  A    between atoms: S_2  and  C_5
REMARK    2  A    between atoms: C_7  and  C_8
REMARK                            x       y       z     vdW  Elec       q    Type
REMARK                         _______ _______ _______ _____ _____    ______ ____
ROOT
ATOM      1  C   UNL     1       3.559   5.482  -6.893  0.00  0.00    +0.135 A 
ATOM      2  C   UNL     1       2.497   4.627  -7.160  0.00  0.00    +0.076 A 
ATOM      3 CL   UNL     1       0.926   4.860  -6.398  0.00  0.00    -0.081 Cl
ATOM      4  C   UNL     1       2.658   3.777  -8.247  0.00  0.00    +0.013 A 
ATOM      5  C   UNL     1       3.598   4.108  -9.214  0.00  0.00    +0.001 A 
ATOM      6  C   UNL     1       4.348   5.276  -9.147  0.00  0.00    +0.030 A 
ATOM      7  C   UNL     1       4.432   5.861  -7.887  0.00  0.00    +0.021 A 
ENDROOT
BRANCH   6   8
ATOM      8  C   UNL     1       4.688   6.038 -10.390  0.00  0.00    +0.242 C 
ATOM      9  C   UNL     1       6.088   5.782 -10.823  0.00  0.00    +0.033 A 
ATOM     10  C   UNL     1       6.142   5.524 -12.166  0.00  0.00    +0.055 A 
ATOM     11  C   UNL     1       7.321   5.699 -12.880  0.00  0.00    +0.004 A 
ATOM     12  C   UNL     1       8.514   5.590 -12.180  0.00  0.00    +0.000 A 
ATOM     13  C   UNL     1       8.508   5.844 -10.823  0.00  0.00    -0.000 A 
ATOM     14  C   UNL     1       4.800   5.157 -12.577  0.00  0.00    +0.267 C 
ATOM     15  O   UNL     1       4.494   4.534 -13.638  0.00  0.00    -0.268 OA
ATOM     16  C   UNL     1       7.295   5.896 -10.151  0.00  0.00    +0.000 A 
ATOM     17  N   UNL     1       3.929   5.584 -11.528  0.00  0.00    -0.167 NA
ATOM     18  O   UNL     1       4.571   7.410 -10.200  0.00  0.00    -0.194 OA
ENDBRANCH   6   8
BRANCH   1  20
ATOM     19  N   UNL     1       2.792   7.002  -5.105  0.00  0.00    +0.039 NA
ATOM     20  S   UNL     1       3.610   6.151  -5.267  0.00  0.00    +0.094 S 
ATOM     21  O   UNL     1       5.021   6.647  -5.034  0.00  0.00    -0.150 OA
ATOM     22  O   UNL     1       3.440   5.009  -4.288  0.00  0.00    -0.150 OA
ENDBRANCH   1  20
TORSDOF 2
ENDMDL
MODEL 5
REMARK VINA RESULT:      -8.2      3.756      7.087
REMARK  Name = 
REMARK  2 active torsions:
REMARK  status: ('A' for Active; 'I' for Inactive)
REMARK    1  A    between atoms: S_2  and  C_5
REMARK    2  A    between atoms: C_7  and  C_8
REMARK                            x       y       z     vdW  Elec       q    Type
REMARK                         _______ _______ _______ _____ _____    ______ ____
ROOT
ATOM      1  C   UNL     1      -0.091   5.890  -5.159  0.00  0.00    +0.135 A 
ATOM      2  C   UNL     1      -1.337   5.706  -5.744  0.00  0.00    +0.076 A 
ATOM      3 CL   UNL     1      -2.795   6.367  -5.009  0.00  0.00    -0.081 Cl
ATOM      4  C   UNL     1      -1.334   5.234  -7.051  0.00  0.00    +0.013 A 
ATOM      5  C   UNL     1      -0.180   5.388  -7.808  0.00  0.00    +0.001 A 
ATOM      6  C   UNL     1       0.948   6.034  -7.315  0.00  0.00    +0.030 A 
ATOM      7  C   UNL     1       1.027   6.123  -5.928  0.00  0.00    +0.021 A 
ENDROOT
BRANCH   6   8
ATOM      8  C   UNL     1       1.784   6.898  -8.206  0.00  0.00    +0.242 C 
ATOM      9  C   UNL     1       3.095   6.263  -8.510  0.00  0.00    +0.033 A 
ATOM     10  C   UNL     1       3.374   6.340  -9.847  0.00  0.00    +0.055 A 
ATOM     11  C   UNL     1       4.679   6.242 -10.312  0.00  0.00    +0.004 A 
ATOM     12  C   UNL     1       5.585   5.538  -9.531  0.00  0.00    +0.000 A 
ATOM     13  C   UNL     1       5.346   5.437  -8.174  0.00  0.00    -0.000 A 
ATOM     14  C   UNL     1       2.116   6.599 -10.524  0.00  0.00    +0.267 C 
ATOM     15  O   UNL     1       1.885   6.409 -11.756  0.00  0.00    -0.268 OA
ATOM     16  C   UNL     1       4.089   5.763  -7.684  0.00  0.00    +0.000 A 
ATOM     17  N   UNL     1       1.205   7.044  -9.517  0.00  0.00    -0.167 NA
ATOM     18  O   UNL     1       2.060   8.127  -7.618  0.00  0.00    -0.194 OA
ENDBRANCH   6   8
BRANCH   1  20
ATOM     19  N   UNL     1      -0.449   4.940  -2.909  0.00  0.00    +0.039 NA
ATOM     20  S   UNL     1      -0.074   5.958  -3.402  0.00  0.00    +0.094 S 
ATOM     21  O   UNL     1      -0.917   7.148  -2.994  0.00  0.00    -0.150 OA
ATOM     22  O   UNL     1       1.330   6.316  -2.963  0.00  0.00    -0.150 OA
ENDBRANCH   1  20
TORSDOF 2
ENDMDL
MODEL 6
REMARK VINA RESULT:      -8.1      2.280      3.055
REMARK  Name = 
REMARK  2 active torsions:
REMARK  status: ('A' for Active; 'I' for Inactive)
REMARK    1  A    between atoms: S_2  and  C_5
REMARK    2  A    between atoms: C_7  and  C_8
REMARK                            x       y       z     vdW  Elec       q    Type
REMARK                         _______ _______ _______ _____ _____    ______ ____
ROOT
ATOM      1  C   UNL     1       5.587   5.434 -11.232  0.00  0.00    +0.135 A 
ATOM      2  C   UNL     1       6.705   6.000 -10.632  0.00  0.00    +0.076 A 
ATOM      3 CL   UNL     1       7.550   7.353 -11.377  0.00  0.00    -0.081 Cl
ATOM      4  C   UNL     1       6.938   5.636  -9.311  0.00  0.00    +0.013 A 
ATOM      5  C   UNL     1       5.881   5.127  -8.568  0.00  0.00    +0.001 A 
ATOM      6  C   UNL     1       4.598   5.011  -9.089  0.00  0.00    +0.030 A 
ATOM      7  C   UNL     1       4.515   5.010 -10.478  0.00  0.00    +0.021 A 
ENDROOT
BRANCH   6   8
ATOM      8  C   UNL     1       3.399   5.269  -8.232  0.00  0.00    +0.242 C 
ATOM      9  C   UNL     1       3.787   5.742  -6.875  0.00  0.00    +0.033 A 
ATOM     10  C   UNL     1       3.042   6.828  -6.507  0.00  0.00    +0.055 A 
ATOM     11  C   UNL     1       2.886   7.168  -5.169  0.00  0.00    +0.004 A 
ATOM     12  C   UNL     1       3.885   6.776  -4.289  0.00  0.00    +0.000 A 
ATOM     13  C   UNL     1       4.662   5.682  -4.619  0.00  0.00    -0.000 A 
ATOM     14  C   UNL     1       2.479   7.383  -7.724  0.00  0.00    +0.267 C 
ATOM     15  O   UNL     1       2.018   8.557  -7.859  0.00  0.00    -0.268 OA
ATOM     16  C   UNL     1       4.634   5.202  -5.920  0.00  0.00    +0.000 A 
ATOM     17  N   UNL     1       2.609   6.370  -8.723  0.00  0.00    -0.167 NA
ATOM     18  O   UNL     1       2.637   4.120  -8.054  0.00  0.00    -0.194 OA
ENDBRANCH   6   8
BRANCH   1  20
ATOM     19  N   UNL     1       6.526   4.885 -13.448  0.00  0.00    +0.039 NA
ATOM     20  S   UNL     1       5.576   5.442 -12.990  0.00  0.00    +0.094 S 
ATOM     21  O   UNL     1       5.482   6.888 -13.428  0.00  0.00    -0.150 OA
ATOM     22  O   UNL     1       4.276   4.817 -13.451  0.00  0.00    -0.150 OA
ENDBRANCH   1  20
TORSDOF 2
ENDMDL
MODEL 7
REMARK VINA RESULT:      -7.8      4.481      7.573
REMARK  Name = 
REMARK  2 active torsions:
REMARK  status: ('A' for Active; 'I' for Inactive)
REMARK    1  A    between atoms: S_2  and  C_5
REMARK    2  A    between atoms: C_7  and  C_8
REMARK                            x       y       z     vdW  Elec       q    Type
REMARK                         _______ _______ _______ _____ _____    ______ ____
ROOT
ATOM      1  C   UNL     1      -1.042   5.627  -4.088  0.00  0.00    +0.135 A 
ATOM      2  C   UNL     1      -2.237   6.054  -4.652  0.00  0.00    +0.076 A 
ATOM      3 CL   UNL     1      -3.258   7.235  -3.837  0.00  0.00    -0.081 Cl
ATOM      4  C   UNL     1      -2.434   5.723  -5.987  0.00  0.00    +0.013 A 
ATOM      5  C   UNL     1      -1.325   5.406  -6.762  0.00  0.00    +0.001 A 
ATOM      6  C   UNL     1      -0.032   5.451  -6.255  0.00  0.00    +0.030 A 
ATOM      7  C   UNL     1       0.069   5.397  -4.868  0.00  0.00    +0.021 A 
ENDROOT
BRANCH   6   8
ATOM      8  C   UNL     1       1.107   5.919  -7.107  0.00  0.00    +0.242 C 
ATOM      9  C   UNL     1       2.385   5.942  -6.347  0.00  0.00    +0.033 A 
ATOM     10  C   UNL     1       3.392   5.363  -7.070  0.00  0.00    +0.055 A 
ATOM     11  C   UNL     1       4.724   5.652  -6.800  0.00  0.00    +0.004 A 
ATOM     12  C   UNL     1       5.042   6.056  -5.511  0.00  0.00    +0.000 A 
ATOM     13  C   UNL     1       4.057   6.649  -4.744  0.00  0.00    -0.000 A 
ATOM     14  C   UNL     1       2.760   4.554  -8.095  0.00  0.00    +0.267 C 
ATOM     15  O   UNL     1       3.312   3.614  -8.742  0.00  0.00    -0.268 OA
ATOM     16  C   UNL     1       2.734   6.550  -5.150  0.00  0.00    +0.000 A 
ATOM     17  N   UNL     1       1.403   4.994  -8.171  0.00  0.00    -0.167 NA
ATOM     18  O   UNL     1       0.898   7.209  -7.581  0.00  0.00    -0.194 OA
ENDBRANCH   6   8
BRANCH   1  20
ATOM     19  N   UNL     1      -0.849   6.628  -1.840  0.00  0.00    +0.039 NA
ATOM     20  S   UNL     1      -1.009   5.554  -2.331  0.00  0.00    +0.094 S 
ATOM     21  O   UNL     1       0.074   4.569  -1.946  0.00  0.00    -0.150 OA
ATOM     22  O   UNL     1      -2.297   4.906  -1.869  0.00  0.00    -0.150 OA
ENDBRANCH   1  20
TORSDOF 2
ENDMDL
MODEL 8
REMARK VINA RESULT:      -7.7      3.082      4.059
REMARK  Name = 
REMARK  2 active torsions:
REMARK  status: ('A' for Active; 'I' for Inactive)
REMARK    1  A    between atoms: S_2  and  C_5
REMARK    2  A    between atoms: C_7  and  C_8
REMARK                            x       y       z     vdW  Elec       q    Type
REMARK                         _______ _______ _______ _____ _____    ______ ____
ROOT
ATOM      1  C   UNL     1       1.165   5.124  -8.448  0.00  0.00    +0.135 A 
ATOM      2  C   UNL     1       2.267   4.334  -8.146  0.00  0.00    +0.076 A 
ATOM      3 CL   UNL     1       3.751   4.442  -9.088  0.00  0.00    -0.081 Cl
ATOM      4  C   UNL     1       2.231   3.682  -6.919  0.00  0.00    +0.013 A 
ATOM      5  C   UNL     1       1.381   4.169  -5.935  0.00  0.00    +0.001 A 
ATOM      6  C   UNL     1       0.602   5.304  -6.125  0.00  0.00    +0.030 A 
ATOM      7  C   UNL     1       0.383   5.663  -7.452  0.00  0.00    +0.021 A 
ENDROOT
BRANCH   6   8
ATOM      8  C   UNL     1       0.367   6.266  -5.003  0.00  0.00    +0.242 C 
ATOM      9  C   UNL     1      -0.799   5.862  -4.171  0.00  0.00    +0.033 A 
ATOM     10  C   UNL     1      -0.493   5.932  -2.839  0.00  0.00    +0.055 A 
ATOM     11  C   UNL     1      -1.493   6.048  -1.881  0.00  0.00    +0.004 A 
ATOM     12  C   UNL     1      -2.747   5.548  -2.203  0.00  0.00    +0.000 A 
ATOM     13  C   UNL     1      -3.100   5.461  -3.535  0.00  0.00    -0.000 A 
ATOM     14  C   UNL     1       0.954   5.938  -2.740  0.00  0.00    +0.267 C 
ATOM     15  O   UNL     1       1.627   5.661  -1.702  0.00  0.00    -0.268 OA
ATOM     16  C   UNL     1      -2.114   5.578  -4.505  0.00  0.00    +0.000 A 
ATOM     17  N   UNL     1       1.443   6.255  -4.045  0.00  0.00    -0.167 NA
ATOM     18  O   UNL     1       0.100   7.547  -5.471  0.00  0.00    -0.194 OA
ENDBRANCH   6   8
BRANCH   1  20
ATOM     19  N   UNL     1       0.852   4.522 -10.822  0.00  0.00    +0.039 NA
ATOM     20  S   UNL     1       0.941   5.504 -10.151  0.00  0.00    +0.094 S 
ATOM     21  O   UNL     1       2.096   6.390 -10.565  0.00  0.00    -0.150 OA
ATOM     22  O   UNL     1      -0.282   6.388 -10.274  0.00  0.00    -0.150 OA
ENDBRANCH   1  20
TORSDOF 2
ENDMDL
MODEL 9
REMARK VINA RESULT:      -7.7      1.992      2.528
REMARK  Name = 
REMARK  2 active torsions:
REMARK  status: ('A' for Active; 'I' for Inactive)
REMARK    1  A    between atoms: S_2  and  C_5
REMARK    2  A    between atoms: C_7  and  C_8
REMARK                            x       y       z     vdW  Elec       q    Type
REMARK                         _______ _______ _______ _____ _____    ______ ____
ROOT
ATOM      1  C   UNL     1       5.955   5.586 -11.275  0.00  0.00    +0.135 A 
ATOM      2  C   UNL     1       7.070   5.900 -10.508  0.00  0.00    +0.076 A 
ATOM      3 CL   UNL     1       8.318   6.983 -11.117  0.00  0.00    -0.081 Cl
ATOM      4  C   UNL     1       7.004   5.551  -9.164  0.00  0.00    +0.013 A 
ATOM      5  C   UNL     1       5.755   5.338  -8.596  0.00  0.00    +0.001 A 
ATOM      6  C   UNL     1       4.577   5.502  -9.315  0.00  0.00    +0.030 A 
ATOM      7  C   UNL     1       4.711   5.458 -10.700  0.00  0.00    +0.021 A 
ENDROOT
BRANCH   6   8
ATOM      8  C   UNL     1       3.356   6.072  -8.663  0.00  0.00    +0.242 C 
ATOM      9  C   UNL     1       2.118   5.701  -9.400  0.00  0.00    +0.033 A 
ATOM     10  C   UNL     1       1.152   5.261  -8.537  0.00  0.00    +0.055 A 
ATOM     11  C   UNL     1      -0.191   5.287  -8.893  0.00  0.00    +0.004 A 
ATOM     12  C   UNL     1      -0.495   5.226 -10.245  0.00  0.00    +0.000 A 
ATOM     13  C   UNL     1       0.450   5.663 -11.154  0.00  0.00    -0.000 A 
ATOM     14  C   UNL     1       1.825   4.896  -7.304  0.00  0.00    +0.267 C 
ATOM     15  O   UNL     1       1.354   4.147  -6.396  0.00  0.00    -0.268 OA
ATOM     16  C   UNL     1       1.756   5.856 -10.729  0.00  0.00    +0.000 A 
ATOM     17  N   UNL     1       3.119   5.498  -7.362  0.00  0.00    -0.167 NA
ATOM     18  O   UNL     1       3.397   7.461  -8.620  0.00  0.00    -0.194 OA
ENDBRANCH   6   8
BRANCH   1  20
ATOM     19  N   UNL     1       6.251   6.603 -13.504  0.00  0.00    +0.039 NA
ATOM     20  S   UNL     1       6.218   5.518 -13.013  0.00  0.00    +0.094 S 
ATOM     21  O   UNL     1       5.126   4.647 -13.595  0.00  0.00    -0.150 OA
ATOM     22  O   UNL     1       7.496   4.744 -13.260  0.00  0.00    -0.150 OA
ENDBRANCH   1  20
TORSDOF 2
ENDMDL
