MODEL 1
REMARK VINA RESULT:      -8.8      0.000      0.000
REMARK  Name = 
REMARK  4 active torsions:
REMARK  status: ('A' for Active; 'I' for Inactive)
REMARK    1  A    between atoms: C_2  and  O_4
REMARK    2  A    between atoms: O_4  and  C_5
REMARK    3  A    between atoms: C_5  and  C_6
REMARK    4  A    between atoms: C_6  and  C_8
REMARK                            x       y       z     vdW  Elec       q    Type
REMARK                         _______ _______ _______ _____ _____    ______ ____
ROOT
ATOM      1  C   UNL     1       0.173   6.461  -4.780  0.00  0.00    +0.174 C 
ATOM      2  C   UNL     1       0.701   6.478  -6.085  0.00  0.00    +0.034 C 
ATOM      3  C   UNL     1       1.887   5.382  -6.024  0.00  0.00    +0.008 C 
ATOM      4  C   UNL     1       1.807   5.273  -7.712  0.00  0.00    +0.034 C 
ATOM      5  C   UNL     1       3.155   6.135  -7.843  0.00  0.00    +0.168 C 
ATOM      6  C   UNL     1       2.920   7.460  -6.924  0.00  0.00    +0.182 C 
ATOM      7  O   UNL     1       2.907   8.440  -8.086  0.00  0.00    -0.220 OA
ATOM      8  F   UNL     1       4.086   5.544  -6.971  0.00  0.00    -0.237 F 
ATOM      9  C   UNL     1       3.722   6.188  -9.098  0.00  0.00    +0.064 C 
ATOM     10  C   UNL     1       3.091   5.092  -9.923  0.00  0.00    -0.035 C 
ATOM     11  C   UNL     1       3.621   4.991 -11.150  0.00  0.00    +0.034 C 
ATOM     12  C   UNL     1       4.945   5.557 -11.461  0.00  0.00    +0.195 C 
ATOM     13  C   UNL     1       5.817   5.618 -10.277  0.00  0.00    +0.038 C 
ATOM     14  O   UNL     1       5.493   5.389 -12.593  0.00  0.00    -0.287 OA
ATOM     15  C   UNL     1       2.661   3.785  -9.329  0.00  0.00    +0.023 C 
ATOM     16  C   UNL     1       3.772   7.355 -10.020  0.00  0.00    +0.011 C 
ATOM     17  C   UNL     1       5.164   5.732  -9.118  0.00  0.00    -0.017 C 
ATOM     18  C   UNL     1       2.567   3.848  -7.809  0.00  0.00    +0.007 C 
ATOM     19  C   UNL     1       0.776   4.270  -5.684  0.00  0.00    +0.033 C 
ATOM     20  C   UNL     1      -0.415   5.854  -6.942  0.00  0.00    +0.003 C 
ATOM     21  C   UNL     1       1.268   7.491  -6.877  0.00  0.00    +0.038 C 
ATOM     22  C   UNL     1       0.348   4.920  -4.229  0.00  0.00    +0.149 C 
ATOM     23  O   UNL     1       1.779   5.179  -3.798  0.00  0.00    -0.334 OA
ATOM     24  C   UNL     1       1.642   6.354  -3.091  0.00  0.00    +0.187 C 
ATOM     25  C   UNL     1       1.363   6.134  -1.638  0.00  0.00    +0.056 C 
ATOM     26  C   UNL     1       2.476   6.752  -0.841  0.00  0.00    +0.005 C 
ATOM     27  C   UNL     1       3.058   7.810  -1.770  0.00  0.00    +0.005 C 
ATOM     28  C   UNL     1       2.984   7.050  -3.089  0.00  0.00    +0.056 C 
ATOM     29  O   UNL     1       0.732   7.155  -3.745  0.00  0.00    -0.330 OA
ENDROOT
BRANCH   1  30
ATOM     30  C   UNL     1      -1.322   6.590  -4.690  0.00  0.00    +0.221 C 
ATOM     31  O   UNL     1      -1.921   7.598  -5.066  0.00  0.00    -0.290 OA
BRANCH  30  32
ATOM     32  C   UNL     1      -2.229   5.512  -4.243  0.00  0.00    +0.275 C 
BRANCH  32  33
ATOM     33  O   UNL     1      -2.930   5.809  -3.060  0.00  0.00    -0.440 OA
BRANCH  33  35
ATOM     34  C   UNL     1      -2.138   7.416  -1.275  0.00  0.00    +0.121 C 
ATOM     35  C   UNL     1      -2.345   6.066  -1.839  0.00  0.00    +0.318 C 
ATOM     36  O   UNL     1      -2.156   5.022  -1.144  0.00  0.00    -0.250 OA
ENDBRANCH  33  35
ENDBRANCH  32  33
ENDBRANCH  30  32
ENDBRANCH   1  30
TORSDOF 4
ENDMDL
MODEL 2
REMARK VINA RESULT:      -8.6      2.043      8.666
REMARK  Name = 
REMARK  4 active torsions:
REMARK  status: ('A' for Active; 'I' for Inactive)
REMARK    1  A    between atoms: C_2  and  O_4
REMARK    2  A    between atoms: O_4  and  C_5
REMARK    3  A    between atoms: C_5  and  C_6
REMARK    4  A    between atoms: C_6  and  C_8
REMARK                            x       y       z     vdW  Elec       q    Type
REMARK                         _______ _______ _______ _____ _____    ______ ____
ROOT
ATOM      1  C   UNL     1       4.426   6.357 -10.366  0.00  0.00    +0.174 C 
ATOM      2  C   UNL     1       3.844   6.449  -9.087  0.00  0.00    +0.034 C 
ATOM      3  C   UNL     1       2.757   5.254  -9.083  0.00  0.00    +0.008 C 
ATOM      4  C   UNL     1       2.775   5.309  -7.391  0.00  0.00    +0.034 C 
ATOM      5  C   UNL     1       1.355   6.060  -7.389  0.00  0.00    +0.168 C 
ATOM      6  C   UNL     1       1.518   7.309  -8.422  0.00  0.00    +0.182 C 
ATOM      7  O   UNL     1       1.400   8.390  -7.360  0.00  0.00    -0.220 OA
ATOM      8  F   UNL     1       0.514   5.311  -8.232  0.00  0.00    -0.237 F 
ATOM      9  C   UNL     1       0.734   6.179  -6.166  0.00  0.00    +0.064 C 
ATOM     10  C   UNL     1       1.418   5.223  -5.217  0.00  0.00    -0.035 C 
ATOM     11  C   UNL     1       0.847   5.191  -4.006  0.00  0.00    +0.034 C 
ATOM     12  C   UNL     1      -0.531   5.667  -3.795  0.00  0.00    +0.195 C 
ATOM     13  C   UNL     1      -1.355   5.541  -5.009  0.00  0.00    +0.038 C 
ATOM     14  O   UNL     1      -1.111   5.558  -2.672  0.00  0.00    -0.287 OA
ATOM     15  C   UNL     1       1.980   3.909  -5.668  0.00  0.00    +0.023 C 
ATOM     16  C   UNL     1       0.548   7.417  -5.362  0.00  0.00    +0.011 C 
ATOM     17  C   UNL     1      -0.665   5.603  -6.150  0.00  0.00    -0.017 C 
ATOM     18  C   UNL     1       2.133   3.838  -7.183  0.00  0.00    +0.007 C 
ATOM     19  C   UNL     1       3.971   4.216  -9.276  0.00  0.00    +0.033 C 
ATOM     20  C   UNL     1       4.971   6.007  -8.137  0.00  0.00    +0.003 C 
ATOM     21  C   UNL     1       3.163   7.479  -8.416  0.00  0.00    +0.038 C 
ATOM     22  C   UNL     1       4.403   4.762 -10.772  0.00  0.00    +0.149 C 
ATOM     23  O   UNL     1       2.976   4.855 -11.274  0.00  0.00    -0.334 OA
ATOM     24  C   UNL     1       3.044   5.967 -12.086  0.00  0.00    +0.187 C 
ATOM     25  C   UNL     1       3.402   5.638 -13.500  0.00  0.00    +0.056 C 
ATOM     26  C   UNL     1       2.276   6.080 -14.391  0.00  0.00    +0.005 C 
ATOM     27  C   UNL     1       1.569   7.166 -13.588  0.00  0.00    +0.005 C 
ATOM     28  C   UNL     1       1.650   6.541 -12.200  0.00  0.00    +0.056 C 
ATOM     29  O   UNL     1       3.855   6.901 -11.481  0.00  0.00    -0.330 OA
ENDROOT
BRANCH   1  30
ATOM     30  C   UNL     1       5.908   6.606 -10.416  0.00  0.00    +0.221 C 
ATOM     31  O   UNL     1       6.703   6.004  -9.694  0.00  0.00    -0.290 OA
BRANCH  30  32
ATOM     32  C   UNL     1       6.572   7.509 -11.379  0.00  0.00    +0.275 C 
BRANCH  32  33
ATOM     33  O   UNL     1       6.877   6.906 -12.613  0.00  0.00    -0.440 OA
BRANCH  33  35
ATOM     34  C   UNL     1       9.159   5.869 -12.268  0.00  0.00    +0.121 C 
ATOM     35  C   UNL     1       7.775   5.874 -12.786  0.00  0.00    +0.318 C 
ATOM     36  O   UNL     1       7.250   4.831 -13.281  0.00  0.00    -0.250 OA
ENDBRANCH  33  35
ENDBRANCH  32  33
ENDBRANCH  30  32
ENDBRANCH   1  30
TORSDOF 4
ENDMDL
MODEL 3
REMARK VINA RESULT:      -7.7      2.309      8.268
REMARK  Name = 
REMARK  4 active torsions:
REMARK  status: ('A' for Active; 'I' for Inactive)
REMARK    1  A    between atoms: C_2  and  O_4
REMARK    2  A    between atoms: O_4  and  C_5
REMARK    3  A    between atoms: C_5  and  C_6
REMARK    4  A    between atoms: C_6  and  C_8
REMARK                            x       y       z     vdW  Elec       q    Type
REMARK                         _______ _______ _______ _____ _____    ______ ____
ROOT
ATOM      1  C   UNL     1       3.353   6.190  -9.913  0.00  0.00    +0.174 C 
ATOM      2  C   UNL     1       3.431   6.321  -8.513  0.00  0.00    +0.034 C 
ATOM      3  C   UNL     1       2.589   5.054  -7.970  0.00  0.00    +0.008 C 
ATOM      4  C   UNL     1       3.391   5.219  -6.488  0.00  0.00    +0.034 C 
ATOM      5  C   UNL     1       2.075   5.865  -5.833  0.00  0.00    +0.168 C 
ATOM      6  C   UNL     1       1.618   7.053  -6.850  0.00  0.00    +0.182 C 
ATOM      7  O   UNL     1       1.910   8.189  -5.882  0.00  0.00    -0.220 OA
ATOM      8  F   UNL     1       1.011   5.006  -6.163  0.00  0.00    -0.237 F 
ATOM      9  C   UNL     1       2.090   6.017  -4.465  0.00  0.00    +0.064 C 
ATOM     10  C   UNL     1       3.224   5.175  -3.930  0.00  0.00    -0.035 C 
ATOM     11  C   UNL     1       3.292   5.180  -2.592  0.00  0.00    +0.034 C 
ATOM     12  C   UNL     1       2.134   5.568  -1.767  0.00  0.00    +0.195 C 
ATOM     13  C   UNL     1       0.854   5.307  -2.445  0.00  0.00    +0.038 C 
ATOM     14  O   UNL     1       2.160   5.490  -0.501  0.00  0.00    -0.287 OA
ATOM     15  C   UNL     1       3.629   3.879  -4.562  0.00  0.00    +0.023 C 
ATOM     16  C   UNL     1       2.186   7.288  -3.697  0.00  0.00    +0.011 C 
ATOM     17  C   UNL     1       0.921   5.345  -3.778  0.00  0.00    -0.017 C 
ATOM     18  C   UNL     1       3.061   3.722  -5.968  0.00  0.00    +0.007 C 
ATOM     19  C   UNL     1       3.662   4.095  -8.689  0.00  0.00    +0.033 C 
ATOM     20  C   UNL     1       4.907   6.023  -8.197  0.00  0.00    +0.003 C 
ATOM     21  C   UNL     1       3.050   7.341  -7.623  0.00  0.00    +0.038 C 
ATOM     22  C   UNL     1       3.292   4.574 -10.224  0.00  0.00    +0.149 C 
ATOM     23  O   UNL     1       1.794   4.532  -9.995  0.00  0.00    -0.334 OA
ATOM     24  C   UNL     1       1.370   5.593 -10.769  0.00  0.00    +0.187 C 
ATOM     25  C   UNL     1       1.054   5.201 -12.176  0.00  0.00    +0.056 C 
ATOM     26  C   UNL     1      -0.394   5.503 -12.440  0.00  0.00    +0.005 C 
ATOM     27  C   UNL     1      -0.741   6.584 -11.424  0.00  0.00    +0.005 C 
ATOM     28  C   UNL     1       0.038   6.057 -10.225  0.00  0.00    +0.056 C 
ATOM     29  O   UNL     1       2.279   6.619 -10.639  0.00  0.00    -0.330 OA
ENDROOT
BRANCH   1  30
ATOM     30  C   UNL     1       4.609   6.541 -10.662  0.00  0.00    +0.221 C 
ATOM     31  O   UNL     1       5.134   7.652 -10.585  0.00  0.00    -0.290 OA
BRANCH  30  32
ATOM     32  C   UNL     1       5.390   5.588 -11.478  0.00  0.00    +0.275 C 
BRANCH  32  33
ATOM     33  O   UNL     1       6.777   5.638 -11.246  0.00  0.00    -0.440 OA
BRANCH  33  35
ATOM     34  C   UNL     1       9.150   5.862 -12.091  0.00  0.00    +0.121 C 
ATOM     35  C   UNL     1       7.745   5.419 -12.201  0.00  0.00    +0.318 C 
ATOM     36  O   UNL     1       7.370   4.632 -13.123  0.00  0.00    -0.250 OA
ENDBRANCH  33  35
ENDBRANCH  32  33
ENDBRANCH  30  32
ENDBRANCH   1  30
TORSDOF 4
ENDMDL
MODEL 4
REMARK VINA RESULT:      -7.7      1.239      1.488
REMARK  Name = 
REMARK  4 active torsions:
REMARK  status: ('A' for Active; 'I' for Inactive)
REMARK    1  A    between atoms: C_2  and  O_4
REMARK    2  A    between atoms: O_4  and  C_5
REMARK    3  A    between atoms: C_5  and  C_6
REMARK    4  A    between atoms: C_6  and  C_8
REMARK                            x       y       z     vdW  Elec       q    Type
REMARK                         _______ _______ _______ _____ _____    ______ ____
ROOT
ATOM      1  C   UNL     1       1.130   6.474  -4.367  0.00  0.00    +0.174 C 
ATOM      2  C   UNL     1       1.184   6.528  -5.773  0.00  0.00    +0.034 C 
ATOM      3  C   UNL     1       2.239   5.365  -6.152  0.00  0.00    +0.008 C 
ATOM      4  C   UNL     1       1.584   5.349  -7.714  0.00  0.00    +0.034 C 
ATOM      5  C   UNL     1       2.866   6.138  -8.273  0.00  0.00    +0.168 C 
ATOM      6  C   UNL     1       3.051   7.425  -7.290  0.00  0.00    +0.182 C 
ATOM      7  O   UNL     1       2.714   8.463  -8.348  0.00  0.00    -0.220 OA
ATOM      8  F   UNL     1       3.993   5.451  -7.788  0.00  0.00    -0.237 F 
ATOM      9  C   UNL     1       2.976   6.223  -9.643  0.00  0.00    +0.064 C 
ATOM     10  C   UNL     1       2.026   5.209 -10.235  0.00  0.00    -0.035 C 
ATOM     11  C   UNL     1       2.101   5.141 -11.571  0.00  0.00    +0.034 C 
ATOM     12  C   UNL     1       3.277   5.647 -12.299  0.00  0.00    +0.195 C 
ATOM     13  C   UNL     1       4.502   5.597 -11.483  0.00  0.00    +0.038 C 
ATOM     14  O   UNL     1       3.397   5.507 -13.555  0.00  0.00    -0.287 OA
ATOM     15  C   UNL     1       1.732   3.900  -9.568  0.00  0.00    +0.023 C 
ATOM     16  C   UNL     1       2.794   7.431 -10.492  0.00  0.00    +0.011 C 
ATOM     17  C   UNL     1       4.289   5.688 -10.168  0.00  0.00    -0.017 C 
ATOM     18  C   UNL     1       2.163   3.889  -8.106  0.00  0.00    +0.007 C 
ATOM     19  C   UNL     1       1.233   4.302  -5.486  0.00  0.00    +0.033 C 
ATOM     20  C   UNL     1      -0.198   6.014  -6.215  0.00  0.00    +0.003 C 
ATOM     21  C   UNL     1       1.518   7.548  -6.681  0.00  0.00    +0.038 C 
ATOM     22  C   UNL     1       1.371   4.899  -3.954  0.00  0.00    +0.149 C 
ATOM     23  O   UNL     1       2.877   5.053  -4.031  0.00  0.00    -0.334 OA
ATOM     24  C   UNL     1       3.072   6.197  -3.285  0.00  0.00    +0.187 C 
ATOM     25  C   UNL     1       3.287   5.918  -1.832  0.00  0.00    +0.056 C 
ATOM     26  C   UNL     1       4.645   6.430  -1.444  0.00  0.00    +0.005 C 
ATOM     27  C   UNL     1       4.952   7.500  -2.485  0.00  0.00    +0.005 C 
ATOM     28  C   UNL     1       4.381   6.815  -3.721  0.00  0.00    +0.056 C 
ATOM     29  O   UNL     1       2.054   7.081  -3.566  0.00  0.00    -0.330 OA
ENDROOT
BRANCH   1  30
ATOM     30  C   UNL     1      -0.234   6.683  -3.768  0.00  0.00    +0.221 C 
ATOM     31  O   UNL     1      -1.050   7.470  -4.247  0.00  0.00    -0.290 OA
BRANCH  30  32
ATOM     32  C   UNL     1      -0.772   5.916  -2.625  0.00  0.00    +0.275 C 
BRANCH  32  33
ATOM     33  O   UNL     1      -1.792   5.011  -2.972  0.00  0.00    -0.440 OA
BRANCH  33  35
ATOM     34  C   UNL     1      -3.939   6.318  -2.684  0.00  0.00    +0.121 C 
ATOM     35  C   UNL     1      -3.055   5.370  -3.393  0.00  0.00    +0.318 C 
ATOM     36  O   UNL     1      -3.333   4.949  -4.557  0.00  0.00    -0.250 OA
ENDBRANCH  33  35
ENDBRANCH  32  33
ENDBRANCH  30  32
ENDBRANCH   1  30
TORSDOF 4
ENDMDL
MODEL 5
REMARK VINA RESULT:      -7.4      2.337      4.500
REMARK  Name = 
REMARK  4 active torsions:
REMARK  status: ('A' for Active; 'I' for Inactive)
REMARK    1  A    between atoms: C_2  and  O_4
REMARK    2  A    between atoms: O_4  and  C_5
REMARK    3  A    between atoms: C_5  and  C_6
REMARK    4  A    between atoms: C_6  and  C_8
REMARK                            x       y       z     vdW  Elec       q    Type
REMARK                         _______ _______ _______ _____ _____    ______ ____
ROOT
ATOM      1  C   UNL     1       2.755   5.581  -2.833  0.00  0.00    +0.174 C 
ATOM      2  C   UNL     1       2.939   5.338  -4.207  0.00  0.00    +0.034 C 
ATOM      3  C   UNL     1       2.077   6.507  -4.914  0.00  0.00    +0.008 C 
ATOM      4  C   UNL     1       2.990   6.263  -6.319  0.00  0.00    +0.034 C 
ATOM      5  C   UNL     1       1.756   5.495  -7.002  0.00  0.00    +0.168 C 
ATOM      6  C   UNL     1       1.286   4.372  -5.918  0.00  0.00    +0.182 C 
ATOM      7  O   UNL     1       1.702   3.177  -6.762  0.00  0.00    -0.220 OA
ATOM      8  F   UNL     1       0.631   6.318  -6.820  0.00  0.00    -0.237 F 
ATOM      9  C   UNL     1       1.876   5.230  -8.348  0.00  0.00    +0.064 C 
ATOM     10  C   UNL     1       3.002   6.085  -8.877  0.00  0.00    -0.035 C 
ATOM     11  C   UNL     1       3.166   5.973 -10.202  0.00  0.00    +0.034 C 
ATOM     12  C   UNL     1       2.090   5.454 -11.065  0.00  0.00    +0.195 C 
ATOM     13  C   UNL     1       0.754   5.700 -10.499  0.00  0.00    +0.038 C 
ATOM     14  O   UNL     1       2.202   5.427 -12.329  0.00  0.00    -0.287 OA
ATOM     15  C   UNL     1       3.298   7.449  -8.334  0.00  0.00    +0.023 C 
ATOM     16  C   UNL     1       2.089   3.906  -8.994  0.00  0.00    +0.011 C 
ATOM     17  C   UNL     1       0.727   5.777  -9.166  0.00  0.00    -0.017 C 
ATOM     18  C   UNL     1       2.625   7.691  -6.988  0.00  0.00    +0.007 C 
ATOM     19  C   UNL     1       3.048   7.580  -4.211  0.00  0.00    +0.033 C 
ATOM     20  C   UNL     1       4.418   5.689  -4.450  0.00  0.00    +0.003 C 
ATOM     21  C   UNL     1       2.673   4.228  -5.029  0.00  0.00    +0.038 C 
ATOM     22  C   UNL     1       2.593   7.211  -2.669  0.00  0.00    +0.149 C 
ATOM     23  O   UNL     1       1.115   7.152  -2.999  0.00  0.00    -0.334 OA
ATOM     24  C   UNL     1       0.690   6.138  -2.166  0.00  0.00    +0.187 C 
ATOM     25  C   UNL     1       0.255   6.628  -0.823  0.00  0.00    +0.056 C 
ATOM     26  C   UNL     1      -1.191   6.270  -0.630  0.00  0.00    +0.005 C 
ATOM     27  C   UNL     1      -1.412   5.091  -1.570  0.00  0.00    +0.005 C 
ATOM     28  C   UNL     1      -0.576   5.558  -2.756  0.00  0.00    +0.056 C 
ATOM     29  O   UNL     1       1.655   5.155  -2.146  0.00  0.00    -0.330 OA
ENDROOT
BRANCH   1  30
ATOM     30  C   UNL     1       3.970   5.363  -1.975  0.00  0.00    +0.221 C 
ATOM     31  O   UNL     1       4.587   4.297  -1.963  0.00  0.00    -0.290 OA
BRANCH  30  32
ATOM     32  C   UNL     1       4.604   6.406  -1.142  0.00  0.00    +0.275 C 
BRANCH  32  33
ATOM     33  O   UNL     1       4.329   6.287   0.233  0.00  0.00    -0.440 OA
BRANCH  33  35
ATOM     34  C   UNL     1       3.773   8.704   0.728  0.00  0.00    +0.121 C 
ATOM     35  C   UNL     1       4.208   7.344   1.108  0.00  0.00    +0.318 C 
ATOM     36  O   UNL     1       4.330   7.004   2.324  0.00  0.00    -0.250 OA
ENDBRANCH  33  35
ENDBRANCH  32  33
ENDBRANCH  30  32
ENDBRANCH   1  30
TORSDOF 4
ENDMDL
MODEL 6
REMARK VINA RESULT:      -7.1      2.305      4.587
REMARK  Name = 
REMARK  4 active torsions:
REMARK  status: ('A' for Active; 'I' for Inactive)
REMARK    1  A    between atoms: C_2  and  O_4
REMARK    2  A    between atoms: O_4  and  C_5
REMARK    3  A    between atoms: C_5  and  C_6
REMARK    4  A    between atoms: C_6  and  C_8
REMARK                            x       y       z     vdW  Elec       q    Type
REMARK                         _______ _______ _______ _____ _____    ______ ____
ROOT
ATOM      1  C   UNL     1       1.774   5.361  -5.806  0.00  0.00    +0.174 C 
ATOM      2  C   UNL     1       2.134   5.172  -7.154  0.00  0.00    +0.034 C 
ATOM      3  C   UNL     1       1.869   6.621  -7.818  0.00  0.00    +0.008 C 
ATOM      4  C   UNL     1       2.908   6.177  -9.081  0.00  0.00    +0.034 C 
ATOM      5  C   UNL     1       1.649   5.948 -10.051  0.00  0.00    +0.168 C 
ATOM      6  C   UNL     1       0.627   4.985  -9.224  0.00  0.00    +0.182 C 
ATOM      7  O   UNL     1       0.778   3.788 -10.148  0.00  0.00    -0.220 OA
ATOM      8  F   UNL     1       0.850   7.100  -9.938  0.00  0.00    -0.237 F 
ATOM      9  C   UNL     1       1.937   5.760 -11.385  0.00  0.00    +0.064 C 
ATOM     10  C   UNL     1       3.365   6.199 -11.603  0.00  0.00    -0.035 C 
ATOM     11  C   UNL     1       3.740   6.136 -12.888  0.00  0.00    +0.034 C 
ATOM     12  C   UNL     1       2.747   6.098 -13.975  0.00  0.00    +0.195 C 
ATOM     13  C   UNL     1       1.485   6.757 -13.600  0.00  0.00    +0.038 C 
ATOM     14  O   UNL     1       3.091   6.129 -15.196  0.00  0.00    -0.287 OA
ATOM     15  C   UNL     1       3.986   7.326 -10.835  0.00  0.00    +0.023 C 
ATOM     16  C   UNL     1       1.820   4.499 -12.167  0.00  0.00    +0.011 C 
ATOM     17  C   UNL     1       1.223   6.738 -12.291  0.00  0.00    -0.017 C 
ATOM     18  C   UNL     1       3.179   7.688  -9.593  0.00  0.00    +0.007 C 
ATOM     19  C   UNL     1       2.983   7.225  -6.828  0.00  0.00    +0.033 C 
ATOM     20  C   UNL     1       3.662   4.995  -7.106  0.00  0.00    +0.003 C 
ATOM     21  C   UNL     1       1.681   4.294  -8.154  0.00  0.00    +0.038 C 
ATOM     22  C   UNL     1       2.136   6.925  -5.444  0.00  0.00    +0.149 C 
ATOM     23  O   UNL     1       0.819   7.417  -6.011  0.00  0.00    -0.334 OA
ATOM     24  C   UNL     1      -0.075   6.560  -5.406  0.00  0.00    +0.187 C 
ATOM     25  C   UNL     1      -0.578   7.069  -4.093  0.00  0.00    +0.056 C 
ATOM     26  C   UNL     1      -2.069   7.232  -4.185  0.00  0.00    +0.005 C 
ATOM     27  C   UNL     1      -2.480   6.281  -5.303  0.00  0.00    +0.005 C 
ATOM     28  C   UNL     1      -1.319   6.511  -6.264  0.00  0.00    +0.056 C 
ATOM     29  O   UNL     1       0.482   5.301  -5.369  0.00  0.00    -0.330 OA
ENDROOT
BRANCH   1  30
ATOM     30  C   UNL     1       2.652   4.663  -4.804  0.00  0.00    +0.221 C 
ATOM     31  O   UNL     1       3.230   3.606  -5.056  0.00  0.00    -0.290 OA
BRANCH  30  32
ATOM     32  C   UNL     1       2.990   5.202  -3.470  0.00  0.00    +0.275 C 
BRANCH  32  33
ATOM     33  O   UNL     1       4.356   5.491  -3.298  0.00  0.00    -0.440 OA
BRANCH  33  35
ATOM     34  C   UNL     1       5.627   7.486  -4.192  0.00  0.00    +0.121 C 
ATOM     35  C   UNL     1       4.882   6.756  -3.147  0.00  0.00    +0.318 C 
ATOM     36  O   UNL     1       4.511   7.327  -2.077  0.00  0.00    -0.250 OA
ENDBRANCH  33  35
ENDBRANCH  32  33
ENDBRANCH  30  32
ENDBRANCH   1  30
TORSDOF 4
ENDMDL
MODEL 7
REMARK VINA RESULT:      -6.8      2.373      8.338
REMARK  Name = 
REMARK  4 active torsions:
REMARK  status: ('A' for Active; 'I' for Inactive)
REMARK    1  A    between atoms: C_2  and  O_4
REMARK    2  A    between atoms: O_4  and  C_5
REMARK    3  A    between atoms: C_5  and  C_6
REMARK    4  A    between atoms: C_6  and  C_8
REMARK                            x       y       z     vdW  Elec       q    Type
REMARK                         _______ _______ _______ _____ _____    ______ ____
ROOT
ATOM      1  C   UNL     1       4.328   5.816 -11.625  0.00  0.00    +0.174 C 
ATOM      2  C   UNL     1       3.422   5.576 -10.574  0.00  0.00    +0.034 C 
ATOM      3  C   UNL     1       3.942   6.556  -9.400  0.00  0.00    +0.008 C 
ATOM      4  C   UNL     1       2.407   6.444  -8.694  0.00  0.00    +0.034 C 
ATOM      5  C   UNL     1       2.983   5.452  -7.570  0.00  0.00    +0.168 C 
ATOM      6  C   UNL     1       3.787   4.290  -8.382  0.00  0.00    +0.182 C 
ATOM      7  O   UNL     1       2.831   3.168  -8.010  0.00  0.00    -0.220 OA
ATOM      8  F   UNL     1       4.140   6.067  -7.059  0.00  0.00    -0.237 F 
ATOM      9  C   UNL     1       2.143   5.180  -6.513  0.00  0.00    +0.064 C 
ATOM     10  C   UNL     1       1.038   6.209  -6.540  0.00  0.00    -0.035 C 
ATOM     11  C   UNL     1       0.193   6.095  -5.505  0.00  0.00    +0.034 C 
ATOM     12  C   UNL     1       0.576   5.372  -4.280  0.00  0.00    +0.195 C 
ATOM     13  C   UNL     1       2.031   5.391  -4.054  0.00  0.00    +0.038 C 
ATOM     14  O   UNL     1      -0.181   5.336  -3.262  0.00  0.00    -0.287 OA
ATOM     15  C   UNL     1       1.262   7.617  -6.999  0.00  0.00    +0.023 C 
ATOM     16  C   UNL     1       1.443   3.900  -6.220  0.00  0.00    +0.011 C 
ATOM     17  C   UNL     1       2.759   5.495  -5.168  0.00  0.00    -0.017 C 
ATOM     18  C   UNL     1       2.564   7.768  -7.776  0.00  0.00    +0.007 C 
ATOM     19  C   UNL     1       3.641   7.801 -10.373  0.00  0.00    +0.033 C 
ATOM     20  C   UNL     1       2.100   6.178 -11.081  0.00  0.00    +0.003 C 
ATOM     21  C   UNL     1       3.064   4.417  -9.863  0.00  0.00    +0.038 C 
ATOM     22  C   UNL     1       4.776   7.395 -11.499  0.00  0.00    +0.149 C 
ATOM     23  O   UNL     1       5.840   7.066 -10.470  0.00  0.00    -0.334 OA
ATOM     24  C   UNL     1       6.491   6.013 -11.078  0.00  0.00    +0.187 C 
ATOM     25  C   UNL     1       7.626   6.451 -11.947  0.00  0.00    +0.056 C 
ATOM     26  C   UNL     1       8.895   5.846 -11.414  0.00  0.00    +0.005 C 
ATOM     27  C   UNL     1       8.426   4.624 -10.634  0.00  0.00    +0.005 C 
ATOM     28  C   UNL     1       7.169   5.203  -9.996  0.00  0.00    +0.056 C 
ATOM     29  O   UNL     1       5.553   5.218 -11.699  0.00  0.00    -0.330 OA
ENDROOT
BRANCH   1  30
ATOM     30  C   UNL     1       3.722   5.838 -13.001  0.00  0.00    +0.221 C 
ATOM     31  O   UNL     1       4.286   6.365 -13.961  0.00  0.00    -0.290 OA
BRANCH  30  32
ATOM     32  C   UNL     1       2.460   5.164 -13.371  0.00  0.00    +0.275 C 
BRANCH  32  33
ATOM     33  O   UNL     1       1.948   5.554 -14.622  0.00  0.00    -0.440 OA
BRANCH  33  35
ATOM     34  C   UNL     1       0.634   7.652 -14.104  0.00  0.00    +0.121 C 
ATOM     35  C   UNL     1       0.854   6.372 -14.807  0.00  0.00    +0.318 C 
ATOM     36  O   UNL     1       0.124   6.018 -15.781  0.00  0.00    -0.250 OA
ENDBRANCH  33  35
ENDBRANCH  32  33
ENDBRANCH  30  32
ENDBRANCH   1  30
TORSDOF 4
ENDMDL
MODEL 8
REMARK VINA RESULT:      -6.7      2.246      7.799
REMARK  Name = 
REMARK  4 active torsions:
REMARK  status: ('A' for Active; 'I' for Inactive)
REMARK    1  A    between atoms: C_2  and  O_4
REMARK    2  A    between atoms: O_4  and  C_5
REMARK    3  A    between atoms: C_5  and  C_6
REMARK    4  A    between atoms: C_6  and  C_8
REMARK                            x       y       z     vdW  Elec       q    Type
REMARK                         _______ _______ _______ _____ _____    ______ ____
ROOT
ATOM      1  C   UNL     1       2.055   5.233  -9.717  0.00  0.00    +0.174 C 
ATOM      2  C   UNL     1       1.696   5.101  -8.362  0.00  0.00    +0.034 C 
ATOM      3  C   UNL     1       2.040   6.552  -7.740  0.00  0.00    +0.008 C 
ATOM      4  C   UNL     1       0.989   6.197  -6.460  0.00  0.00    +0.034 C 
ATOM      5  C   UNL     1       2.242   5.930  -5.490  0.00  0.00    +0.168 C 
ATOM      6  C   UNL     1       3.206   4.894  -6.296  0.00  0.00    +0.182 C 
ATOM      7  O   UNL     1       3.000   3.732  -5.338  0.00  0.00    -0.220 OA
ATOM      8  F   UNL     1       3.098   7.036  -5.641  0.00  0.00    -0.237 F 
ATOM      9  C   UNL     1       1.954   5.795  -4.151  0.00  0.00    +0.064 C 
ATOM     10  C   UNL     1       0.551   6.313  -3.936  0.00  0.00    -0.035 C 
ATOM     11  C   UNL     1       0.183   6.306  -2.648  0.00  0.00    +0.034 C 
ATOM     12  C   UNL     1       1.181   6.246  -1.566  0.00  0.00    +0.195 C 
ATOM     13  C   UNL     1       2.472   6.829  -1.967  0.00  0.00    +0.038 C 
ATOM     14  O   UNL     1       0.848   6.329  -0.344  0.00  0.00    -0.287 OA
ATOM     15  C   UNL     1      -0.015   7.449  -4.732  0.00  0.00    +0.023 C 
ATOM     16  C   UNL     1       2.012   4.552  -3.334  0.00  0.00    +0.011 C 
ATOM     17  C   UNL     1       2.724   6.760  -3.276  0.00  0.00    -0.017 C 
ATOM     18  C   UNL     1       0.799   7.734  -5.988  0.00  0.00    +0.007 C 
ATOM     19  C   UNL     1       0.951   7.185  -8.741  0.00  0.00    +0.033 C 
ATOM     20  C   UNL     1       0.160   5.002  -8.396  0.00  0.00    +0.003 C 
ATOM     21  C   UNL     1       2.110   4.229  -7.340  0.00  0.00    +0.038 C 
ATOM     22  C   UNL     1       1.772   6.803 -10.121  0.00  0.00    +0.149 C 
ATOM     23  O   UNL     1       3.116   7.242  -9.575  0.00  0.00    -0.334 OA
ATOM     24  C   UNL     1       3.962   6.323 -10.161  0.00  0.00    +0.187 C 
ATOM     25  C   UNL     1       4.481   6.769 -11.490  0.00  0.00    +0.056 C 
ATOM     26  C   UNL     1       5.978   6.857 -11.411  0.00  0.00    +0.005 C 
ATOM     27  C   UNL     1       6.348   5.918 -10.270  0.00  0.00    +0.005 C 
ATOM     28  C   UNL     1       5.207   6.234  -9.309  0.00  0.00    +0.056 C 
ATOM     29  O   UNL     1       3.339   5.094 -10.159  0.00  0.00    -0.330 OA
ENDROOT
BRANCH   1  30
ATOM     30  C   UNL     1       1.136   4.554 -10.694  0.00  0.00    +0.221 C 
ATOM     31  O   UNL     1       0.672   3.432 -10.492  0.00  0.00    -0.290 OA
BRANCH  30  32
ATOM     32  C   UNL     1       0.620   5.179 -11.930  0.00  0.00    +0.275 C 
BRANCH  32  33
ATOM     33  O   UNL     1       1.501   5.097 -13.023  0.00  0.00    -0.440 OA
BRANCH  33  35
ATOM     34  C   UNL     1       0.881   7.327 -14.044  0.00  0.00    +0.121 C 
ATOM     35  C   UNL     1       1.663   6.075 -13.981  0.00  0.00    +0.318 C 
ATOM     36  O   UNL     1       2.682   5.894 -14.714  0.00  0.00    -0.250 OA
ENDBRANCH  33  35
ENDBRANCH  32  33
ENDBRANCH  30  32
ENDBRANCH   1  30
TORSDOF 4
ENDMDL
MODEL 9
REMARK VINA RESULT:      -6.5      2.181      4.205
REMARK  Name = 
REMARK  4 active torsions:
REMARK  status: ('A' for Active; 'I' for Inactive)
REMARK    1  A    between atoms: C_2  and  O_4
REMARK    2  A    between atoms: O_4  and  C_5
REMARK    3  A    between atoms: C_5  and  C_6
REMARK    4  A    between atoms: C_6  and  C_8
REMARK                            x       y       z     vdW  Elec       q    Type
REMARK                         _______ _______ _______ _____ _____    ______ ____
ROOT
ATOM      1  C   UNL     1       2.643   5.264  -4.804  0.00  0.00    +0.174 C 
ATOM      2  C   UNL     1       2.799   5.148  -6.198  0.00  0.00    +0.034 C 
ATOM      3  C   UNL     1       2.213   6.546  -6.759  0.00  0.00    +0.008 C 
ATOM      4  C   UNL     1       3.082   6.280  -8.188  0.00  0.00    +0.034 C 
ATOM      5  C   UNL     1       1.728   5.870  -8.949  0.00  0.00    +0.168 C 
ATOM      6  C   UNL     1       1.014   4.753  -8.002  0.00  0.00    +0.182 C 
ATOM      7  O   UNL     1       1.188   3.604  -8.981  0.00  0.00    -0.220 OA
ATOM      8  F   UNL     1       0.796   6.885  -8.666  0.00  0.00    -0.237 F 
ATOM      9  C   UNL     1       1.816   5.744 -10.317  0.00  0.00    +0.064 C 
ATOM     10  C   UNL     1       3.107   6.399 -10.748  0.00  0.00    -0.035 C 
ATOM     11  C   UNL     1       3.268   6.409 -12.078  0.00  0.00    +0.034 C 
ATOM     12  C   UNL     1       2.125   6.230 -12.991  0.00  0.00    +0.195 C 
ATOM     13  C   UNL     1       0.859   6.684 -12.392  0.00  0.00    +0.038 C 
ATOM     14  O   UNL     1       2.254   6.327 -14.249  0.00  0.00    -0.287 OA
ATOM     15  C   UNL     1       3.669   7.600 -10.051  0.00  0.00    +0.023 C 
ATOM     16  C   UNL     1       1.761   4.489 -11.115  0.00  0.00    +0.011 C 
ATOM     17  C   UNL     1       0.823   6.610 -11.060  0.00  0.00    -0.017 C 
ATOM     18  C   UNL     1       3.035   7.820  -8.683  0.00  0.00    +0.007 C 
ATOM     19  C   UNL     1       3.372   7.303  -5.940  0.00  0.00    +0.033 C 
ATOM     20  C   UNL     1       4.322   5.208  -6.406  0.00  0.00    +0.003 C 
ATOM     21  C   UNL     1       2.323   4.221  -7.143  0.00  0.00    +0.038 C 
ATOM     22  C   UNL     1       2.821   6.861  -4.449  0.00  0.00    +0.149 C 
ATOM     23  O   UNL     1       1.370   7.151  -4.777  0.00  0.00    -0.334 OA
ATOM     24  C   UNL     1       0.727   6.160  -4.066  0.00  0.00    +0.187 C 
ATOM     25  C   UNL     1       0.378   6.571  -2.672  0.00  0.00    +0.056 C 
ATOM     26  C   UNL     1      -1.115   6.504  -2.515  0.00  0.00    +0.005 C 
ATOM     27  C   UNL     1      -1.558   5.514  -3.585  0.00  0.00    +0.005 C 
ATOM     28  C   UNL     1      -0.621   5.929  -4.712  0.00  0.00    +0.056 C 
ATOM     29  O   UNL     1       1.465   5.001  -4.165  0.00  0.00    -0.330 OA
ENDROOT
BRANCH   1  30
ATOM     30  C   UNL     1       3.769   4.699  -3.983  0.00  0.00    +0.221 C 
ATOM     31  O   UNL     1       4.217   3.567  -4.169  0.00  0.00    -0.290 OA
BRANCH  30  32
ATOM     32  C   UNL     1       4.512   5.452  -2.952  0.00  0.00    +0.275 C 
BRANCH  32  33
ATOM     33  O   UNL     1       4.069   5.214  -1.638  0.00  0.00    -0.440 OA
BRANCH  33  35
ATOM     34  C   UNL     1       4.296   7.521  -0.626  0.00  0.00    +0.121 C 
ATOM     35  C   UNL     1       3.667   6.191  -0.752  0.00  0.00    +0.318 C 
ATOM     36  O   UNL     1       2.576   5.916  -0.166  0.00  0.00    -0.250 OA
ENDBRANCH  33  35
ENDBRANCH  32  33
ENDBRANCH  30  32
ENDBRANCH   1  30
TORSDOF 4
ENDMDL
