MODEL 1
REMARK VINA RESULT:     -10.5      0.000      0.000
REMARK  Name = 
REMARK  5 active torsions:
REMARK  status: ('A' for Active; 'I' for Inactive)
REMARK    1  A    between atoms: C_2  and  C_4
REMARK    2  A    between atoms: C_4  and  C_5
REMARK    3  A    between atoms: C_16  and  N_17
REMARK    4  A    between atoms: C_16  and  C_38
REMARK    5  A    between atoms: C_18  and  C_20
REMARK                            x       y       z     vdW  Elec       q    Type
REMARK                         _______ _______ _______ _____ _____    ______ ____
ROOT
ATOM      1  C   UNL     1      -0.053   6.745  -2.291  0.00  0.00    +0.156 C 
ATOM      2  N   UNL     1       0.704   6.243  -3.560  0.00  0.00    -0.225 N 
ATOM      3  C   UNL     1       1.711   5.292  -3.496  0.00  0.00    +0.307 C 
ATOM      4  O   UNL     1       2.191   5.169  -4.734  0.00  0.00    -0.294 OA
ATOM      5  C   UNL     1       1.545   6.013  -5.610  0.00  0.00    +0.243 C 
ATOM      6  O   UNL     1       1.521   4.180  -2.753  0.00  0.00    -0.172 OA
ATOM      7  C   UNL     1       2.918   6.193  -2.848  0.00  0.00    +0.149 C 
ATOM      8  N   UNL     1       2.305   6.077  -1.413  0.00  0.00    -0.273 N 
ATOM      9  C   UNL     1       3.500   5.873  -0.653  0.00  0.00    +0.094 C 
ATOM     10  C   UNL     1       3.919   4.560  -1.300  0.00  0.00    +0.023 C 
ATOM     11  C   UNL     1       3.885   4.875  -2.730  0.00  0.00    +0.029 C 
ATOM     12  C   UNL     1       0.247   6.223  -4.917  0.00  0.00    +0.274 C 
ATOM     13  O   UNL     1      -0.816   6.734  -5.377  0.00  0.00    -0.270 OA
ATOM     14  C   UNL     1       0.954   6.092  -1.213  0.00  0.00    +0.244 C 
ATOM     15  O   UNL     1       0.558   6.483  -0.071  0.00  0.00    -0.273 OA
ENDROOT
BRANCH   5  16
ATOM     16  C   UNL     1       2.195   7.379  -5.703  0.00  0.00    +0.053 C 
ATOM     17  C   UNL     1       1.790   7.932  -7.065  0.00  0.00    +0.005 C 
ATOM     18  C   UNL     1       3.705   7.241  -5.751  0.00  0.00    +0.005 C 
ENDBRANCH   5  16
BRANCH   5  19
ATOM     19  N   UNL     1       1.484   5.338  -6.861  0.00  0.00    -0.173 NA
ATOM     20  C   UNL     1       2.314   4.165  -6.902  0.00  0.00    +0.249 C 
ATOM     21  O   UNL     1       1.968   3.243  -6.191  0.00  0.00    -0.273 OA
BRANCH  20  22
ATOM     22  C   UNL     1       3.107   3.925  -8.266  0.00  0.00    +0.116 C 
ATOM     23  C   UNL     1       1.929   4.549  -9.213  0.00  0.00    +0.086 C 
ATOM     24  N   UNL     1       1.877   5.917  -9.139  0.00  0.00    -0.268 NA
ATOM     25  C   UNL     1       0.676   6.442  -9.672  0.00  0.00    +0.090 C 
ATOM     26  C   UNL     1       2.971   6.600 -10.039  0.00  0.00    +0.084 C 
ATOM     27  C   UNL     1       4.175   6.002  -9.154  0.00  0.00    -0.011 C 
ATOM     28  C   UNL     1       5.437   6.134  -9.890  0.00  0.00    -0.002 A 
ATOM     29  C   UNL     1       5.477   6.112 -11.284  0.00  0.00    +0.015 A 
ATOM     30  C   UNL     1       6.537   5.459 -11.909  0.00  0.00    +0.082 A 
ATOM     31  N   UNL     1       6.062   5.015 -13.080  0.00  0.00    -0.239 NA
ATOM     32  C   UNL     1       4.710   5.133 -13.109  0.00  0.00    +0.111 A 
ATOM     33 BR   UNL     1       3.578   5.097 -14.642  0.00  0.00    -0.028 Br
ATOM     34  C   UNL     1       7.710   5.315 -11.177  0.00  0.00    +0.019 A 
ATOM     35  C   UNL     1       7.744   5.594  -9.815  0.00  0.00    +0.002 A 
ATOM     36  C   UNL     1       4.309   5.642 -11.880  0.00  0.00    +0.005 A 
ATOM     37  C   UNL     1       6.574   5.900  -9.125  0.00  0.00    -0.000 A 
ATOM     38  C   UNL     1       3.063   5.350 -11.107  0.00  0.00    +0.049 C 
ATOM     39  C   UNL     1       3.928   5.308  -8.121  0.00  0.00    -0.019 C 
ENDBRANCH  20  22
ENDBRANCH   5  19
BRANCH   1  40
ATOM     40  C   UNL     1      -1.008   5.399  -2.282  0.00  0.00    +0.029 C 
BRANCH  40  42
ATOM     41  C   UNL     1      -2.153   7.409  -2.170  0.00  0.00    +0.000 C 
ATOM     42  C   UNL     1      -2.368   6.034  -2.121  0.00  0.00    +0.002 C 
ATOM     43  C   UNL     1      -3.271   5.511  -3.207  0.00  0.00    +0.000 C 
ENDBRANCH  40  42
ENDBRANCH   1  40
TORSDOF 5
ENDMDL
MODEL 2
REMARK VINA RESULT:     -10.3      3.481      8.906
REMARK  Name = 
REMARK  5 active torsions:
REMARK  status: ('A' for Active; 'I' for Inactive)
REMARK    1  A    between atoms: C_2  and  C_4
REMARK    2  A    between atoms: C_4  and  C_5
REMARK    3  A    between atoms: C_16  and  N_17
REMARK    4  A    between atoms: C_16  and  C_38
REMARK    5  A    between atoms: C_18  and  C_20
REMARK                            x       y       z     vdW  Elec       q    Type
REMARK                         _______ _______ _______ _____ _____    ______ ____
ROOT
ATOM      1  C   UNL     1       3.500   5.181 -12.716  0.00  0.00    +0.156 C 
ATOM      2  N   UNL     1       3.330   5.528 -11.203  0.00  0.00    -0.225 N 
ATOM      3  C   UNL     1       4.106   6.487 -10.570  0.00  0.00    +0.307 C 
ATOM      4  O   UNL     1       3.760   6.458  -9.282  0.00  0.00    -0.294 OA
ATOM      5  C   UNL     1       2.793   5.508  -9.042  0.00  0.00    +0.243 C 
ATOM      6  O   UNL     1       4.299   7.680 -11.171  0.00  0.00    -0.172 OA
ATOM      7  C   UNL     1       5.530   5.681 -10.464  0.00  0.00    +0.149 C 
ATOM      8  N   UNL     1       5.865   5.970 -11.965  0.00  0.00    -0.273 N 
ATOM      9  C   UNL     1       7.258   6.275 -11.850  0.00  0.00    +0.094 C 
ATOM     10  C   UNL     1       7.115   7.500 -10.958  0.00  0.00    +0.023 C 
ATOM     11  C   UNL     1       6.276   7.010  -9.862  0.00  0.00    +0.029 C 
ATOM     12  C   UNL     1       2.166   5.377 -10.383  0.00  0.00    +0.274 C 
ATOM     13  O   UNL     1       1.079   4.804 -10.690  0.00  0.00    -0.270 OA
ATOM     14  C   UNL     1       4.892   5.970 -12.923  0.00  0.00    +0.244 C 
ATOM     15  O   UNL     1       5.271   5.721 -14.111  0.00  0.00    -0.273 OA
ENDROOT
BRANCH   5  16
ATOM     16  C   UNL     1       3.371   4.146  -8.715  0.00  0.00    +0.053 C 
ATOM     17  C   UNL     1       2.344   3.472  -7.811  0.00  0.00    +0.005 C 
ATOM     18  C   UNL     1       4.623   4.294  -7.871  0.00  0.00    +0.005 C 
ENDBRANCH   5  16
BRANCH   5  19
ATOM     19  N   UNL     1       1.959   6.023  -8.010  0.00  0.00    -0.173 NA
ATOM     20  C   UNL     1       2.416   7.288  -7.504  0.00  0.00    +0.249 C 
ATOM     21  O   UNL     1       2.341   8.227  -8.272  0.00  0.00    -0.273 OA
BRANCH  20  22
ATOM     22  C   UNL     1       2.308   7.482  -5.924  0.00  0.00    +0.116 C 
ATOM     23  C   UNL     1       0.701   7.190  -5.866  0.00  0.00    +0.086 C 
ATOM     24  N   UNL     1       0.411   5.859  -6.020  0.00  0.00    -0.268 NA
ATOM     25  C   UNL     1      -0.955   5.632  -6.307  0.00  0.00    +0.090 C 
ATOM     26  C   UNL     1       0.613   5.052  -4.685  0.00  0.00    +0.084 C 
ATOM     27  C   UNL     1       2.200   5.319  -4.678  0.00  0.00    -0.011 C 
ATOM     28  C   UNL     1       2.745   5.002  -3.354  0.00  0.00    -0.002 A 
ATOM     29  C   UNL     1       1.979   5.135  -2.196  0.00  0.00    +0.015 A 
ATOM     30  C   UNL     1       2.596   5.615  -1.043  0.00  0.00    +0.082 A 
ATOM     31  N   UNL     1       1.641   6.245  -0.345  0.00  0.00    -0.239 NA
ATOM     32  C   UNL     1       0.532   6.402  -1.111  0.00  0.00    +0.111 A 
ATOM     33 BR   UNL     1      -1.237   6.796  -0.519  0.00  0.00    -0.028 Br
ATOM     34  C   UNL     1       3.974   5.459  -0.951  0.00  0.00    +0.019 A 
ATOM     35  C   UNL     1       4.725   5.062  -2.052  0.00  0.00    +0.002 A 
ATOM     36  C   UNL     1       0.814   5.879  -2.367  0.00  0.00    +0.005 A 
ATOM     37  C   UNL     1       4.133   4.937  -3.306  0.00  0.00    -0.000 A 
ATOM     38  C   UNL     1       0.336   6.346  -3.705  0.00  0.00    +0.049 C 
ATOM     39  C   UNL     1       2.747   5.956  -5.630  0.00  0.00    -0.019 C 
ENDBRANCH  20  22
ENDBRANCH   5  19
BRANCH   1  40
ATOM     40  C   UNL     1       2.628   6.512 -13.157  0.00  0.00    +0.029 C 
BRANCH  40  42
ATOM     41  C   UNL     1       1.599   4.645 -14.064  0.00  0.00    +0.000 C 
ATOM     42  C   UNL     1       1.903   5.970 -14.366  0.00  0.00    +0.002 C 
ATOM     43  C   UNL     1       0.699   6.835 -14.627  0.00  0.00    +0.000 C 
ENDBRANCH  40  42
ENDBRANCH   1  40
TORSDOF 5
ENDMDL
MODEL 3
REMARK VINA RESULT:      -9.6      5.012      9.750
REMARK  Name = 
REMARK  5 active torsions:
REMARK  status: ('A' for Active; 'I' for Inactive)
REMARK    1  A    between atoms: C_2  and  C_4
REMARK    2  A    between atoms: C_4  and  C_5
REMARK    3  A    between atoms: C_16  and  N_17
REMARK    4  A    between atoms: C_16  and  C_38
REMARK    5  A    between atoms: C_18  and  C_20
REMARK                            x       y       z     vdW  Elec       q    Type
REMARK                         _______ _______ _______ _____ _____    ______ ____
ROOT
ATOM      1  C   UNL     1      -0.056   4.908  -4.042  0.00  0.00    +0.156 C 
ATOM      2  N   UNL     1       1.212   5.526  -3.373  0.00  0.00    -0.225 N 
ATOM      3  C   UNL     1       1.932   6.557  -3.958  0.00  0.00    +0.307 C 
ATOM      4  O   UNL     1       2.987   6.772  -3.171  0.00  0.00    -0.294 OA
ATOM      5  C   UNL     1       2.994   5.913  -2.094  0.00  0.00    +0.243 C 
ATOM      6  O   UNL     1       1.269   7.616  -4.469  0.00  0.00    -0.172 OA
ATOM      7  C   UNL     1       2.683   5.737  -5.163  0.00  0.00    +0.149 C 
ATOM      8  N   UNL     1       1.389   5.740  -6.042  0.00  0.00    -0.273 N 
ATOM      9  C   UNL     1       1.965   6.014  -7.323  0.00  0.00    +0.094 C 
ATOM     10  C   UNL     1       2.538   7.384  -6.988  0.00  0.00    +0.023 C 
ATOM     11  C   UNL     1       3.306   7.127  -5.767  0.00  0.00    +0.029 C 
ATOM     12  C   UNL     1       1.554   5.564  -1.983  0.00  0.00    +0.274 C 
ATOM     13  O   UNL     1       0.957   4.982  -1.029  0.00  0.00    -0.270 OA
ATOM     14  C   UNL     1       0.150   5.600  -5.485  0.00  0.00    +0.244 C 
ATOM     15  O   UNL     1      -0.758   5.129  -6.240  0.00  0.00    -0.273 OA
ENDROOT
BRANCH   5  16
ATOM     16  C   UNL     1       3.719   4.613  -2.380  0.00  0.00    +0.053 C 
ATOM     17  C   UNL     1       4.225   4.121  -1.029  0.00  0.00    +0.005 C 
ATOM     18  C   UNL     1       4.961   4.874  -3.211  0.00  0.00    +0.005 C 
ENDBRANCH   5  16
BRANCH   5  19
ATOM     19  N   UNL     1       3.549   6.632  -0.999  0.00  0.00    -0.173 NA
ATOM     20  C   UNL     1       2.865   7.869  -0.741  0.00  0.00    +0.249 C 
ATOM     21  O   UNL     1       1.728   7.773  -0.327  0.00  0.00    -0.273 OA
BRANCH  20  22
ATOM     22  C   UNL     1       3.796   9.110  -0.366  0.00  0.00    +0.116 C 
ATOM     23  C   UNL     1       2.561  10.044   0.159  0.00  0.00    +0.086 C 
ATOM     24  N   UNL     1       2.094   9.644   1.384  0.00  0.00    -0.268 NA
ATOM     25  C   UNL     1       0.836  10.210   1.696  0.00  0.00    +0.090 C 
ATOM     26  C   UNL     1       2.998  10.166   2.561  0.00  0.00    +0.084 C 
ATOM     27  C   UNL     1       4.255   9.281   2.085  0.00  0.00    -0.011 C 
ATOM     28  C   UNL     1       5.471   9.757   2.752  0.00  0.00    -0.002 A 
ATOM     29  C   UNL     1       5.622  11.089   3.136  0.00  0.00    +0.015 A 
ATOM     30  C   UNL     1       6.874  11.683   2.995  0.00  0.00    +0.082 A 
ATOM     31  N   UNL     1       6.646  12.987   2.788  0.00  0.00    -0.239 NA
ATOM     32  C   UNL     1       5.327  13.195   2.542  0.00  0.00    +0.111 A 
ATOM     33 BR   UNL     1       4.379  14.846   2.636  0.00  0.00    -0.028 Br
ATOM     34  C   UNL     1       7.977  10.837   2.971  0.00  0.00    +0.019 A 
ATOM     35  C   UNL     1       7.821   9.460   2.854  0.00  0.00    +0.002 A 
ATOM     36  C   UNL     1       4.699  11.956   2.557  0.00  0.00    +0.005 A 
ATOM     37  C   UNL     1       6.564   8.906   2.627  0.00  0.00    -0.000 A 
ATOM     38  C   UNL     1       3.543  11.482   1.735  0.00  0.00    +0.049 C 
ATOM     39  C   UNL     1       4.150   8.502   1.088  0.00  0.00    -0.019 C 
ENDBRANCH  20  22
ENDBRANCH   5  19
BRANCH   1  40
ATOM     40  C   UNL     1      -0.989   6.166  -3.521  0.00  0.00    +0.029 C 
BRANCH  40  42
ATOM     41  C   UNL     1      -2.354   6.191  -1.650  0.00  0.00    +0.000 C 
ATOM     42  C   UNL     1      -2.059   5.414  -2.767  0.00  0.00    +0.002 C 
ATOM     43  C   UNL     1      -3.228   5.192  -3.690  0.00  0.00    +0.000 C 
ENDBRANCH  40  42
ENDBRANCH   1  40
TORSDOF 5
ENDMDL
MODEL 4
REMARK VINA RESULT:      -9.2      3.320      9.134
REMARK  Name = 
REMARK  5 active torsions:
REMARK  status: ('A' for Active; 'I' for Inactive)
REMARK    1  A    between atoms: C_2  and  C_4
REMARK    2  A    between atoms: C_4  and  C_5
REMARK    3  A    between atoms: C_16  and  N_17
REMARK    4  A    between atoms: C_16  and  C_38
REMARK    5  A    between atoms: C_18  and  C_20
REMARK                            x       y       z     vdW  Elec       q    Type
REMARK                         _______ _______ _______ _____ _____    ______ ____
ROOT
ATOM      1  C   UNL     1       3.011   5.126 -11.899  0.00  0.00    +0.156 C 
ATOM      2  N   UNL     1       3.371   5.852 -10.565  0.00  0.00    -0.225 N 
ATOM      3  C   UNL     1       4.507   6.633 -10.428  0.00  0.00    +0.307 C 
ATOM      4  O   UNL     1       4.547   7.018  -9.152  0.00  0.00    -0.294 OA
ATOM      5  C   UNL     1       3.485   6.509  -8.440  0.00  0.00    +0.243 C 
ATOM      6  O   UNL     1       4.812   7.529 -11.392  0.00  0.00    -0.172 OA
ATOM      7  C   UNL     1       5.656   5.465 -10.373  0.00  0.00    +0.149 C 
ATOM      8  N   UNL     1       5.610   5.273 -11.925  0.00  0.00    -0.273 N 
ATOM      9  C   UNL     1       7.009   5.136 -12.196  0.00  0.00    +0.094 C 
ATOM     10  C   UNL     1       7.435   6.516 -11.713  0.00  0.00    +0.023 C 
ATOM     11  C   UNL     1       6.848   6.589 -10.373  0.00  0.00    +0.029 C 
ATOM     12  C   UNL     1       2.489   6.275  -9.519  0.00  0.00    +0.274 C 
ATOM     13  O   UNL     1       1.253   6.023  -9.407  0.00  0.00    -0.270 OA
ATOM     14  C   UNL     1       4.436   5.359 -12.618  0.00  0.00    +0.244 C 
ATOM     15  O   UNL     1       4.387   4.733 -13.723  0.00  0.00    -0.273 OA
ENDROOT
BRANCH   5  16
ATOM     16  C   UNL     1       3.774   5.149  -7.835  0.00  0.00    +0.053 C 
ATOM     17  C   UNL     1       5.285   4.972  -7.934  0.00  0.00    +0.005 C 
ATOM     18  C   UNL     1       3.177   4.053  -8.697  0.00  0.00    +0.005 C 
ENDBRANCH   5  16
BRANCH   5  19
ATOM     19  N   UNL     1       3.134   7.487  -7.468  0.00  0.00    -0.173 NA
ATOM     20  C   UNL     1       3.302   7.019  -6.120  0.00  0.00    +0.249 C 
ATOM     21  O   UNL     1       4.446   6.822  -5.763  0.00  0.00    -0.273 OA
BRANCH  20  22
ATOM     22  C   UNL     1       2.161   7.447  -5.090  0.00  0.00    +0.116 C 
ATOM     23  C   UNL     1       1.007   6.518  -5.782  0.00  0.00    +0.086 C 
ATOM     24  N   UNL     1       1.175   5.188  -5.498  0.00  0.00    -0.268 NA
ATOM     25  C   UNL     1       0.407   4.352  -6.343  0.00  0.00    +0.090 C 
ATOM     26  C   UNL     1       0.631   4.813  -4.071  0.00  0.00    +0.084 C 
ATOM     27  C   UNL     1       1.734   5.724  -3.332  0.00  0.00    -0.011 C 
ATOM     28  C   UNL     1       1.344   5.927  -1.933  0.00  0.00    -0.002 A 
ATOM     29  C   UNL     1       0.006   5.941  -1.540  0.00  0.00    +0.015 A 
ATOM     30  C   UNL     1      -0.388   6.848  -0.559  0.00  0.00    +0.082 A 
ATOM     31  N   UNL     1      -1.673   7.134  -0.812  0.00  0.00    -0.239 NA
ATOM     32  C   UNL     1      -2.024   6.657  -2.033  0.00  0.00    +0.111 A 
ATOM     33 BR   UNL     1      -3.787   6.369  -2.699  0.00  0.00    -0.028 Br
ATOM     34  C   UNL     1       0.595   7.311   0.307  0.00  0.00    +0.019 A 
ATOM     35  C   UNL     1       1.942   7.067   0.057  0.00  0.00    +0.002 A 
ATOM     36  C   UNL     1      -0.895   6.073  -2.593  0.00  0.00    +0.005 A 
ATOM     37  C   UNL     1       2.345   6.467  -1.132  0.00  0.00    -0.000 A 
ATOM     38  C   UNL     1      -0.479   6.029  -4.030  0.00  0.00    +0.049 C 
ATOM     39  C   UNL     1       2.615   6.338  -4.008  0.00  0.00    -0.019 C 
ENDBRANCH  20  22
ENDBRANCH   5  19
BRANCH   1  40
ATOM     40  C   UNL     1       2.409   6.524 -12.540  0.00  0.00    +0.029 C 
BRANCH  40  42
ATOM     41  C   UNL     1       0.183   7.163 -12.590  0.00  0.00    +0.000 C 
ATOM     42  C   UNL     1       1.007   6.080 -12.885  0.00  0.00    +0.002 C 
ATOM     43  C   UNL     1       0.982   5.660 -14.331  0.00  0.00    +0.000 C 
ENDBRANCH  40  42
ENDBRANCH   1  40
TORSDOF 5
ENDMDL
MODEL 5
REMARK VINA RESULT:      -9.1      3.544      9.597
REMARK  Name = 
REMARK  5 active torsions:
REMARK  status: ('A' for Active; 'I' for Inactive)
REMARK    1  A    between atoms: C_2  and  C_4
REMARK    2  A    between atoms: C_4  and  C_5
REMARK    3  A    between atoms: C_16  and  N_17
REMARK    4  A    between atoms: C_16  and  C_38
REMARK    5  A    between atoms: C_18  and  C_20
REMARK                            x       y       z     vdW  Elec       q    Type
REMARK                         _______ _______ _______ _____ _____    ______ ____
ROOT
ATOM      1  C   UNL     1       4.568   6.619 -13.160  0.00  0.00    +0.156 C 
ATOM      2  N   UNL     1       3.874   6.167 -11.837  0.00  0.00    -0.225 N 
ATOM      3  C   UNL     1       2.883   5.197 -11.813  0.00  0.00    +0.307 C 
ATOM      4  O   UNL     1       2.457   5.127 -10.551  0.00  0.00    -0.294 OA
ATOM      5  C   UNL     1       3.122   6.023  -9.745  0.00  0.00    +0.243 C 
ATOM      6  O   UNL     1       3.063   4.054 -12.508  0.00  0.00    -0.172 OA
ATOM      7  C   UNL     1       1.634   6.045 -12.452  0.00  0.00    +0.149 C 
ATOM      8  N   UNL     1       2.189   5.869 -13.904  0.00  0.00    -0.273 N 
ATOM      9  C   UNL     1       0.967   5.608 -14.603  0.00  0.00    +0.094 C 
ATOM     10  C   UNL     1       0.600   4.322 -13.876  0.00  0.00    +0.023 C 
ATOM     11  C   UNL     1       0.688   4.707 -12.465  0.00  0.00    +0.029 C 
ATOM     12  C   UNL     1       4.387   6.220 -10.502  0.00  0.00    +0.274 C 
ATOM     13  O   UNL     1       5.458   6.772 -10.111  0.00  0.00    -0.270 OA
ATOM     14  C   UNL     1       3.530   5.897 -14.161  0.00  0.00    +0.244 C 
ATOM     15  O   UNL     1       3.871   6.238 -15.337  0.00  0.00    -0.273 OA
ENDROOT
BRANCH   5  16
ATOM     16  C   UNL     1       2.451   7.382  -9.691  0.00  0.00    +0.053 C 
ATOM     17  C   UNL     1       2.834   7.972  -8.339  0.00  0.00    +0.005 C 
ATOM     18  C   UNL     1       0.943   7.222  -9.655  0.00  0.00    +0.005 C 
ENDBRANCH   5  16
BRANCH   5  19
ATOM     19  N   UNL     1       3.248   5.412  -8.467  0.00  0.00    -0.173 NA
ATOM     20  C   UNL     1       2.520   4.177  -8.367  0.00  0.00    +0.249 C 
ATOM     21  O   UNL     1       2.937   3.256  -9.041  0.00  0.00    -0.273 OA
BRANCH  20  22
ATOM     22  C   UNL     1       1.758   3.931  -6.986  0.00  0.00    +0.116 C 
ATOM     23  C   UNL     1       2.967   4.531  -6.062  0.00  0.00    +0.086 C 
ATOM     24  N   UNL     1       3.034   5.899  -6.123  0.00  0.00    -0.268 NA
ATOM     25  C   UNL     1       4.253   6.404  -5.615  0.00  0.00    +0.090 C 
ATOM     26  C   UNL     1       1.970   6.585  -5.189  0.00  0.00    +0.084 C 
ATOM     27  C   UNL     1       0.737   6.011  -6.049  0.00  0.00    -0.011 C 
ATOM     28  C   UNL     1      -0.504   6.150  -5.280  0.00  0.00    -0.002 A 
ATOM     29  C   UNL     1      -0.509   6.115  -3.886  0.00  0.00    +0.015 A 
ATOM     30  C   UNL     1      -1.561   5.467  -3.243  0.00  0.00    +0.082 A 
ATOM     31  N   UNL     1      -1.063   5.005  -2.088  0.00  0.00    -0.239 NA
ATOM     32  C   UNL     1       0.291   5.106  -2.092  0.00  0.00    +0.111 A 
ATOM     33 BR   UNL     1       1.460   5.040  -0.588  0.00  0.00    -0.028 Br
ATOM     34  C   UNL     1      -2.754   5.345  -3.946  0.00  0.00    +0.019 A 
ATOM     35  C   UNL     1      -2.818   5.640  -5.304  0.00  0.00    +0.002 A 
ATOM     36  C   UNL     1       0.667   5.624  -3.325  0.00  0.00    +0.005 A 
ATOM     37  C   UNL     1      -1.663   5.939  -6.019  0.00  0.00    -0.000 A 
ATOM     38  C   UNL     1       1.890   5.325  -4.132  0.00  0.00    +0.049 C 
ATOM     39  C   UNL     1       0.950   5.325  -7.096  0.00  0.00    -0.019 C 
ENDBRANCH  20  22
ENDBRANCH   5  19
BRANCH   1  40
ATOM     40  C   UNL     1       5.547   5.289 -13.144  0.00  0.00    +0.029 C 
BRANCH  40  42
ATOM     41  C   UNL     1       6.653   7.306 -13.419  0.00  0.00    +0.000 C 
ATOM     42  C   UNL     1       6.880   5.932 -13.444  0.00  0.00    +0.002 C 
ATOM     43  C   UNL     1       7.880   5.453 -12.425  0.00  0.00    +0.000 C 
ENDBRANCH  40  42
ENDBRANCH   1  40
TORSDOF 5
ENDMDL
MODEL 6
REMARK VINA RESULT:      -9.1      1.862      4.286
REMARK  Name = 
REMARK  5 active torsions:
REMARK  status: ('A' for Active; 'I' for Inactive)
REMARK    1  A    between atoms: C_2  and  C_4
REMARK    2  A    between atoms: C_4  and  C_5
REMARK    3  A    between atoms: C_16  and  N_17
REMARK    4  A    between atoms: C_16  and  C_38
REMARK    5  A    between atoms: C_18  and  C_20
REMARK                            x       y       z     vdW  Elec       q    Type
REMARK                         _______ _______ _______ _____ _____    ______ ____
ROOT
ATOM      1  C   UNL     1       0.823   5.014  -2.559  0.00  0.00    +0.156 C 
ATOM      2  N   UNL     1       1.093   5.428  -4.039  0.00  0.00    -0.225 N 
ATOM      3  C   UNL     1       0.341   6.396  -4.688  0.00  0.00    +0.307 C 
ATOM      4  O   UNL     1       0.779   6.430  -5.947  0.00  0.00    -0.294 OA
ATOM      5  C   UNL     1       1.785   5.514  -6.154  0.00  0.00    +0.243 C 
ATOM      6  O   UNL     1       0.074   7.558  -4.055  0.00  0.00    -0.172 OA
ATOM      7  C   UNL     1      -1.051   5.564  -4.931  0.00  0.00    +0.149 C 
ATOM      8  N   UNL     1      -1.501   5.780  -3.448  0.00  0.00    -0.273 N 
ATOM      9  C   UNL     1      -2.890   6.058  -3.653  0.00  0.00    +0.094 C 
ATOM     10  C   UNL     1      -2.714   7.324  -4.481  0.00  0.00    +0.023 C 
ATOM     11  C   UNL     1      -1.785   6.900  -5.531  0.00  0.00    +0.029 C 
ATOM     12  C   UNL     1       2.316   5.339  -4.777  0.00  0.00    +0.274 C 
ATOM     13  O   UNL     1       3.393   4.778  -4.415  0.00  0.00    -0.270 OA
ATOM     14  C   UNL     1      -0.600   5.761  -2.422  0.00  0.00    +0.244 C 
ATOM     15  O   UNL     1      -1.058   5.453  -1.277  0.00  0.00    -0.273 OA
ENDROOT
BRANCH   5  16
ATOM     16  C   UNL     1       1.267   4.153  -6.579  0.00  0.00    +0.053 C 
ATOM     17  C   UNL     1       2.419   3.493  -7.328  0.00  0.00    +0.005 C 
ATOM     18  C   UNL     1       0.153   4.309  -7.597  0.00  0.00    +0.005 C 
ENDBRANCH   5  16
BRANCH   5  19
ATOM     19  N   UNL     1       2.678   6.090  -7.100  0.00  0.00    -0.173 NA
ATOM     20  C   UNL     1       2.166   7.300  -7.683  0.00  0.00    +0.249 C 
ATOM     21  O   UNL     1       2.068   8.252  -6.935  0.00  0.00    -0.273 OA
BRANCH  20  22
ATOM     22  C   UNL     1       2.431   7.482  -9.246  0.00  0.00    +0.116 C 
ATOM     23  C   UNL     1       4.011   7.070  -9.159  0.00  0.00    +0.086 C 
ATOM     24  N   UNL     1       4.185   5.721  -8.986  0.00  0.00    -0.268 NA
ATOM     25  C   UNL     1       5.499   5.393  -8.576  0.00  0.00    +0.090 C 
ATOM     26  C   UNL     1       4.046   4.928 -10.337  0.00  0.00    +0.084 C 
ATOM     27  C   UNL     1       2.490   5.313 -10.487  0.00  0.00    -0.011 C 
ATOM     28  C   UNL     1       2.046   5.035 -11.856  0.00  0.00    -0.002 A 
ATOM     29  C   UNL     1       2.923   5.108 -12.939  0.00  0.00    +0.015 A 
ATOM     30  C   UNL     1       2.451   5.630 -14.141  0.00  0.00    +0.082 A 
ATOM     31  N   UNL     1       3.510   6.185 -14.747  0.00  0.00    -0.239 NA
ATOM     32  C   UNL     1       4.553   6.260 -13.882  0.00  0.00    +0.111 A 
ATOM     33 BR   UNL     1       6.393   6.519 -14.309  0.00  0.00    -0.028 Br
ATOM     34  C   UNL     1       1.079   5.577 -14.359  0.00  0.00    +0.019 A 
ATOM     35  C   UNL     1       0.203   5.239 -13.333  0.00  0.00    +0.002 A 
ATOM     36  C   UNL     1       4.119   5.762 -12.660  0.00  0.00    +0.005 A 
ATOM     37  C   UNL     1       0.667   5.074 -12.031  0.00  0.00    -0.000 A 
ATOM     38  C   UNL     1       4.507   6.196 -11.281  0.00  0.00    +0.049 C 
ATOM     39  C   UNL     1       1.908   5.992  -9.586  0.00  0.00    -0.019 C 
ENDBRANCH  20  22
ENDBRANCH   5  19
BRANCH   1  40
ATOM     40  C   UNL     1       1.626   6.343  -2.000  0.00  0.00    +0.029 C 
BRANCH  40  42
ATOM     41  C   UNL     1       2.250   4.341  -1.017  0.00  0.00    +0.000 C 
ATOM     42  C   UNL     1       2.477   5.712  -0.925  0.00  0.00    +0.002 C 
ATOM     43  C   UNL     1       3.910   6.117  -1.152  0.00  0.00    +0.000 C 
ENDBRANCH  40  42
ENDBRANCH   1  40
TORSDOF 5
ENDMDL
MODEL 7
REMARK VINA RESULT:      -8.9      1.928      4.215
REMARK  Name = 
REMARK  5 active torsions:
REMARK  status: ('A' for Active; 'I' for Inactive)
REMARK    1  A    between atoms: C_2  and  C_4
REMARK    2  A    between atoms: C_4  and  C_5
REMARK    3  A    between atoms: C_16  and  N_17
REMARK    4  A    between atoms: C_16  and  C_38
REMARK    5  A    between atoms: C_18  and  C_20
REMARK                            x       y       z     vdW  Elec       q    Type
REMARK                         _______ _______ _______ _____ _____    ______ ____
ROOT
ATOM      1  C   UNL     1       1.558   5.134  -3.437  0.00  0.00    +0.156 C 
ATOM      2  N   UNL     1       1.320   5.858  -4.799  0.00  0.00    -0.225 N 
ATOM      3  C   UNL     1       0.232   6.689  -5.017  0.00  0.00    +0.307 C 
ATOM      4  O   UNL     1       0.294   7.060  -6.297  0.00  0.00    -0.294 OA
ATOM      5  C   UNL     1       1.376   6.494  -6.933  0.00  0.00    +0.243 C 
ATOM      6  O   UNL     1      -0.093   7.609  -4.084  0.00  0.00    -0.172 OA
ATOM      7  C   UNL     1      -0.963   5.574  -5.137  0.00  0.00    +0.149 C 
ATOM      8  N   UNL     1      -1.027   5.400  -3.584  0.00  0.00    -0.273 N 
ATOM      9  C   UNL     1      -2.446   5.330  -3.405  0.00  0.00    +0.094 C 
ATOM     10  C   UNL     1      -2.775   6.721  -3.927  0.00  0.00    +0.023 C 
ATOM     11  C   UNL     1      -2.100   6.751  -5.227  0.00  0.00    +0.029 C 
ATOM     12  C   UNL     1       2.287   6.228  -5.788  0.00  0.00    +0.274 C 
ATOM     13  O   UNL     1       3.515   5.919  -5.816  0.00  0.00    -0.270 OA
ATOM     14  C   UNL     1       0.101   5.441  -2.816  0.00  0.00    +0.244 C 
ATOM     15  O   UNL     1       0.049   4.826  -1.704  0.00  0.00    -0.273 OA
ENDROOT
BRANCH   5  16
ATOM     16  C   UNL     1       1.065   5.141  -7.542  0.00  0.00    +0.053 C 
ATOM     17  C   UNL     1      -0.457   5.040  -7.554  0.00  0.00    +0.005 C 
ATOM     18  C   UNL     1       1.541   4.030  -6.627  0.00  0.00    +0.005 C 
ENDBRANCH   5  16
BRANCH   5  19
ATOM     19  N   UNL     1       1.834   7.444  -7.888  0.00  0.00    -0.173 NA
ATOM     20  C   UNL     1       1.711   6.976  -9.241  0.00  0.00    +0.249 C 
ATOM     21  O   UNL     1       0.577   6.845  -9.658  0.00  0.00    -0.273 OA
BRANCH  20  22
ATOM     22  C   UNL     1       2.928   7.330 -10.211  0.00  0.00    +0.116 C 
ATOM     23  C   UNL     1       4.012   6.416  -9.397  0.00  0.00    +0.086 C 
ATOM     24  N   UNL     1       3.834   5.076  -9.624  0.00  0.00    -0.268 NA
ATOM     25  C   UNL     1       4.524   4.271  -8.688  0.00  0.00    +0.090 C 
ATOM     26  C   UNL     1       4.464   4.619 -10.991  0.00  0.00    +0.084 C 
ATOM     27  C   UNL     1       3.434   5.510 -11.847  0.00  0.00    -0.011 C 
ATOM     28  C   UNL     1       3.921   5.634 -13.225  0.00  0.00    -0.002 A 
ATOM     29  C   UNL     1       5.283   5.604 -13.526  0.00  0.00    +0.015 A 
ATOM     30  C   UNL     1       5.762   6.451 -14.522  0.00  0.00    +0.082 A 
ATOM     31  N   UNL     1       7.033   6.726 -14.196  0.00  0.00    -0.239 NA
ATOM     32  C   UNL     1       7.290   6.305 -12.932  0.00  0.00    +0.111 A 
ATOM     33 BR   UNL     1       8.998   6.019 -12.133  0.00  0.00    -0.028 Br
ATOM     34  C   UNL     1       4.849   6.888 -15.475  0.00  0.00    +0.019 A 
ATOM     35  C   UNL     1       3.484   6.682 -15.306  0.00  0.00    +0.002 A 
ATOM     36  C   UNL     1       6.113   5.773 -12.421  0.00  0.00    +0.005 A 
ATOM     37  C   UNL     1       2.989   6.151 -14.119  0.00  0.00    -0.000 A 
ATOM     38  C   UNL     1       5.600   5.810 -11.016  0.00  0.00    +0.049 C 
ATOM     39  C   UNL     1       2.523   6.175 -11.265  0.00  0.00    -0.019 C 
ENDBRANCH  20  22
ENDBRANCH   5  19
BRANCH   1  40
ATOM     40  C   UNL     1       2.181   6.510  -2.771  0.00  0.00    +0.029 C 
BRANCH  40  42
ATOM     41  C   UNL     1       4.375   7.158  -2.405  0.00  0.00    +0.000 C 
ATOM     42  C   UNL     1       3.561   6.027  -2.394  0.00  0.00    +0.002 C 
ATOM     43  C   UNL     1       3.478   5.339  -1.058  0.00  0.00    +0.000 C 
ENDBRANCH  40  42
ENDBRANCH   1  40
TORSDOF 5
ENDMDL
MODEL 8
REMARK VINA RESULT:      -8.0      8.922     12.840
REMARK  Name = 
REMARK  5 active torsions:
REMARK  status: ('A' for Active; 'I' for Inactive)
REMARK    1  A    between atoms: C_2  and  C_4
REMARK    2  A    between atoms: C_4  and  C_5
REMARK    3  A    between atoms: C_16  and  N_17
REMARK    4  A    between atoms: C_16  and  C_38
REMARK    5  A    between atoms: C_18  and  C_20
REMARK                            x       y       z     vdW  Elec       q    Type
REMARK                         _______ _______ _______ _____ _____    ______ ____
ROOT
ATOM      1  C   UNL     1       8.900  14.728   0.797  0.00  0.00    +0.156 C 
ATOM      2  N   UNL     1       7.388  14.347   0.863  0.00  0.00    -0.225 N 
ATOM      3  C   UNL     1       6.589  14.284  -0.268  0.00  0.00    +0.307 C 
ATOM      4  O   UNL     1       5.353  14.023   0.159  0.00  0.00    -0.294 OA
ATOM      5  C   UNL     1       5.306  13.923   1.531  0.00  0.00    +0.243 C 
ATOM      6  O   UNL     1       7.050  13.649  -1.367  0.00  0.00    -0.172 OA
ATOM      7  C   UNL     1       6.411  15.883  -0.586  0.00  0.00    +0.149 C 
ATOM      8  N   UNL     1       7.834  15.966  -1.229  0.00  0.00    -0.273 N 
ATOM      9  C   UNL     1       7.546  16.808  -2.351  0.00  0.00    +0.094 C 
ATOM     10  C   UNL     1       6.562  15.875  -3.044  0.00  0.00    +0.023 C 
ATOM     11  C   UNL     1       5.611  15.553  -1.977  0.00  0.00    +0.029 C 
ATOM     12  C   UNL     1       6.712  13.562   1.851  0.00  0.00    +0.274 C 
ATOM     13  O   UNL     1       7.184  13.131   2.944  0.00  0.00    -0.270 OA
ATOM     14  C   UNL     1       8.885  15.253  -0.728  0.00  0.00    +0.244 C 
ATOM     15  O   UNL     1      10.045  15.720  -0.957  0.00  0.00    -0.273 OA
ENDROOT
BRANCH   5  16
ATOM     16  C   UNL     1       5.051  15.253   2.213  0.00  0.00    +0.053 C 
ATOM     17  C   UNL     1       4.432  14.908   3.563  0.00  0.00    +0.005 C 
ATOM     18  C   UNL     1       3.988  16.033   1.463  0.00  0.00    +0.005 C 
ENDBRANCH   5  16
BRANCH   5  19
ATOM     19  N   UNL     1       4.323  12.941   1.839  0.00  0.00    -0.173 NA
ATOM     20  C   UNL     1       4.405  11.786   0.988  0.00  0.00    +0.249 C 
ATOM     21  O   UNL     1       5.392  11.092   1.125  0.00  0.00    -0.273 OA
BRANCH  20  22
ATOM     22  C   UNL     1       3.010  11.179   0.507  0.00  0.00    +0.116 C 
ATOM     23  C   UNL     1       3.625   9.709   0.144  0.00  0.00    +0.086 C 
ATOM     24  N   UNL     1       3.897   8.971   1.267  0.00  0.00    -0.268 NA
ATOM     25  C   UNL     1       4.726   7.858   0.997  0.00  0.00    +0.090 C 
ATOM     26  C   UNL     1       2.606   8.293   1.856  0.00  0.00    +0.084 C 
ATOM     27  C   UNL     1       1.940   9.711   2.223  0.00  0.00    -0.011 C 
ATOM     28  C   UNL     1       0.511   9.525   2.500  0.00  0.00    -0.002 A 
ATOM     29  C   UNL     1      -0.226   8.510   1.891  0.00  0.00    +0.015 A 
ATOM     30  C   UNL     1      -1.535   8.782   1.501  0.00  0.00    +0.082 A 
ATOM     31  N   UNL     1      -1.780   7.993   0.446  0.00  0.00    -0.239 NA
ATOM     32  C   UNL     1      -0.625   7.435   0.004  0.00  0.00    +0.111 A 
ATOM     33 BR   UNL     1      -0.434   5.915  -1.132  0.00  0.00    -0.028 Br
ATOM     34  C   UNL     1      -2.189   9.819   2.157  0.00  0.00    +0.019 A 
ATOM     35  C   UNL     1      -1.494  10.689   2.990  0.00  0.00    +0.002 A 
ATOM     36  C   UNL     1       0.405   7.925   0.797  0.00  0.00    +0.005 A 
ATOM     37  C   UNL     1      -0.107  10.625   3.084  0.00  0.00    -0.000 A 
ATOM     38  C   UNL     1       1.818   8.235   0.412  0.00  0.00    +0.049 C 
ATOM     39  C   UNL     1       2.573  10.790   2.013  0.00  0.00    -0.019 C 
ENDBRANCH  20  22
ENDBRANCH   5  19
BRANCH   1  40
ATOM     40  C   UNL     1       9.302  13.201   0.316  0.00  0.00    +0.029 C 
BRANCH  40  42
ATOM     41  C   UNL     1      10.189  11.750   1.889  0.00  0.00    +0.000 C 
ATOM     42  C   UNL     1      10.483  12.935   1.219  0.00  0.00    +0.002 C 
ATOM     43  C   UNL     1      11.727  12.875   0.373  0.00  0.00    +0.000 C 
ENDBRANCH  40  42
ENDBRANCH   1  40
TORSDOF 5
ENDMDL
