MODEL 1
REMARK VINA RESULT:      -9.0      0.000      0.000
REMARK  Name = 
REMARK  14 active torsions:
REMARK  status: ('A' for Active; 'I' for Inactive)
REMARK    1  A    between atoms: C_2  and  O_4
REMARK    2  A    between atoms: O_4  and  C_5
REMARK    3  A    between atoms: C_9  and  O_10
REMARK    4  A    between atoms: O_10  and  C_11
REMARK    5  A    between atoms: C_11  and  C_13
REMARK    6  A    between atoms: C_13  and  C_15
REMARK    7  A    between atoms: C_15  and  N_16
REMARK    8  A    between atoms: C_15  and  C_25
REMARK    9  A    between atoms: C_17  and  C_19
REMARK   10  A    between atoms: C_34  and  O_35
REMARK   11  A    between atoms: O_35  and  C_36
REMARK   12  A    between atoms: C_36  and  C_38
REMARK   13  A    between atoms: C_45  and  O_46
REMARK   14  A    between atoms: O_46  and  C_47
REMARK                            x       y       z     vdW  Elec       q    Type
REMARK                         _______ _______ _______ _____ _____    ______ ____
ROOT
ATOM      1  C   UNL     1       3.972   8.206  -0.057  0.00  0.00    +0.243 C 
ATOM      2  C   UNL     1       2.835   8.453   0.890  0.00  0.00    +0.196 C 
ATOM      3  O   UNL     1       3.284   9.093   2.170  0.00  0.00    -0.292 OA
ATOM      4  C   UNL     1       1.355   8.209   0.857  0.00  0.00    +0.090 C 
ATOM      5  C   UNL     1       0.400   7.619  -0.136  0.00  0.00    +0.093 C 
ATOM      6  C   UNL     1      -1.063   7.537   0.186  0.00  0.00    +0.191 C 
ATOM      7  C   UNL     1      -1.569   8.046   1.503  0.00  0.00    +0.157 C 
ATOM      8  C   UNL     1      -0.614   8.637   2.497  0.00  0.00    +0.067 C 
ATOM      9  O   UNL     1      -2.965   7.658   1.116  0.00  0.00    -0.349 OA
ATOM     10  C   UNL     1      -2.459   7.149  -0.201  0.00  0.00    +0.185 C 
ATOM     11  C   UNL     1       0.527   7.026  -1.509  0.00  0.00    +0.201 C 
ATOM     12  C   UNL     1       1.665   6.780  -2.455  0.00  0.00    +0.170 C 
ATOM     13  C   UNL     1       3.144   7.022  -2.423  0.00  0.00    +0.048 C 
ATOM     14  C   UNL     1       3.219   6.588  -3.423  0.00  0.00    +0.007 C 
ATOM     15  C   UNL     1       4.298   6.786  -3.352  0.00  0.00    +0.007 C 
ATOM     16  O   UNL     1       1.216   6.139  -3.736  0.00  0.00    -0.222 OA
ATOM     17  C   UNL     1       2.349   6.325  -3.711  0.00  0.00    +0.082 C 
ATOM     18  C   UNL     1       3.833   6.489  -3.857  0.00  0.00    +0.189 C 
ATOM     19  C   UNL     1       4.632   7.107  -2.748  0.00  0.00    -0.009 C 
ATOM     20  C   UNL     1       6.116   7.271  -2.894  0.00  0.00    +0.029 C 
ATOM     21  C   UNL     1       2.155   8.827   1.966  0.00  0.00    +0.010 C 
ATOM     22  C   UNL     1       0.849   8.719   2.174  0.00  0.00    +0.161 C 
ATOM     23  O   UNL     1       1.805   9.309   3.167  0.00  0.00    -0.223 OA
ATOM     24  C   UNL     1       4.100   7.613  -1.429  0.00  0.00    -0.000 C 
ENDROOT
BRANCH  11  25
ATOM     25  O   UNL     1      -0.790   6.575  -2.065  0.00  0.00    -0.446 OA
BRANCH  25  26
ATOM     26  C   UNL     1      -1.394   7.289  -3.237  0.00  0.00    +0.341 C 
ATOM     27  O   UNL     1      -1.945   8.674  -3.069  0.00  0.00    -0.245 OA
BRANCH  26  28
ATOM     28  C   UNL     1      -1.447   6.617  -4.578  0.00  0.00    +0.076 A 
ATOM     29  C   UNL     1      -2.613   5.742  -4.933  0.00  0.00    +0.006 A 
ATOM     30  C   UNL     1      -2.666   5.072  -6.273  0.00  0.00    +0.000 A 
ATOM     31  C   UNL     1      -1.554   5.276  -7.259  0.00  0.00    +0.000 A 
ATOM     32  C   UNL     1      -0.389   6.151  -6.904  0.00  0.00    +0.000 A 
ATOM     33  C   UNL     1      -0.335   6.822  -5.563  0.00  0.00    +0.006 A 
ENDBRANCH  26  28
ENDBRANCH  25  26
ENDBRANCH  11  25
BRANCH   6  34
ATOM     34  O   UNL     1      -0.935   6.945  -1.185  0.00  0.00    -0.451 OA
BRANCH  34  35
ATOM     35  C   UNL     1      -1.237   5.492  -1.407  0.00  0.00    +0.317 C 
ATOM     36  O   UNL     1      -2.654   5.043  -1.608  0.00  0.00    -0.250 OA
ATOM     37  C   UNL     1      -0.122   4.490  -1.426  0.00  0.00    +0.121 C 
ENDBRANCH  34  35
ENDBRANCH   6  34
BRANCH   1  38
ATOM     38  O   UNL     1       5.291   8.657   0.499  0.00  0.00    -0.440 OA
BRANCH  38  40
ATOM     39  C   UNL     1       6.837   8.727   2.585  0.00  0.00    +0.121 C 
ATOM     40  C   UNL     1       5.857   7.993   1.718  0.00  0.00    +0.318 C 
ATOM     41  O   UNL     1       5.444   6.594   2.071  0.00  0.00    -0.250 OA
ENDBRANCH  38  40
ENDBRANCH   1  38
BRANCH  18  42
ATOM     42  O   UNL     1       4.518   6.035  -5.112  0.00  0.00    -0.446 OA
BRANCH  42  43
ATOM     43  C   UNL     1       3.708   5.499  -6.256  0.00  0.00    +0.350 C 
ATOM     44  O   UNL     1       3.326   4.049  -6.291  0.00  0.00    -0.247 OA
BRANCH  43  45
ATOM     45  C   UNL     1       3.281   6.414  -7.365  0.00  0.00    +0.273 C 
ATOM     46  O   UNL     1       2.834   7.811  -7.054  0.00  0.00    -0.209 OA
BRANCH  45  47
ATOM     47  C   UNL     1       3.300   5.931  -8.785  0.00  0.00    +0.159 C 
BRANCH  47  48
ATOM     48  C   UNL     1       2.013   5.745  -9.532  0.00  0.00    +0.000 A 
ATOM     49  C   UNL     1       1.280   6.938 -10.070  0.00  0.00    -0.003 A 
ATOM     50  C   UNL     1      -0.008   6.753 -10.817  0.00  0.00    -0.000 A 
ATOM     51  C   UNL     1      -0.562   5.374 -11.025  0.00  0.00    -0.000 A 
ATOM     52  C   UNL     1       0.171   4.182 -10.486  0.00  0.00    -0.000 A 
ATOM     53  C   UNL     1       1.458   4.367  -9.740  0.00  0.00    -0.003 A 
ENDBRANCH  47  48
BRANCH  47  54
ATOM     54  N   UNL     1       4.607   5.635  -9.458  0.00  0.00    -0.196 NA
ATOM     55  C   UNL     1       5.224   6.646 -10.379  0.00  0.00    +0.265 C 
ATOM     56  O   UNL     1       4.532   7.955 -10.626  0.00  0.00    -0.268 OA
BRANCH  55  57
ATOM     57  C   UNL     1       6.531   6.350 -11.052  0.00  0.00    +0.055 A 
ATOM     58  C   UNL     1       7.745   6.038 -10.228  0.00  0.00    +0.005 A 
ATOM     59  C   UNL     1       9.052   5.741 -10.902  0.00  0.00    +0.000 A 
ATOM     60  C   UNL     1       9.145   5.757 -12.398  0.00  0.00    +0.000 A 
ATOM     61  C   UNL     1       7.930   6.069 -13.223  0.00  0.00    +0.000 A 
ATOM     62  C   UNL     1       6.624   6.366 -12.549  0.00  0.00    +0.005 A 
ENDBRANCH  55  57
ENDBRANCH  47  54
ENDBRANCH  45  47
ENDBRANCH  43  45
ENDBRANCH  42  43
ENDBRANCH  18  42
TORSDOF 14
ENDMDL
MODEL 2
REMARK VINA RESULT:      -8.9      1.884      6.347
REMARK  Name = 
REMARK  14 active torsions:
REMARK  status: ('A' for Active; 'I' for Inactive)
REMARK    1  A    between atoms: C_2  and  O_4
REMARK    2  A    between atoms: O_4  and  C_5
REMARK    3  A    between atoms: C_9  and  O_10
REMARK    4  A    between atoms: O_10  and  C_11
REMARK    5  A    between atoms: C_11  and  C_13
REMARK    6  A    between atoms: C_13  and  C_15
REMARK    7  A    between atoms: C_15  and  N_16
REMARK    8  A    between atoms: C_15  and  C_25
REMARK    9  A    between atoms: C_17  and  C_19
REMARK   10  A    between atoms: C_34  and  O_35
REMARK   11  A    between atoms: O_35  and  C_36
REMARK   12  A    between atoms: C_36  and  C_38
REMARK   13  A    between atoms: C_45  and  O_46
REMARK   14  A    between atoms: O_46  and  C_47
REMARK                            x       y       z     vdW  Elec       q    Type
REMARK                         _______ _______ _______ _____ _____    ______ ____
ROOT
ATOM      1  C   UNL     1      -1.171   6.764  -0.365  0.00  0.00    +0.243 C 
ATOM      2  C   UNL     1      -1.412   7.838   0.654  0.00  0.00    +0.196 C 
ATOM      3  O   UNL     1      -2.862   7.979   1.009  0.00  0.00    -0.292 OA
ATOM      4  C   UNL     1      -0.541   8.805   1.402  0.00  0.00    +0.090 C 
ATOM      5  C   UNL     1       0.929   9.096   1.441  0.00  0.00    +0.093 C 
ATOM      6  C   UNL     1       1.457  10.173   2.342  0.00  0.00    +0.191 C 
ATOM      7  C   UNL     1       0.513  10.957   3.206  0.00  0.00    +0.157 C 
ATOM      8  C   UNL     1      -0.957  10.665   3.168  0.00  0.00    +0.067 C 
ATOM      9  O   UNL     1       1.667  11.747   3.749  0.00  0.00    -0.349 OA
ATOM     10  C   UNL     1       2.610  10.963   2.885  0.00  0.00    +0.185 C 
ATOM     11  C   UNL     1       2.140   8.544   0.748  0.00  0.00    +0.201 C 
ATOM     12  C   UNL     1       2.379   7.470  -0.272  0.00  0.00    +0.170 C 
ATOM     13  C   UNL     1       1.510   6.503  -1.019  0.00  0.00    +0.048 C 
ATOM     14  C   UNL     1       2.402   6.113  -1.515  0.00  0.00    +0.007 C 
ATOM     15  C   UNL     1       1.724   5.424  -2.039  0.00  0.00    +0.007 C 
ATOM     16  O   UNL     1       3.831   7.329  -0.626  0.00  0.00    -0.222 OA
ATOM     17  C   UNL     1       3.165   6.590  -1.198  0.00  0.00    +0.082 C 
ATOM     18  C   UNL     1       2.460   5.559  -2.030  0.00  0.00    +0.189 C 
ATOM     19  C   UNL     1       0.971   5.410  -1.935  0.00  0.00    -0.009 C 
ATOM     20  C   UNL     1       0.265   4.379  -2.767  0.00  0.00    +0.029 C 
ATOM     21  C   UNL     1      -2.031   8.655   1.497  0.00  0.00    +0.010 C 
ATOM     22  C   UNL     1      -1.484   9.589   2.266  0.00  0.00    +0.161 C 
ATOM     23  O   UNL     1      -2.955   9.296   2.227  0.00  0.00    -0.223 OA
ATOM     24  C   UNL     1       0.039   6.211  -1.058  0.00  0.00    -0.000 C 
ENDROOT
BRANCH  11  25
ATOM     25  O   UNL     1       3.406   9.225   1.173  0.00  0.00    -0.446 OA
BRANCH  25  26
ATOM     26  C   UNL     1       4.339   8.544   2.129  0.00  0.00    +0.341 C 
ATOM     27  O   UNL     1       4.013   7.175   2.649  0.00  0.00    -0.245 OA
BRANCH  26  28
ATOM     28  C   UNL     1       5.599   9.232   2.567  0.00  0.00    +0.076 A 
ATOM     29  C   UNL     1       6.916   8.522   2.465  0.00  0.00    +0.006 A 
ATOM     30  C   UNL     1       8.174   9.210   2.903  0.00  0.00    +0.000 A 
ATOM     31  C   UNL     1       8.117  10.608   3.443  0.00  0.00    +0.000 A 
ATOM     32  C   UNL     1       6.799  11.318   3.545  0.00  0.00    +0.000 A 
ATOM     33  C   UNL     1       5.540  10.630   3.107  0.00  0.00    +0.006 A 
ENDBRANCH  26  28
ENDBRANCH  25  26
ENDBRANCH  11  25
BRANCH   6  34
ATOM     34  O   UNL     1       2.667   9.620   1.650  0.00  0.00    -0.451 OA
BRANCH  34  35
ATOM     35  C   UNL     1       3.425  10.469   0.672  0.00  0.00    +0.317 C 
ATOM     36  O   UNL     1       3.982   9.856  -0.578  0.00  0.00    -0.250 OA
ATOM     37  C   UNL     1       3.626  11.930   0.946  0.00  0.00    +0.121 C 
ENDBRANCH  34  35
ENDBRANCH   6  34
BRANCH   1  38
ATOM     38  O   UNL     1      -2.438   6.083  -0.790  0.00  0.00    -0.440 OA
BRANCH  38  40
ATOM     39  C   UNL     1      -3.045   7.296  -3.006  0.00  0.00    +0.121 C 
ATOM     40  C   UNL     1      -2.807   6.026  -2.243  0.00  0.00    +0.318 C 
ATOM     41  O   UNL     1      -2.938   4.701  -2.933  0.00  0.00    -0.250 OA
ENDBRANCH  38  40
ENDBRANCH   1  38
BRANCH  18  42
ATOM     42  O   UNL     1       3.244   4.679  -2.957  0.00  0.00    -0.446 OA
BRANCH  42  43
ATOM     43  C   UNL     1       4.141   5.290  -3.992  0.00  0.00    +0.350 C 
ATOM     44  O   UNL     1       5.561   4.824  -4.126  0.00  0.00    -0.247 OA
BRANCH  43  45
ATOM     45  C   UNL     1       3.618   6.369  -4.895  0.00  0.00    +0.273 C 
ATOM     46  O   UNL     1       3.883   7.810  -4.572  0.00  0.00    -0.209 OA
BRANCH  45  47
ATOM     47  C   UNL     1       2.831   6.007  -6.119  0.00  0.00    +0.159 C 
BRANCH  47  48
ATOM     48  C   UNL     1       1.332   5.998  -6.071  0.00  0.00    +0.000 A 
ATOM     49  C   UNL     1       0.564   4.945  -6.815  0.00  0.00    -0.003 A 
ATOM     50  C   UNL     1      -0.935   4.936  -6.767  0.00  0.00    -0.000 A 
ATOM     51  C   UNL     1      -1.666   5.980  -5.975  0.00  0.00    -0.000 A 
ATOM     52  C   UNL     1      -0.898   7.032  -5.232  0.00  0.00    -0.000 A 
ATOM     53  C   UNL     1       0.600   7.042  -5.279  0.00  0.00    -0.003 A 
ENDBRANCH  47  48
BRANCH  47  54
ATOM     54  N   UNL     1       3.543   5.653  -7.391  0.00  0.00    -0.196 NA
ATOM     55  C   UNL     1       3.462   6.570  -8.575  0.00  0.00    +0.265 C 
ATOM     56  O   UNL     1       2.668   7.840  -8.488  0.00  0.00    -0.268 OA
BRANCH  55  57
ATOM     57  C   UNL     1       4.174   6.217  -9.847  0.00  0.00    +0.055 A 
ATOM     58  C   UNL     1       5.671   6.281  -9.912  0.00  0.00    +0.005 A 
ATOM     59  C   UNL     1       6.383   5.927 -11.184  0.00  0.00    +0.000 A 
ATOM     60  C   UNL     1       5.598   5.509 -12.391  0.00  0.00    +0.000 A 
ATOM     61  C   UNL     1       4.100   5.445 -12.327  0.00  0.00    +0.000 A 
ATOM     62  C   UNL     1       3.389   5.798 -11.055  0.00  0.00    +0.005 A 
ENDBRANCH  55  57
ENDBRANCH  47  54
ENDBRANCH  45  47
ENDBRANCH  43  45
ENDBRANCH  42  43
ENDBRANCH  18  42
TORSDOF 14
ENDMDL
MODEL 3
REMARK VINA RESULT:      -8.9      1.789      6.618
REMARK  Name = 
REMARK  14 active torsions:
REMARK  status: ('A' for Active; 'I' for Inactive)
REMARK    1  A    between atoms: C_2  and  O_4
REMARK    2  A    between atoms: O_4  and  C_5
REMARK    3  A    between atoms: C_9  and  O_10
REMARK    4  A    between atoms: O_10  and  C_11
REMARK    5  A    between atoms: C_11  and  C_13
REMARK    6  A    between atoms: C_13  and  C_15
REMARK    7  A    between atoms: C_15  and  N_16
REMARK    8  A    between atoms: C_15  and  C_25
REMARK    9  A    between atoms: C_17  and  C_19
REMARK   10  A    between atoms: C_34  and  O_35
REMARK   11  A    between atoms: O_35  and  C_36
REMARK   12  A    between atoms: C_36  and  C_38
REMARK   13  A    between atoms: C_45  and  O_46
REMARK   14  A    between atoms: O_46  and  C_47
REMARK                            x       y       z     vdW  Elec       q    Type
REMARK                         _______ _______ _______ _____ _____    ______ ____
ROOT
ATOM      1  C   UNL     1      -0.681   5.641  -2.172  0.00  0.00    +0.243 C 
ATOM      2  C   UNL     1      -0.977   6.174  -0.801  0.00  0.00    +0.196 C 
ATOM      3  O   UNL     1      -2.378   5.876  -0.359  0.00  0.00    -0.292 OA
ATOM      4  C   UNL     1      -0.198   6.937   0.230  0.00  0.00    +0.090 C 
ATOM      5  C   UNL     1       1.196   7.481   0.318  0.00  0.00    +0.093 C 
ATOM      6  C   UNL     1       1.639   8.215   1.549  0.00  0.00    +0.191 C 
ATOM      7  C   UNL     1       0.686   8.405   2.692  0.00  0.00    +0.157 C 
ATOM      8  C   UNL     1      -0.709   7.861   2.604  0.00  0.00    +0.067 C 
ATOM      9  O   UNL     1       1.746   9.144   3.453  0.00  0.00    -0.349 OA
ATOM     10  C   UNL     1       2.699   8.953   2.311  0.00  0.00    +0.185 C 
ATOM     11  C   UNL     1       2.392   7.489  -0.588  0.00  0.00    +0.201 C 
ATOM     12  C   UNL     1       2.686   6.954  -1.959  0.00  0.00    +0.170 C 
ATOM     13  C   UNL     1       1.909   6.192  -2.990  0.00  0.00    +0.048 C 
ATOM     14  C   UNL     1       2.790   6.208  -3.638  0.00  0.00    +0.007 C 
ATOM     15  C   UNL     1       2.179   5.649  -4.362  0.00  0.00    +0.007 C 
ATOM     16  O   UNL     1       4.089   7.254  -2.402  0.00  0.00    -0.222 OA
ATOM     17  C   UNL     1       3.493   6.670  -3.191  0.00  0.00    +0.082 C 
ATOM     18  C   UNL     1       2.878   5.915  -4.332  0.00  0.00    +0.189 C 
ATOM     19  C   UNL     1       1.456   5.445  -4.241  0.00  0.00    -0.009 C 
ATOM     20  C   UNL     1       0.840   4.690  -5.382  0.00  0.00    +0.029 C 
ATOM     21  C   UNL     1      -1.620   6.467   0.321  0.00  0.00    +0.010 C 
ATOM     22  C   UNL     1      -1.151   7.127   1.373  0.00  0.00    +0.161 C 
ATOM     23  O   UNL     1      -2.546   6.583   1.284  0.00  0.00    -0.223 OA
ATOM     24  C   UNL     1       0.514   5.648  -3.079  0.00  0.00    -0.000 C 
ENDROOT
BRANCH  11  25
ATOM     25  O   UNL     1       3.568   8.195   0.017  0.00  0.00    -0.446 OA
BRANCH  25  26
ATOM     26  C   UNL     1       4.659   7.407   0.677  0.00  0.00    +0.341 C 
ATOM     27  O   UNL     1       4.849   5.958   0.336  0.00  0.00    -0.245 OA
BRANCH  26  28
ATOM     28  C   UNL     1       5.561   8.066   1.679  0.00  0.00    +0.076 A 
ATOM     29  C   UNL     1       6.220   7.246   2.749  0.00  0.00    +0.006 A 
ATOM     30  C   UNL     1       7.121   7.905   3.750  0.00  0.00    +0.000 A 
ATOM     31  C   UNL     1       7.363   9.384   3.682  0.00  0.00    +0.000 A 
ATOM     32  C   UNL     1       6.704  10.203   2.613  0.00  0.00    +0.000 A 
ATOM     33  C   UNL     1       5.803   9.544   1.611  0.00  0.00    +0.006 A 
ENDBRANCH  26  28
ENDBRANCH  25  26
ENDBRANCH  11  25
BRANCH   6  34
ATOM     34  O   UNL     1       2.834   8.223   0.643  0.00  0.00    -0.451 OA
BRANCH  34  35
ATOM     35  C   UNL     1       3.249   9.492  -0.042  0.00  0.00    +0.317 C 
ATOM     36  O   UNL     1       4.193   9.441  -1.205  0.00  0.00    -0.250 OA
ATOM     37  C   UNL     1       2.719  10.810   0.438  0.00  0.00    +0.121 C 
ENDBRANCH  34  35
ENDBRANCH   6  34
BRANCH   1  38
ATOM     38  O   UNL     1      -1.858   4.934  -2.778  0.00  0.00    -0.440 OA
BRANCH  38  40
ATOM     39  C   UNL     1      -2.570   5.816  -5.115  0.00  0.00    +0.121 C 
ATOM     40  C   UNL     1      -2.823   5.690  -3.641  0.00  0.00    +0.318 C 
ATOM     41  O   UNL     1      -4.041   6.319  -3.032  0.00  0.00    -0.250 OA
ENDBRANCH  38  40
ENDBRANCH   1  38
BRANCH  18  42
ATOM     42  O   UNL     1       3.684   5.630  -5.565  0.00  0.00    -0.446 OA
BRANCH  42  43
ATOM     43  C   UNL     1       3.266   6.210  -6.884  0.00  0.00    +0.350 C 
ATOM     44  O   UNL     1       2.853   7.650  -6.974  0.00  0.00    -0.247 OA
BRANCH  43  45
ATOM     45  C   UNL     1       3.262   5.350  -8.114  0.00  0.00    +0.273 C 
ATOM     46  O   UNL     1       2.860   3.909  -8.019  0.00  0.00    -0.209 OA
BRANCH  45  47
ATOM     47  C   UNL     1       3.661   5.933  -9.437  0.00  0.00    +0.159 C 
BRANCH  47  48
ATOM     48  C   UNL     1       5.098   6.267  -9.707  0.00  0.00    +0.000 A 
ATOM     49  C   UNL     1       6.188   5.445  -9.084  0.00  0.00    -0.003 A 
ATOM     50  C   UNL     1       7.625   5.779  -9.354  0.00  0.00    -0.000 A 
ATOM     51  C   UNL     1       7.972   6.934 -10.247  0.00  0.00    -0.000 A 
ATOM     52  C   UNL     1       6.882   7.754 -10.869  0.00  0.00    -0.000 A 
ATOM     53  C   UNL     1       5.446   7.421 -10.600  0.00  0.00    -0.003 A 
ENDBRANCH  47  48
BRANCH  47  54
ATOM     54  N   UNL     1       2.622   6.182 -10.490  0.00  0.00    -0.196 NA
ATOM     55  C   UNL     1       2.870   5.750 -11.905  0.00  0.00    +0.265 C 
ATOM     56  O   UNL     1       4.157   5.068 -12.267  0.00  0.00    -0.268 OA
BRANCH  55  57
ATOM     57  C   UNL     1       1.831   5.998 -12.958  0.00  0.00    +0.055 A 
ATOM     58  C   UNL     1       1.278   4.853 -13.752  0.00  0.00    +0.005 A 
ATOM     59  C   UNL     1       0.239   5.102 -14.805  0.00  0.00    +0.000 A 
ATOM     60  C   UNL     1      -0.247   6.497 -15.063  0.00  0.00    +0.000 A 
ATOM     61  C   UNL     1       0.307   7.644 -14.269  0.00  0.00    +0.000 A 
ATOM     62  C   UNL     1       1.345   7.394 -13.217  0.00  0.00    +0.005 A 
ENDBRANCH  55  57
ENDBRANCH  47  54
ENDBRANCH  45  47
ENDBRANCH  43  45
ENDBRANCH  42  43
ENDBRANCH  18  42
TORSDOF 14
ENDMDL
MODEL 4
REMARK VINA RESULT:      -8.8      2.075      6.175
REMARK  Name = 
REMARK  14 active torsions:
REMARK  status: ('A' for Active; 'I' for Inactive)
REMARK    1  A    between atoms: C_2  and  O_4
REMARK    2  A    between atoms: O_4  and  C_5
REMARK    3  A    between atoms: C_9  and  O_10
REMARK    4  A    between atoms: O_10  and  C_11
REMARK    5  A    between atoms: C_11  and  C_13
REMARK    6  A    between atoms: C_13  and  C_15
REMARK    7  A    between atoms: C_15  and  N_16
REMARK    8  A    between atoms: C_15  and  C_25
REMARK    9  A    between atoms: C_17  and  C_19
REMARK   10  A    between atoms: C_34  and  O_35
REMARK   11  A    between atoms: O_35  and  C_36
REMARK   12  A    between atoms: C_36  and  C_38
REMARK   13  A    between atoms: C_45  and  O_46
REMARK   14  A    between atoms: O_46  and  C_47
REMARK                            x       y       z     vdW  Elec       q    Type
REMARK                         _______ _______ _______ _____ _____    ______ ____
ROOT
ATOM      1  C   UNL     1      -0.827   6.543  -0.277  0.00  0.00    +0.243 C 
ATOM      2  C   UNL     1      -1.306   7.594   0.680  0.00  0.00    +0.196 C 
ATOM      3  O   UNL     1      -2.777   7.491   0.956  0.00  0.00    -0.292 OA
ATOM      4  C   UNL     1      -0.659   8.723   1.426  0.00  0.00    +0.090 C 
ATOM      5  C   UNL     1       0.734   9.269   1.523  0.00  0.00    +0.093 C 
ATOM      6  C   UNL     1       1.017  10.452   2.401  0.00  0.00    +0.191 C 
ATOM      7  C   UNL     1      -0.094  11.089   3.181  0.00  0.00    +0.157 C 
ATOM      8  C   UNL     1      -1.488  10.543   3.085  0.00  0.00    +0.067 C 
ATOM      9  O   UNL     1       0.873  12.087   3.744  0.00  0.00    -0.349 OA
ATOM     10  C   UNL     1       1.984  11.451   2.964  0.00  0.00    +0.185 C 
ATOM     11  C   UNL     1       2.059   8.913   0.915  0.00  0.00    +0.201 C 
ATOM     12  C   UNL     1       2.537   7.862  -0.043  0.00  0.00    +0.170 C 
ATOM     13  C   UNL     1       1.890   6.733  -0.789  0.00  0.00    +0.048 C 
ATOM     14  C   UNL     1       2.864   6.487  -1.222  0.00  0.00    +0.007 C 
ATOM     15  C   UNL     1       2.344   5.672  -1.748  0.00  0.00    +0.007 C 
ATOM     16  O   UNL     1       4.008   7.965  -0.319  0.00  0.00    -0.222 OA
ATOM     17  C   UNL     1       3.513   7.100  -0.890  0.00  0.00    +0.082 C 
ATOM     18  C   UNL     1       3.044   5.934  -1.709  0.00  0.00    +0.189 C 
ATOM     19  C   UNL     1       1.600   5.530  -1.680  0.00  0.00    -0.009 C 
ATOM     20  C   UNL     1       1.131   4.364  -2.499  0.00  0.00    +0.029 C 
ATOM     21  C   UNL     1      -2.103   8.319   1.454  0.00  0.00    +0.010 C 
ATOM     22  C   UNL     1      -1.770   9.360   2.207  0.00  0.00    +0.161 C 
ATOM     23  O   UNL     1      -3.164   8.814   2.109  0.00  0.00    -0.223 OA
ATOM     24  C   UNL     1       0.497   6.186  -0.886  0.00  0.00    -0.000 C 
ENDROOT
BRANCH  11  25
ATOM     25  O   UNL     1       3.163   9.819   1.371  0.00  0.00    -0.446 OA
BRANCH  25  26
ATOM     26  C   UNL     1       3.660  10.909   0.469  0.00  0.00    +0.341 C 
ATOM     27  O   UNL     1       2.995  11.149  -0.855  0.00  0.00    -0.245 OA
BRANCH  26  28
ATOM     28  C   UNL     1       4.821  11.761   0.890  0.00  0.00    +0.076 A 
ATOM     29  C   UNL     1       4.793  13.241   0.644  0.00  0.00    +0.006 A 
ATOM     30  C   UNL     1       5.954  14.092   1.065  0.00  0.00    +0.000 A 
ATOM     31  C   UNL     1       7.142  13.465   1.733  0.00  0.00    +0.000 A 
ATOM     32  C   UNL     1       7.168  11.986   1.979  0.00  0.00    +0.000 A 
ATOM     33  C   UNL     1       6.007  11.134   1.558  0.00  0.00    +0.006 A 
ENDBRANCH  26  28
ENDBRANCH  25  26
ENDBRANCH  11  25
BRANCH   6  34
ATOM     34  O   UNL     1       2.341  10.096   1.793  0.00  0.00    -0.451 OA
BRANCH  34  35
ATOM     35  C   UNL     1       3.486   9.691   2.673  0.00  0.00    +0.317 C 
ATOM     36  O   UNL     1       4.021  10.650   3.695  0.00  0.00    -0.250 OA
ATOM     37  C   UNL     1       4.096   8.329   2.531  0.00  0.00    +0.121 C 
ENDBRANCH  34  35
ENDBRANCH   6  34
BRANCH   1  38
ATOM     38  O   UNL     1      -1.932   5.636  -0.734  0.00  0.00    -0.440 OA
BRANCH  38  40
ATOM     39  C   UNL     1      -2.940   7.167  -2.575  0.00  0.00    +0.121 C 
ATOM     40  C   UNL     1      -2.523   5.805  -2.101  0.00  0.00    +0.318 C 
ATOM     41  O   UNL     1      -2.698   4.614  -2.996  0.00  0.00    -0.250 OA
ENDBRANCH  38  40
ENDBRANCH   1  38
BRANCH  18  42
ATOM     42  O   UNL     1       4.019   5.172  -2.556  0.00  0.00    -0.446 OA
BRANCH  42  43
ATOM     43  C   UNL     1       3.873   5.170  -4.049  0.00  0.00    +0.350 C 
ATOM     44  O   UNL     1       3.797   3.870  -4.795  0.00  0.00    -0.247 OA
BRANCH  43  45
ATOM     45  C   UNL     1       3.803   6.469  -4.798  0.00  0.00    +0.273 C 
ATOM     46  O   UNL     1       4.553   7.665  -4.294  0.00  0.00    -0.209 OA
BRANCH  45  47
ATOM     47  C   UNL     1       2.984   6.569  -6.051  0.00  0.00    +0.159 C 
BRANCH  47  48
ATOM     48  C   UNL     1       1.495   6.399  -5.987  0.00  0.00    +0.000 A 
ATOM     49  C   UNL     1       0.667   7.341  -5.164  0.00  0.00    -0.003 A 
ATOM     50  C   UNL     1      -0.822   7.171  -5.101  0.00  0.00    -0.000 A 
ATOM     51  C   UNL     1      -1.483   6.059  -5.861  0.00  0.00    -0.000 A 
ATOM     52  C   UNL     1      -0.654   5.117  -6.683  0.00  0.00    -0.000 A 
ATOM     53  C   UNL     1       0.834   5.286  -6.747  0.00  0.00    -0.003 A 
ENDBRANCH  47  48
BRANCH  47  54
ATOM     54  N   UNL     1       3.653   6.839  -7.365  0.00  0.00    -0.196 NA
ATOM     55  C   UNL     1       4.151   5.698  -8.202  0.00  0.00    +0.265 C 
ATOM     56  O   UNL     1       3.980   4.287  -7.723  0.00  0.00    -0.268 OA
BRANCH  55  57
ATOM     57  C   UNL     1       4.821   5.969  -9.516  0.00  0.00    +0.055 A 
ATOM     58  C   UNL     1       3.995   6.272 -10.730  0.00  0.00    +0.005 A 
ATOM     59  C   UNL     1       4.665   6.543 -12.046  0.00  0.00    +0.000 A 
ATOM     60  C   UNL     1       6.161   6.510 -12.145  0.00  0.00    +0.000 A 
ATOM     61  C   UNL     1       6.987   6.206 -10.930  0.00  0.00    +0.000 A 
ATOM     62  C   UNL     1       6.317   5.936  -9.616  0.00  0.00    +0.005 A 
ENDBRANCH  55  57
ENDBRANCH  47  54
ENDBRANCH  45  47
ENDBRANCH  43  45
ENDBRANCH  42  43
ENDBRANCH  18  42
TORSDOF 14
ENDMDL
MODEL 5
REMARK VINA RESULT:      -8.6      2.381      7.179
REMARK  Name = 
REMARK  14 active torsions:
REMARK  status: ('A' for Active; 'I' for Inactive)
REMARK    1  A    between atoms: C_2  and  O_4
REMARK    2  A    between atoms: O_4  and  C_5
REMARK    3  A    between atoms: C_9  and  O_10
REMARK    4  A    between atoms: O_10  and  C_11
REMARK    5  A    between atoms: C_11  and  C_13
REMARK    6  A    between atoms: C_13  and  C_15
REMARK    7  A    between atoms: C_15  and  N_16
REMARK    8  A    between atoms: C_15  and  C_25
REMARK    9  A    between atoms: C_17  and  C_19
REMARK   10  A    between atoms: C_34  and  O_35
REMARK   11  A    between atoms: O_35  and  C_36
REMARK   12  A    between atoms: C_36  and  C_38
REMARK   13  A    between atoms: C_45  and  O_46
REMARK   14  A    between atoms: O_46  and  C_47
REMARK                            x       y       z     vdW  Elec       q    Type
REMARK                         _______ _______ _______ _____ _____    ______ ____
ROOT
ATOM      1  C   UNL     1      -0.366   6.379  -0.318  0.00  0.00    +0.243 C 
ATOM      2  C   UNL     1      -0.981   7.374   0.620  0.00  0.00    +0.196 C 
ATOM      3  O   UNL     1      -2.443   7.125   0.845  0.00  0.00    -0.292 OA
ATOM      4  C   UNL     1      -0.477   8.562   1.386  0.00  0.00    +0.090 C 
ATOM      5  C   UNL     1       0.850   9.245   1.530  0.00  0.00    +0.093 C 
ATOM      6  C   UNL     1       0.983  10.449   2.415  0.00  0.00    +0.191 C 
ATOM      7  C   UNL     1      -0.214  10.970   3.155  0.00  0.00    +0.157 C 
ATOM      8  C   UNL     1      -1.542  10.287   3.011  0.00  0.00    +0.067 C 
ATOM      9  O   UNL     1       0.629  12.059   3.749  0.00  0.00    -0.349 OA
ATOM     10  C   UNL     1       1.825  11.538   3.009  0.00  0.00    +0.185 C 
ATOM     11  C   UNL     1       2.224   9.024   0.969  0.00  0.00    +0.201 C 
ATOM     12  C   UNL     1       2.838   8.027   0.031  0.00  0.00    +0.170 C 
ATOM     13  C   UNL     1       2.335   6.840  -0.735  0.00  0.00    +0.048 C 
ATOM     14  C   UNL     1       3.342   6.694  -1.134  0.00  0.00    +0.007 C 
ATOM     15  C   UNL     1       2.926   5.832  -1.675  0.00  0.00    +0.007 C 
ATOM     16  O   UNL     1       4.301   8.278  -0.194  0.00  0.00    -0.222 OA
ATOM     17  C   UNL     1       3.915   7.369  -0.780  0.00  0.00    +0.082 C 
ATOM     18  C   UNL     1       3.594   6.162  -1.613  0.00  0.00    +0.189 C 
ATOM     19  C   UNL     1       2.198   5.616  -1.633  0.00  0.00    -0.009 C 
ATOM     20  C   UNL     1       1.877   4.409  -2.466  0.00  0.00    +0.029 C 
ATOM     21  C   UNL     1      -1.873   8.015   1.365  0.00  0.00    +0.010 C 
ATOM     22  C   UNL     1      -1.673   9.083   2.126  0.00  0.00    +0.161 C 
ATOM     23  O   UNL     1      -3.000   8.400   1.981  0.00  0.00    -0.223 OA
ATOM     24  C   UNL     1       1.007   6.157  -0.879  0.00  0.00    -0.000 C 
ENDROOT
BRANCH  11  25
ATOM     25  O   UNL     1       3.216  10.035   1.461  0.00  0.00    -0.446 OA
BRANCH  25  26
ATOM     26  C   UNL     1       3.749  11.080   0.527  0.00  0.00    +0.341 C 
ATOM     27  O   UNL     1       3.180  11.210  -0.855  0.00  0.00    -0.245 OA
BRANCH  26  28
ATOM     28  C   UNL     1       4.852  11.994   0.973  0.00  0.00    +0.076 A 
ATOM     29  C   UNL     1       4.591  13.463   1.128  0.00  0.00    +0.006 A 
ATOM     30  C   UNL     1       5.693  14.377   1.575  0.00  0.00    +0.000 A 
ATOM     31  C   UNL     1       7.057  13.822   1.867  0.00  0.00    +0.000 A 
ATOM     32  C   UNL     1       7.316  12.353   1.712  0.00  0.00    +0.000 A 
ATOM     33  C   UNL     1       6.214  11.439   1.265  0.00  0.00    +0.006 A 
ENDBRANCH  26  28
ENDBRANCH  25  26
ENDBRANCH  11  25
BRANCH   6  34
ATOM     34  O   UNL     1       2.356  10.228   1.854  0.00  0.00    -0.451 OA
BRANCH  34  35
ATOM     35  C   UNL     1       3.507   9.952   2.775  0.00  0.00    +0.317 C 
ATOM     36  O   UNL     1       4.210   8.628   2.721  0.00  0.00    -0.250 OA
ATOM     37  C   UNL     1       3.955  11.000   3.749  0.00  0.00    +0.121 C 
ENDBRANCH  34  35
ENDBRANCH   6  34
BRANCH   1  38
ATOM     38  O   UNL     1      -1.358   5.366  -0.811  0.00  0.00    -0.440 OA
BRANCH  38  40
ATOM     39  C   UNL     1      -2.683   7.152  -2.154  0.00  0.00    +0.121 C 
ATOM     40  C   UNL     1      -2.300   5.719  -1.922  0.00  0.00    +0.318 C 
ATOM     41  O   UNL     1      -2.860   4.642  -2.803  0.00  0.00    -0.250 OA
ENDBRANCH  38  40
ENDBRANCH   1  38
BRANCH  18  42
ATOM     42  O   UNL     1       4.670   5.503  -2.424  0.00  0.00    -0.446 OA
BRANCH  42  43
ATOM     43  C   UNL     1       4.489   5.323  -3.902  0.00  0.00    +0.350 C 
ATOM     44  O   UNL     1       4.265   3.952  -4.470  0.00  0.00    -0.247 OA
BRANCH  43  45
ATOM     45  C   UNL     1       4.532   6.513  -4.814  0.00  0.00    +0.273 C 
ATOM     46  O   UNL     1       5.470   7.646  -4.523  0.00  0.00    -0.209 OA
BRANCH  45  47
ATOM     47  C   UNL     1       3.637   6.569  -6.017  0.00  0.00    +0.159 C 
BRANCH  47  48
ATOM     48  C   UNL     1       4.191   6.270  -7.378  0.00  0.00    +0.000 A 
ATOM     49  C   UNL     1       5.446   5.459  -7.515  0.00  0.00    -0.003 A 
ATOM     50  C   UNL     1       6.000   5.159  -8.876  0.00  0.00    -0.000 A 
ATOM     51  C   UNL     1       5.299   5.670 -10.101  0.00  0.00    -0.000 A 
ATOM     52  C   UNL     1       4.044   6.480  -9.963  0.00  0.00    -0.000 A 
ATOM     53  C   UNL     1       3.490   6.780  -8.603  0.00  0.00    -0.003 A 
ENDBRANCH  47  48
BRANCH  47  54
ATOM     54  N   UNL     1       2.189   6.925  -5.858  0.00  0.00    -0.196 NA
ATOM     55  C   UNL     1       1.132   5.884  -6.080  0.00  0.00    +0.265 C 
ATOM     56  O   UNL     1       1.524   4.487  -6.461  0.00  0.00    -0.268 OA
BRANCH  55  57
ATOM     57  C   UNL     1      -0.316   6.239  -5.921  0.00  0.00    +0.055 A 
ATOM     58  C   UNL     1      -0.707   7.468  -5.154  0.00  0.00    +0.005 A 
ATOM     59  C   UNL     1      -2.156   7.824  -4.995  0.00  0.00    +0.000 A 
ATOM     60  C   UNL     1      -3.214   6.950  -5.602  0.00  0.00    +0.000 A 
ATOM     61  C   UNL     1      -2.822   5.721  -6.369  0.00  0.00    +0.000 A 
ATOM     62  C   UNL     1      -1.374   5.366  -6.528  0.00  0.00    +0.005 A 
ENDBRANCH  55  57
ENDBRANCH  47  54
ENDBRANCH  45  47
ENDBRANCH  43  45
ENDBRANCH  42  43
ENDBRANCH  18  42
TORSDOF 14
ENDMDL
MODEL 6
REMARK VINA RESULT:      -8.6      2.319      6.465
REMARK  Name = 
REMARK  14 active torsions:
REMARK  status: ('A' for Active; 'I' for Inactive)
REMARK    1  A    between atoms: C_2  and  O_4
REMARK    2  A    between atoms: O_4  and  C_5
REMARK    3  A    between atoms: C_9  and  O_10
REMARK    4  A    between atoms: O_10  and  C_11
REMARK    5  A    between atoms: C_11  and  C_13
REMARK    6  A    between atoms: C_13  and  C_15
REMARK    7  A    between atoms: C_15  and  N_16
REMARK    8  A    between atoms: C_15  and  C_25
REMARK    9  A    between atoms: C_17  and  C_19
REMARK   10  A    between atoms: C_34  and  O_35
REMARK   11  A    between atoms: O_35  and  C_36
REMARK   12  A    between atoms: C_36  and  C_38
REMARK   13  A    between atoms: C_45  and  O_46
REMARK   14  A    between atoms: O_46  and  C_47
REMARK                            x       y       z     vdW  Elec       q    Type
REMARK                         _______ _______ _______ _____ _____    ______ ____
ROOT
ATOM      1  C   UNL     1      -1.346   5.960  -3.700  0.00  0.00    +0.243 C 
ATOM      2  C   UNL     1      -1.504   6.323  -2.253  0.00  0.00    +0.196 C 
ATOM      3  O   UNL     1      -2.942   6.389  -1.831  0.00  0.00    -0.292 OA
ATOM      4  C   UNL     1      -0.561   6.636  -1.129  0.00  0.00    +0.090 C 
ATOM      5  C   UNL     1       0.929   6.715  -0.987  0.00  0.00    +0.093 C 
ATOM      6  C   UNL     1       1.539   7.069   0.337  0.00  0.00    +0.191 C 
ATOM      7  C   UNL     1       0.657   7.344   1.519  0.00  0.00    +0.157 C 
ATOM      8  C   UNL     1      -0.834   7.265   1.377  0.00  0.00    +0.067 C 
ATOM      9  O   UNL     1       1.869   7.594   2.366  0.00  0.00    -0.349 OA
ATOM     10  C   UNL     1       2.752   7.319   1.184  0.00  0.00    +0.185 C 
ATOM     11  C   UNL     1       2.096   6.513  -1.909  0.00  0.00    +0.201 C 
ATOM     12  C   UNL     1       2.253   6.150  -3.356  0.00  0.00    +0.170 C 
ATOM     13  C   UNL     1       1.311   5.837  -4.479  0.00  0.00    +0.048 C 
ATOM     14  C   UNL     1       2.172   5.695  -5.137  0.00  0.00    +0.007 C 
ATOM     15  C   UNL     1       1.442   5.473  -5.928  0.00  0.00    +0.007 C 
ATOM     16  O   UNL     1       3.692   6.084  -3.777  0.00  0.00    -0.222 OA
ATOM     17  C   UNL     1       2.970   5.845  -4.637  0.00  0.00    +0.082 C 
ATOM     18  C   UNL     1       2.187   5.508  -5.873  0.00  0.00    +0.189 C 
ATOM     19  C   UNL     1       0.689   5.478  -5.825  0.00  0.00    -0.009 C 
ATOM     20  C   UNL     1      -0.095   5.141  -7.059  0.00  0.00    +0.029 C 
ATOM     21  C   UNL     1      -2.060   6.605  -1.082  0.00  0.00    +0.010 C 
ATOM     22  C   UNL     1      -1.443   6.911   0.052  0.00  0.00    +0.161 C 
ATOM     23  O   UNL     1      -2.934   6.832  -0.091  0.00  0.00    -0.223 OA
ATOM     24  C   UNL     1      -0.180   5.759  -4.623  0.00  0.00    -0.000 C 
ENDROOT
BRANCH  11  25
ATOM     25  O   UNL     1       3.413   6.725  -1.224  0.00  0.00    -0.446 OA
BRANCH  25  26
ATOM     26  C   UNL     1       4.241   7.933  -1.546  0.00  0.00    +0.341 C 
ATOM     27  O   UNL     1       5.176   7.910  -2.719  0.00  0.00    -0.245 OA
BRANCH  26  28
ATOM     28  C   UNL     1       4.135   9.165  -0.696  0.00  0.00    +0.076 A 
ATOM     29  C   UNL     1       3.348  10.346  -1.182  0.00  0.00    +0.006 A 
ATOM     30  C   UNL     1       3.242  11.577  -0.332  0.00  0.00    +0.000 A 
ATOM     31  C   UNL     1       3.922  11.627   1.005  0.00  0.00    +0.000 A 
ATOM     32  C   UNL     1       4.708  10.446   1.490  0.00  0.00    +0.000 A 
ATOM     33  C   UNL     1       4.815   9.214   0.640  0.00  0.00    +0.006 A 
ENDBRANCH  26  28
ENDBRANCH  25  26
ENDBRANCH  11  25
BRANCH   6  34
ATOM     34  O   UNL     1       2.705   6.868  -0.584  0.00  0.00    -0.451 OA
BRANCH  34  35
ATOM     35  C   UNL     1       3.709   5.790  -0.300  0.00  0.00    +0.317 C 
ATOM     36  O   UNL     1       4.872   6.068   0.605  0.00  0.00    -0.250 OA
ATOM     37  C   UNL     1       3.549   4.434  -0.922  0.00  0.00    +0.121 C 
ENDBRANCH  34  35
ENDBRANCH   6  34
BRANCH   1  38
ATOM     38  O   UNL     1      -2.664   5.748  -4.385  0.00  0.00    -0.440 OA
BRANCH  38  40
ATOM     39  C   UNL     1      -3.255   5.901  -6.910  0.00  0.00    +0.121 C 
ATOM     40  C   UNL     1      -3.024   6.570  -5.587  0.00  0.00    +0.318 C 
ATOM     41  O   UNL     1      -3.153   8.059  -5.467  0.00  0.00    -0.250 OA
ENDBRANCH  38  40
ENDBRANCH   1  38
BRANCH  18  42
ATOM     42  O   UNL     1       2.903   5.203  -7.154  0.00  0.00    -0.446 OA
BRANCH  42  43
ATOM     43  C   UNL     1       2.721   6.096  -8.346  0.00  0.00    +0.350 C 
ATOM     44  O   UNL     1       2.654   7.584  -8.165  0.00  0.00    -0.247 OA
BRANCH  43  45
ATOM     45  C   UNL     1       2.606   5.502  -9.719  0.00  0.00    +0.273 C 
ATOM     46  O   UNL     1       1.636   4.388  -9.974  0.00  0.00    -0.209 OA
BRANCH  45  47
ATOM     47  C   UNL     1       3.462   6.022 -10.835  0.00  0.00    +0.159 C 
BRANCH  47  48
ATOM     48  C   UNL     1       4.908   6.334 -10.588  0.00  0.00    +0.000 A 
ATOM     49  C   UNL     1       5.534   7.541 -11.222  0.00  0.00    -0.003 A 
ATOM     50  C   UNL     1       6.980   7.853 -10.975  0.00  0.00    -0.000 A 
ATOM     51  C   UNL     1       7.801   6.958 -10.094  0.00  0.00    -0.000 A 
ATOM     52  C   UNL     1       7.175   5.751  -9.460  0.00  0.00    -0.000 A 
ATOM     53  C   UNL     1       5.729   5.439  -9.707  0.00  0.00    -0.003 A 
ENDBRANCH  47  48
BRANCH  47  54
ATOM     54  N   UNL     1       2.872   6.230 -12.198  0.00  0.00    -0.196 NA
ATOM     55  C   UNL     1       1.529   6.884 -12.342  0.00  0.00    +0.265 C 
ATOM     56  O   UNL     1       0.777   7.328 -11.122  0.00  0.00    -0.268 OA
BRANCH  55  57
ATOM     57  C   UNL     1       0.939   7.092 -13.704  0.00  0.00    +0.055 A 
ATOM     58  C   UNL     1       0.372   5.929 -14.462  0.00  0.00    +0.005 A 
ATOM     59  C   UNL     1      -0.219   6.137 -15.826  0.00  0.00    +0.000 A 
ATOM     60  C   UNL     1      -0.242   7.510 -16.430  0.00  0.00    +0.000 A 
ATOM     61  C   UNL     1       0.325   8.674 -15.672  0.00  0.00    +0.000 A 
ATOM     62  C   UNL     1       0.916   8.464 -14.310  0.00  0.00    +0.005 A 
ENDBRANCH  55  57
ENDBRANCH  47  54
ENDBRANCH  45  47
ENDBRANCH  43  45
ENDBRANCH  42  43
ENDBRANCH  18  42
TORSDOF 14
ENDMDL
MODEL 7
REMARK VINA RESULT:      -8.6      2.262      6.328
REMARK  Name = 
REMARK  14 active torsions:
REMARK  status: ('A' for Active; 'I' for Inactive)
REMARK    1  A    between atoms: C_2  and  O_4
REMARK    2  A    between atoms: O_4  and  C_5
REMARK    3  A    between atoms: C_9  and  O_10
REMARK    4  A    between atoms: O_10  and  C_11
REMARK    5  A    between atoms: C_11  and  C_13
REMARK    6  A    between atoms: C_13  and  C_15
REMARK    7  A    between atoms: C_15  and  N_16
REMARK    8  A    between atoms: C_15  and  C_25
REMARK    9  A    between atoms: C_17  and  C_19
REMARK   10  A    between atoms: C_34  and  O_35
REMARK   11  A    between atoms: O_35  and  C_36
REMARK   12  A    between atoms: C_36  and  C_38
REMARK   13  A    between atoms: C_45  and  O_46
REMARK   14  A    between atoms: O_46  and  C_47
REMARK                            x       y       z     vdW  Elec       q    Type
REMARK                         _______ _______ _______ _____ _____    ______ ____
ROOT
ATOM      1  C   UNL     1      -0.681   6.639  -0.220  0.00  0.00    +0.243 C 
ATOM      2  C   UNL     1      -0.937   7.611   0.893  0.00  0.00    +0.196 C 
ATOM      3  O   UNL     1      -2.315   7.475   1.469  0.00  0.00    -0.292 OA
ATOM      4  C   UNL     1      -0.136   8.687   1.566  0.00  0.00    +0.090 C 
ATOM      5  C   UNL     1       1.250   9.235   1.404  0.00  0.00    +0.093 C 
ATOM      6  C   UNL     1       1.722  10.352   2.288  0.00  0.00    +0.191 C 
ATOM      7  C   UNL     1       0.808  10.919   3.333  0.00  0.00    +0.157 C 
ATOM      8  C   UNL     1      -0.578  10.370   3.496  0.00  0.00    +0.067 C 
ATOM      9  O   UNL     1       1.881  11.880   3.750  0.00  0.00    -0.349 OA
ATOM     10  C   UNL     1       2.796  11.313   2.704  0.00  0.00    +0.185 C 
ATOM     11  C   UNL     1       2.411   8.937   0.502  0.00  0.00    +0.201 C 
ATOM     12  C   UNL     1       2.665   7.965  -0.611  0.00  0.00    +0.170 C 
ATOM     13  C   UNL     1       1.866   6.889  -1.285  0.00  0.00    +0.048 C 
ATOM     14  C   UNL     1       2.722   6.685  -1.933  0.00  0.00    +0.007 C 
ATOM     15  C   UNL     1       2.096   5.908  -2.395  0.00  0.00    +0.007 C 
ATOM     16  O   UNL     1       4.045   8.101  -1.187  0.00  0.00    -0.222 OA
ATOM     17  C   UNL     1       3.432   7.278  -1.702  0.00  0.00    +0.082 C 
ATOM     18  C   UNL     1       2.790   6.172  -2.488  0.00  0.00    +0.189 C 
ATOM     19  C   UNL     1       1.383   5.754  -2.182  0.00  0.00    -0.009 C 
ATOM     20  C   UNL     1       0.740   4.649  -2.966  0.00  0.00    +0.029 C 
ATOM     21  C   UNL     1      -1.544   8.269   1.872  0.00  0.00    +0.010 C 
ATOM     22  C   UNL     1      -1.050   9.254   2.612  0.00  0.00    +0.161 C 
ATOM     23  O   UNL     1      -2.436   8.704   2.773  0.00  0.00    -0.223 OA
ATOM     24  C   UNL     1       0.479   6.340  -1.123  0.00  0.00    -0.000 C 
ENDROOT
BRANCH  11  25
ATOM     25  O   UNL     1       3.594   9.816   0.779  0.00  0.00    -0.446 OA
BRANCH  25  26
ATOM     26  C   UNL     1       3.902  10.967  -0.131  0.00  0.00    +0.341 C 
ATOM     27  O   UNL     1       3.337  10.997  -1.521  0.00  0.00    -0.245 OA
BRANCH  26  28
ATOM     28  C   UNL     1       4.776  12.089   0.348  0.00  0.00    +0.076 A 
ATOM     29  C   UNL     1       6.033  11.788   1.110  0.00  0.00    +0.006 A 
ATOM     30  C   UNL     1       6.905  12.910   1.589  0.00  0.00    +0.000 A 
ATOM     31  C   UNL     1       6.522  14.333   1.305  0.00  0.00    +0.000 A 
ATOM     32  C   UNL     1       5.266  14.633   0.543  0.00  0.00    +0.000 A 
ATOM     33  C   UNL     1       4.392  13.511   0.064  0.00  0.00    +0.006 A 
ENDBRANCH  26  28
ENDBRANCH  25  26
ENDBRANCH  11  25
BRANCH   6  34
ATOM     34  O   UNL     1       2.883  10.053   1.386  0.00  0.00    -0.451 OA
BRANCH  34  35
ATOM     35  C   UNL     1       4.170   9.543   1.964  0.00  0.00    +0.317 C 
ATOM     36  O   UNL     1       4.711  10.138   3.230  0.00  0.00    -0.250 OA
ATOM     37  C   UNL     1       4.916   8.439   1.274  0.00  0.00    +0.121 C 
ENDBRANCH  34  35
ENDBRANCH   6  34
BRANCH   1  38
ATOM     38  O   UNL     1      -1.865   5.759  -0.497  0.00  0.00    -0.440 OA
BRANCH  38  40
ATOM     39  C   UNL     1      -3.165   7.170  -2.249  0.00  0.00    +0.121 C 
ATOM     40  C   UNL     1      -2.582   5.859  -1.811  0.00  0.00    +0.318 C 
ATOM     41  O   UNL     1      -2.716   4.648  -2.686  0.00  0.00    -0.250 OA
ENDBRANCH  38  40
ENDBRANCH   1  38
BRANCH  18  42
ATOM     42  O   UNL     1       3.556   5.484  -3.578  0.00  0.00    -0.446 OA
BRANCH  42  43
ATOM     43  C   UNL     1       3.273   5.813  -5.015  0.00  0.00    +0.350 C 
ATOM     44  O   UNL     1       3.701   7.134  -5.581  0.00  0.00    -0.247 OA
BRANCH  43  45
ATOM     45  C   UNL     1       2.561   4.819  -5.885  0.00  0.00    +0.273 C 
ATOM     46  O   UNL     1       2.886   3.359  -5.776  0.00  0.00    -0.209 OA
BRANCH  45  47
ATOM     47  C   UNL     1       1.525   5.287  -6.864  0.00  0.00    +0.159 C 
BRANCH  47  48
ATOM     48  C   UNL     1       0.236   5.870  -6.369  0.00  0.00    +0.000 A 
ATOM     49  C   UNL     1      -1.071   5.273  -6.801  0.00  0.00    -0.003 A 
ATOM     50  C   UNL     1      -2.362   5.857  -6.306  0.00  0.00    -0.000 A 
ATOM     51  C   UNL     1      -2.345   7.037  -5.379  0.00  0.00    -0.000 A 
ATOM     52  C   UNL     1      -1.038   7.633  -4.948  0.00  0.00    -0.000 A 
ATOM     53  C   UNL     1       0.252   7.050  -5.443  0.00  0.00    -0.003 A 
ENDBRANCH  47  48
BRANCH  47  54
ATOM     54  N   UNL     1       1.780   5.170  -8.338  0.00  0.00    -0.196 NA
ATOM     55  C   UNL     1       1.970   6.407  -9.166  0.00  0.00    +0.265 C 
ATOM     56  O   UNL     1       1.906   7.760  -8.519  0.00  0.00    -0.268 OA
BRANCH  55  57
ATOM     57  C   UNL     1       2.225   6.291 -10.639  0.00  0.00    +0.055 A 
ATOM     58  C   UNL     1       3.604   5.982 -11.140  0.00  0.00    +0.005 A 
ATOM     59  C   UNL     1       3.858   5.866 -12.614  0.00  0.00    +0.000 A 
ATOM     60  C   UNL     1       2.733   6.059 -13.586  0.00  0.00    +0.000 A 
ATOM     61  C   UNL     1       1.353   6.367 -13.085  0.00  0.00    +0.000 A 
ATOM     62  C   UNL     1       1.099   6.483 -11.612  0.00  0.00    +0.005 A 
ENDBRANCH  55  57
ENDBRANCH  47  54
ENDBRANCH  45  47
ENDBRANCH  43  45
ENDBRANCH  42  43
ENDBRANCH  18  42
TORSDOF 14
ENDMDL
MODEL 8
REMARK VINA RESULT:      -8.5      3.044     10.948
REMARK  Name = 
REMARK  14 active torsions:
REMARK  status: ('A' for Active; 'I' for Inactive)
REMARK    1  A    between atoms: C_2  and  O_4
REMARK    2  A    between atoms: O_4  and  C_5
REMARK    3  A    between atoms: C_9  and  O_10
REMARK    4  A    between atoms: O_10  and  C_11
REMARK    5  A    between atoms: C_11  and  C_13
REMARK    6  A    between atoms: C_13  and  C_15
REMARK    7  A    between atoms: C_15  and  N_16
REMARK    8  A    between atoms: C_15  and  C_25
REMARK    9  A    between atoms: C_17  and  C_19
REMARK   10  A    between atoms: C_34  and  O_35
REMARK   11  A    between atoms: O_35  and  C_36
REMARK   12  A    between atoms: C_36  and  C_38
REMARK   13  A    between atoms: C_45  and  O_46
REMARK   14  A    between atoms: O_46  and  C_47
REMARK                            x       y       z     vdW  Elec       q    Type
REMARK                         _______ _______ _______ _____ _____    ______ ____
ROOT
ATOM      1  C   UNL     1       4.381   5.350  -7.782  0.00  0.00    +0.243 C 
ATOM      2  C   UNL     1       5.053   5.450  -9.119  0.00  0.00    +0.196 C 
ATOM      3  O   UNL     1       6.549   5.414  -9.014  0.00  0.00    -0.292 OA
ATOM      4  C   UNL     1       4.579   5.577 -10.537  0.00  0.00    +0.090 C 
ATOM      5  C   UNL     1       3.239   5.658 -11.204  0.00  0.00    +0.093 C 
ATOM      6  C   UNL     1       3.149   5.784 -12.696  0.00  0.00    +0.191 C 
ATOM      7  C   UNL     1       4.401   5.830 -13.520  0.00  0.00    +0.157 C 
ATOM      8  C   UNL     1       5.743   5.750 -12.854  0.00  0.00    +0.067 C 
ATOM      9  O   UNL     1       3.576   5.950 -14.767  0.00  0.00    -0.349 OA
ATOM     10  C   UNL     1       2.324   5.904 -13.943  0.00  0.00    +0.185 C 
ATOM     11  C   UNL     1       1.815   5.644 -10.730  0.00  0.00    +0.201 C 
ATOM     12  C   UNL     1       1.144   5.544  -9.392  0.00  0.00    +0.170 C 
ATOM     13  C   UNL     1       1.617   5.417  -7.975  0.00  0.00    +0.048 C 
ATOM     14  C   UNL     1       0.574   5.409  -7.648  0.00  0.00    +0.007 C 
ATOM     15  C   UNL     1       0.969   5.316  -6.626  0.00  0.00    +0.007 C 
ATOM     16  O   UNL     1      -0.353   5.580  -9.498  0.00  0.00    -0.222 OA
ATOM     17  C   UNL     1       0.010   5.483  -8.413  0.00  0.00    +0.082 C 
ATOM     18  C   UNL     1       0.293   5.355  -6.945  0.00  0.00    +0.189 C 
ATOM     19  C   UNL     1       1.710   5.288  -6.458  0.00  0.00    -0.009 C 
ATOM     20  C   UNL     1       1.995   5.160  -4.991  0.00  0.00    +0.029 C 
ATOM     21  C   UNL     1       5.996   5.511 -10.050  0.00  0.00    +0.010 C 
ATOM     22  C   UNL     1       5.831   5.623 -11.362  0.00  0.00    +0.161 C 
ATOM     23  O   UNL     1       7.172   5.543 -10.694  0.00  0.00    -0.223 OA
ATOM     24  C   UNL     1       2.958   5.337  -7.307  0.00  0.00    -0.000 C 
ENDROOT
BRANCH  11  25
ATOM     25  O   UNL     1       0.833   5.756 -11.858  0.00  0.00    -0.446 OA
BRANCH  25  26
ATOM     26  C   UNL     1       0.198   7.078 -12.172  0.00  0.00    +0.341 C 
ATOM     27  O   UNL     1      -0.429   7.888 -11.075  0.00  0.00    -0.245 OA
BRANCH  26  28
ATOM     28  C   UNL     1       0.190   7.591 -13.582  0.00  0.00    +0.076 A 
ATOM     29  C   UNL     1      -0.539   6.833 -14.651  0.00  0.00    +0.006 A 
ATOM     30  C   UNL     1      -0.547   7.346 -16.060  0.00  0.00    +0.000 A 
ATOM     31  C   UNL     1       0.174   8.618 -16.400  0.00  0.00    +0.000 A 
ATOM     32  C   UNL     1       0.902   9.375 -15.330  0.00  0.00    +0.000 A 
ATOM     33  C   UNL     1       0.910   8.862 -13.920  0.00  0.00    +0.006 A 
ENDBRANCH  26  28
ENDBRANCH  25  26
ENDBRANCH  11  25
BRANCH   6  34
ATOM     34  O   UNL     1       1.726   5.771 -12.223  0.00  0.00    -0.451 OA
BRANCH  34  35
ATOM     35  C   UNL     1       0.792   4.690 -12.683  0.00  0.00    +0.317 C 
ATOM     36  O   UNL     1      -0.511   4.474 -11.973  0.00  0.00    -0.250 OA
ATOM     37  C   UNL     1       1.162   3.828 -13.852  0.00  0.00    +0.121 C 
ENDBRANCH  34  35
ENDBRANCH   6  34
BRANCH   1  38
ATOM     38  O   UNL     1       5.363   5.238  -6.653  0.00  0.00    -0.440 OA
BRANCH  38  40
ATOM     39  C   UNL     1       4.647   7.280  -5.216  0.00  0.00    +0.121 C 
ATOM     40  C   UNL     1       5.040   5.835  -5.316  0.00  0.00    +0.318 C 
ATOM     41  O   UNL     1       5.108   4.989  -4.079  0.00  0.00    -0.250 OA
ENDBRANCH  38  40
ENDBRANCH   1  38
BRANCH  18  42
ATOM     42  O   UNL     1      -0.840   5.294  -5.964  0.00  0.00    -0.446 OA
BRANCH  42  43
ATOM     43  C   UNL     1      -0.877   6.241  -4.801  0.00  0.00    +0.350 C 
ATOM     44  O   UNL     1      -0.485   7.677  -4.990  0.00  0.00    -0.247 OA
BRANCH  43  45
ATOM     45  C   UNL     1      -1.306   5.752  -3.449  0.00  0.00    +0.273 C 
ATOM     46  O   UNL     1      -2.406   4.739  -3.333  0.00  0.00    -0.209 OA
BRANCH  45  47
ATOM     47  C   UNL     1      -0.635   6.276  -2.214  0.00  0.00    +0.159 C 
BRANCH  47  48
ATOM     48  C   UNL     1       0.792   5.917  -1.927  0.00  0.00    +0.000 A 
ATOM     49  C   UNL     1       1.875   6.937  -2.117  0.00  0.00    -0.003 A 
ATOM     50  C   UNL     1       3.304   6.578  -1.830  0.00  0.00    -0.000 A 
ATOM     51  C   UNL     1       3.648   5.197  -1.353  0.00  0.00    -0.000 A 
ATOM     52  C   UNL     1       2.565   4.178  -1.163  0.00  0.00    -0.000 A 
ATOM     53  C   UNL     1       1.138   4.536  -1.450  0.00  0.00    -0.003 A 
ENDBRANCH  47  48
BRANCH  47  54
ATOM     54  N   UNL     1      -1.391   7.160  -1.268  0.00  0.00    -0.196 NA
ATOM     55  C   UNL     1      -0.959   7.267   0.165  0.00  0.00    +0.265 C 
ATOM     56  O   UNL     1       0.229   6.491   0.650  0.00  0.00    -0.268 OA
BRANCH  55  57
ATOM     57  C   UNL     1      -1.716   8.151   1.112  0.00  0.00    +0.055 A 
ATOM     58  C   UNL     1      -3.002   7.674   1.718  0.00  0.00    +0.005 A 
ATOM     59  C   UNL     1      -3.758   8.558   2.665  0.00  0.00    +0.000 A 
ATOM     60  C   UNL     1      -3.228   9.919   3.005  0.00  0.00    +0.000 A 
ATOM     61  C   UNL     1      -1.941  10.396   2.399  0.00  0.00    +0.000 A 
ATOM     62  C   UNL     1      -1.186   9.512   1.453  0.00  0.00    +0.005 A 
ENDBRANCH  55  57
ENDBRANCH  47  54
ENDBRANCH  45  47
ENDBRANCH  43  45
ENDBRANCH  42  43
ENDBRANCH  18  42
TORSDOF 14
ENDMDL
MODEL 9
REMARK VINA RESULT:      -8.4      3.924     12.077
REMARK  Name = 
REMARK  14 active torsions:
REMARK  status: ('A' for Active; 'I' for Inactive)
REMARK    1  A    between atoms: C_2  and  O_4
REMARK    2  A    between atoms: O_4  and  C_5
REMARK    3  A    between atoms: C_9  and  O_10
REMARK    4  A    between atoms: O_10  and  C_11
REMARK    5  A    between atoms: C_11  and  C_13
REMARK    6  A    between atoms: C_13  and  C_15
REMARK    7  A    between atoms: C_15  and  N_16
REMARK    8  A    between atoms: C_15  and  C_25
REMARK    9  A    between atoms: C_17  and  C_19
REMARK   10  A    between atoms: C_34  and  O_35
REMARK   11  A    between atoms: O_35  and  C_36
REMARK   12  A    between atoms: C_36  and  C_38
REMARK   13  A    between atoms: C_45  and  O_46
REMARK   14  A    between atoms: O_46  and  C_47
REMARK                            x       y       z     vdW  Elec       q    Type
REMARK                         _______ _______ _______ _____ _____    ______ ____
ROOT
ATOM      1  C   UNL     1       5.961   5.667 -12.473  0.00  0.00    +0.243 C 
ATOM      2  C   UNL     1       6.107   6.066 -13.912  0.00  0.00    +0.196 C 
ATOM      3  O   UNL     1       7.522   5.962 -14.396  0.00  0.00    -0.292 OA
ATOM      4  C   UNL     1       5.168   6.545 -14.980  0.00  0.00    +0.090 C 
ATOM      5  C   UNL     1       3.696   6.822 -15.051  0.00  0.00    +0.093 C 
ATOM      6  C   UNL     1       3.085   7.307 -16.332  0.00  0.00    +0.191 C 
ATOM      7  C   UNL     1       3.947   7.513 -17.542  0.00  0.00    +0.157 C 
ATOM      8  C   UNL     1       5.420   7.236 -17.472  0.00  0.00    +0.067 C 
ATOM      9  O   UNL     1       2.745   7.954 -18.324  0.00  0.00    -0.349 OA
ATOM     10  C   UNL     1       1.883   7.747 -17.114  0.00  0.00    +0.185 C 
ATOM     11  C   UNL     1       2.552   6.737 -14.084  0.00  0.00    +0.201 C 
ATOM     12  C   UNL     1       2.407   6.338 -12.646  0.00  0.00    +0.170 C 
ATOM     13  C   UNL     1       3.345   5.859 -11.578  0.00  0.00    +0.048 C 
ATOM     14  C   UNL     1       2.499   5.803 -10.887  0.00  0.00    +0.007 C 
ATOM     15  C   UNL     1       3.226   5.456 -10.138  0.00  0.00    +0.007 C 
ATOM     16  O   UNL     1       0.990   6.442 -12.162  0.00  0.00    -0.222 OA
ATOM     17  C   UNL     1       1.709   6.076 -11.344  0.00  0.00    +0.082 C 
ATOM     18  C   UNL     1       2.490   5.590 -10.159  0.00  0.00    +0.189 C 
ATOM     19  C   UNL     1       3.968   5.367 -10.276  0.00  0.00    -0.009 C 
ATOM     20  C   UNL     1       4.750   4.881  -9.091  0.00  0.00    +0.029 C 
ATOM     21  C   UNL     1       6.646   6.321 -15.096  0.00  0.00    +0.010 C 
ATOM     22  C   UNL     1       6.030   6.751 -16.190  0.00  0.00    +0.161 C 
ATOM     23  O   UNL     1       7.502   6.473 -16.118  0.00  0.00    -0.223 OA
ATOM     24  C   UNL     1       4.817   5.581 -11.506  0.00  0.00    -0.000 C 
ENDROOT
BRANCH  11  25
ATOM     25  O   UNL     1       1.247   7.146 -14.701  0.00  0.00    -0.446 OA
BRANCH  25  26
ATOM     26  C   UNL     1       0.534   8.368 -14.205  0.00  0.00    +0.341 C 
ATOM     27  O   UNL     1      -0.160   8.344 -12.874  0.00  0.00    -0.245 OA
BRANCH  26  28
ATOM     28  C   UNL     1       0.513   9.616 -15.038  0.00  0.00    +0.076 A 
ATOM     29  C   UNL     1      -0.039   9.576 -16.433  0.00  0.00    +0.006 A 
ATOM     30  C   UNL     1      -0.059  10.823 -17.266  0.00  0.00    +0.000 A 
ATOM     31  C   UNL     1       0.471  12.110 -16.705  0.00  0.00    +0.000 A 
ATOM     32  C   UNL     1       1.022  12.148 -15.311  0.00  0.00    +0.000 A 
ATOM     33  C   UNL     1       1.043  10.901 -14.477  0.00  0.00    +0.006 A 
ENDBRANCH  26  28
ENDBRANCH  25  26
ENDBRANCH  11  25
BRANCH   6  34
ATOM     34  O   UNL     1       1.941   7.222 -15.366  0.00  0.00    -0.451 OA
BRANCH  34  35
ATOM     35  C   UNL     1       0.841   6.227 -15.592  0.00  0.00    +0.317 C 
ATOM     36  O   UNL     1       1.002   4.812 -15.121  0.00  0.00    -0.250 OA
ATOM     37  C   UNL     1      -0.419   6.648 -16.287  0.00  0.00    +0.121 C 
ENDBRANCH  34  35
ENDBRANCH   6  34
BRANCH   1  38
ATOM     38  O   UNL     1       7.266   5.257 -11.856  0.00  0.00    -0.440 OA
BRANCH  38  40
ATOM     39  C   UNL     1       7.736   7.386 -10.443  0.00  0.00    +0.121 C 
ATOM     40  C   UNL     1       7.721   5.891 -10.576  0.00  0.00    +0.318 C 
ATOM     41  O   UNL     1       8.161   5.032  -9.428  0.00  0.00    -0.250 OA
ENDBRANCH  38  40
ENDBRANCH   1  38
BRANCH  18  42
ATOM     42  O   UNL     1       1.793   5.328  -8.857  0.00  0.00    -0.446 OA
BRANCH  42  43
ATOM     43  C   UNL     1       1.930   6.302  -7.724  0.00  0.00    +0.350 C 
ATOM     44  O   UNL     1       1.902   7.777  -7.994  0.00  0.00    -0.247 OA
BRANCH  43  45
ATOM     45  C   UNL     1       2.095   5.800  -6.320  0.00  0.00    +0.273 C 
ATOM     46  O   UNL     1       3.017   4.651  -6.038  0.00  0.00    -0.209 OA
BRANCH  45  47
ATOM     47  C   UNL     1       1.338   6.447  -5.198  0.00  0.00    +0.159 C 
BRANCH  47  48
ATOM     48  C   UNL     1      -0.150   6.607  -5.292  0.00  0.00    +0.000 A 
ATOM     49  C   UNL     1      -0.823   7.764  -4.615  0.00  0.00    -0.003 A 
ATOM     50  C   UNL     1      -2.312   7.925  -4.709  0.00  0.00    -0.000 A 
ATOM     51  C   UNL     1      -3.126   6.928  -5.481  0.00  0.00    -0.000 A 
ATOM     52  C   UNL     1      -2.452   5.773  -6.158  0.00  0.00    -0.000 A 
ATOM     53  C   UNL     1      -0.965   5.612  -6.064  0.00  0.00    -0.003 A 
ENDBRANCH  47  48
BRANCH  47  54
ATOM     54  N   UNL     1       2.070   6.934  -3.983  0.00  0.00    -0.196 NA
ATOM     55  C   UNL     1       1.890   6.234  -2.668  0.00  0.00    +0.265 C 
ATOM     56  O   UNL     1       0.978   5.046  -2.570  0.00  0.00    -0.268 OA
BRANCH  55  57
ATOM     57  C   UNL     1       2.621   6.720  -1.453  0.00  0.00    +0.055 A 
ATOM     58  C   UNL     1       4.114   6.599  -1.377  0.00  0.00    +0.005 A 
ATOM     59  C   UNL     1       4.846   7.086  -0.161  0.00  0.00    +0.000 A 
ATOM     60  C   UNL     1       4.084   7.694   0.978  0.00  0.00    +0.000 A 
ATOM     61  C   UNL     1       2.591   7.816   0.903  0.00  0.00    +0.000 A 
ATOM     62  C   UNL     1       1.860   7.329  -0.313  0.00  0.00    +0.005 A 
ENDBRANCH  55  57
ENDBRANCH  47  54
ENDBRANCH  45  47
ENDBRANCH  43  45
ENDBRANCH  42  43
ENDBRANCH  18  42
TORSDOF 14
ENDMDL
