MODEL 1
REMARK VINA RESULT:      -7.4      0.000      0.000
REMARK  Name = 
REMARK  11 active torsions:
REMARK  status: ('A' for Active; 'I' for Inactive)
REMARK    1  A    between atoms: C_2  and  C_3
REMARK    2  A    between atoms: C_3  and  N_4
REMARK    3  A    between atoms: N_4  and  C_5
REMARK    4  A    between atoms: C_5  and  C_6
REMARK    5  A    between atoms: C_6  and  C_8
REMARK    6  A    between atoms: C_8  and  O_9
REMARK    7  A    between atoms: O_9  and  C_10
REMARK    8  A    between atoms: C_15  and  C_16
REMARK    9  A    between atoms: C_16  and  C_18
REMARK   10  A    between atoms: C_18  and  C_19
REMARK   11  A    between atoms: C_19  and  C_20
REMARK                            x       y       z     vdW  Elec       q    Type
REMARK                         _______ _______ _______ _____ _____    ______ ____
ROOT
ATOM      1  C   UNL     1       2.996   6.004  -5.935  0.00  0.00    +0.141 A 
ATOM      2  C   UNL     1       1.723   5.874  -5.398  0.00  0.00    +0.069 A 
ATOM      3  C   UNL     1       1.526   6.294  -4.116  0.00  0.00    +0.006 A 
ATOM      4  C   UNL     1       2.538   6.911  -3.390  0.00  0.00    +0.000 A 
ATOM      5  C   UNL     1       3.634   7.373  -4.073  0.00  0.00    +0.003 A 
ATOM      6  C   UNL     1       3.753   7.049  -5.419  0.00  0.00    +0.037 A 
ENDROOT
BRANCH   2   7
ATOM      7  C   UNL     1       0.710   5.104  -6.098  0.00  0.00    +0.176 C 
ATOM      8  O   UNL     1       0.761   3.859  -6.046  0.00  0.00    -0.291 OA
BRANCH   7   9
ATOM      9  C   UNL     1      -0.354   5.846  -6.841  0.00  0.00    +0.074 C 
BRANCH   9  10
ATOM     10  C   UNL     1      -1.713   5.346  -6.363  0.00  0.00    +0.034 C 
BRANCH  10  11
ATOM     11  C   UNL     1      -2.147   6.074  -5.161  0.00  0.00    -0.022 A 
ATOM     12  C   UNL     1      -2.685   5.402  -4.098  0.00  0.00    -0.004 A 
ATOM     13  C   UNL     1      -2.817   6.047  -2.874  0.00  0.00    -0.000 A 
ATOM     14  C   UNL     1      -2.236   7.279  -2.721  0.00  0.00    -0.000 A 
ATOM     15  C   UNL     1      -1.993   8.034  -3.839  0.00  0.00    -0.000 A 
ATOM     16  C   UNL     1      -2.030   7.456  -5.100  0.00  0.00    -0.004 A 
ENDBRANCH  10  11
ENDBRANCH   9  10
ENDBRANCH   7   9
ENDBRANCH   2   7
BRANCH   1  17
ATOM     17  O   UNL     1       3.099   5.723  -7.294  0.00  0.00    -0.473 OA
BRANCH  17  18
ATOM     18  C   UNL     1       4.326   5.452  -7.916  0.00  0.00    +0.240 C 
BRANCH  18  19
ATOM     19  C   UNL     1       3.880   4.309  -9.019  0.00  0.00    +0.213 C 
ATOM     20  O   UNL     1       2.471   4.872  -9.125  0.00  0.00    -0.218 OA
BRANCH  19  21
ATOM     21  C   UNL     1       4.410   5.224 -10.287  0.00  0.00    +0.125 C 
BRANCH  21  22
ATOM     22  N   UNL     1       5.671   5.690  -9.706  0.00  0.00    -0.215 NA
BRANCH  22  23
ATOM     23  C   UNL     1       6.655   5.761 -10.772  0.00  0.00    +0.089 C 
BRANCH  23  25
ATOM     24  C   UNL     1       7.396   7.170 -10.605  0.00  0.00    +0.002 C 
ATOM     25  C   UNL     1       7.382   7.069 -10.800  0.00  0.00    +0.019 C 
ENDBRANCH  23  25
ENDBRANCH  22  23
ENDBRANCH  21  22
ENDBRANCH  19  21
ENDBRANCH  18  19
ENDBRANCH  17  18
ENDBRANCH   1  17
TORSDOF 11
ENDMDL
MODEL 2
REMARK VINA RESULT:      -7.4      2.374      7.945
REMARK  Name = 
REMARK  11 active torsions:
REMARK  status: ('A' for Active; 'I' for Inactive)
REMARK    1  A    between atoms: C_2  and  C_3
REMARK    2  A    between atoms: C_3  and  N_4
REMARK    3  A    between atoms: N_4  and  C_5
REMARK    4  A    between atoms: C_5  and  C_6
REMARK    5  A    between atoms: C_6  and  C_8
REMARK    6  A    between atoms: C_8  and  O_9
REMARK    7  A    between atoms: O_9  and  C_10
REMARK    8  A    between atoms: C_15  and  C_16
REMARK    9  A    between atoms: C_16  and  C_18
REMARK   10  A    between atoms: C_18  and  C_19
REMARK   11  A    between atoms: C_19  and  C_20
REMARK                            x       y       z     vdW  Elec       q    Type
REMARK                         _______ _______ _______ _____ _____    ______ ____
ROOT
ATOM      1  C   UNL     1       2.805   5.929  -4.524  0.00  0.00    +0.141 A 
ATOM      2  C   UNL     1       3.699   6.561  -5.376  0.00  0.00    +0.069 A 
ATOM      3  C   UNL     1       4.780   7.178  -4.821  0.00  0.00    +0.006 A 
ATOM      4  C   UNL     1       5.034   7.112  -3.457  0.00  0.00    +0.000 A 
ATOM      5  C   UNL     1       4.365   6.167  -2.720  0.00  0.00    +0.003 A 
ATOM      6  C   UNL     1       3.352   5.447  -3.341  0.00  0.00    +0.037 A 
ENDROOT
BRANCH   2   7
ATOM      7  C   UNL     1       3.361   6.753  -6.776  0.00  0.00    +0.176 C 
ATOM      8  O   UNL     1       2.701   7.759  -7.100  0.00  0.00    -0.291 OA
BRANCH   7   9
ATOM      9  C   UNL     1       3.835   5.736  -7.764  0.00  0.00    +0.074 C 
BRANCH   9  10
ATOM     10  C   UNL     1       3.721   6.333  -9.162  0.00  0.00    +0.034 C 
BRANCH  10  11
ATOM     11  C   UNL     1       5.041   6.422  -9.805  0.00  0.00    -0.022 A 
ATOM     12  C   UNL     1       5.264   7.319 -10.813  0.00  0.00    -0.004 A 
ATOM     13  C   UNL     1       6.567   7.598 -11.207  0.00  0.00    -0.000 A 
ATOM     14  C   UNL     1       7.596   7.103 -10.450  0.00  0.00    -0.000 A 
ATOM     15  C   UNL     1       7.367   5.997  -9.673  0.00  0.00    -0.000 A 
ATOM     16  C   UNL     1       6.071   5.581  -9.405  0.00  0.00    -0.004 A 
ENDBRANCH  10  11
ENDBRANCH   9  10
ENDBRANCH   7   9
ENDBRANCH   2   7
BRANCH   1  17
ATOM     17  O   UNL     1       1.820   5.171  -5.151  0.00  0.00    -0.473 OA
BRANCH  17  18
ATOM     18  C   UNL     1       0.473   5.218  -4.764  0.00  0.00    +0.240 C 
BRANCH  18  19
ATOM     19  C   UNL     1      -0.181   6.115  -5.984  0.00  0.00    +0.213 C 
ATOM     20  O   UNL     1      -1.498   5.358  -5.918  0.00  0.00    -0.218 OA
BRANCH  19  21
ATOM     21  C   UNL     1      -0.720   7.274  -4.940  0.00  0.00    +0.125 C 
BRANCH  21  22
ATOM     22  N   UNL     1      -1.817   6.522  -4.328  0.00  0.00    -0.215 NA
BRANCH  22  23
ATOM     23  C   UNL     1      -2.206   7.210  -3.110  0.00  0.00    +0.089 C 
BRANCH  23  25
ATOM     24  C   UNL     1      -3.430   6.382  -2.493  0.00  0.00    +0.002 C 
ATOM     25  C   UNL     1      -3.408   6.600  -2.461  0.00  0.00    +0.019 C 
ENDBRANCH  23  25
ENDBRANCH  22  23
ENDBRANCH  21  22
ENDBRANCH  19  21
ENDBRANCH  18  19
ENDBRANCH  17  18
ENDBRANCH   1  17
TORSDOF 11
ENDMDL
MODEL 3
REMARK VINA RESULT:      -7.3      3.080      6.885
REMARK  Name = 
REMARK  11 active torsions:
REMARK  status: ('A' for Active; 'I' for Inactive)
REMARK    1  A    between atoms: C_2  and  C_3
REMARK    2  A    between atoms: C_3  and  N_4
REMARK    3  A    between atoms: N_4  and  C_5
REMARK    4  A    between atoms: C_5  and  C_6
REMARK    5  A    between atoms: C_6  and  C_8
REMARK    6  A    between atoms: C_8  and  O_9
REMARK    7  A    between atoms: O_9  and  C_10
REMARK    8  A    between atoms: C_15  and  C_16
REMARK    9  A    between atoms: C_16  and  C_18
REMARK   10  A    between atoms: C_18  and  C_19
REMARK   11  A    between atoms: C_19  and  C_20
REMARK                            x       y       z     vdW  Elec       q    Type
REMARK                         _______ _______ _______ _____ _____    ______ ____
ROOT
ATOM      1  C   UNL     1       4.356   5.806  -8.161  0.00  0.00    +0.141 A 
ATOM      2  C   UNL     1       3.481   6.288  -9.124  0.00  0.00    +0.069 A 
ATOM      3  C   UNL     1       4.012   6.745 -10.294  0.00  0.00    +0.006 A 
ATOM      4  C   UNL     1       5.373   6.659 -10.558  0.00  0.00    +0.000 A 
ATOM      5  C   UNL     1       6.133   5.833  -9.769  0.00  0.00    +0.003 A 
ATOM      6  C   UNL     1       5.538   5.263  -8.650  0.00  0.00    +0.037 A 
ENDROOT
BRANCH   2   7
ATOM      7  C   UNL     1       2.084   6.511  -8.796  0.00  0.00    +0.176 C 
ATOM      8  O   UNL     1       1.736   7.638  -8.392  0.00  0.00    -0.291 OA
BRANCH   7   9
ATOM      9  C   UNL     1       1.127   5.376  -8.970  0.00  0.00    +0.074 C 
BRANCH   9  10
ATOM     10  C   UNL     1      -0.121   5.902  -9.670  0.00  0.00    +0.034 C 
BRANCH  10  11
ATOM     11  C   UNL     1       0.119   6.081 -11.110  0.00  0.00    -0.022 A 
ATOM     12  C   UNL     1      -0.141   7.280 -11.714  0.00  0.00    -0.004 A 
ATOM     13  C   UNL     1       0.356   7.530 -12.987  0.00  0.00    -0.000 A 
ATOM     14  C   UNL     1       1.246   6.636 -13.525  0.00  0.00    -0.000 A 
ATOM     15  C   UNL     1       1.244   5.347 -13.061  0.00  0.00    -0.000 A 
ATOM     16  C   UNL     1       0.599   5.026 -11.875  0.00  0.00    -0.004 A 
ENDBRANCH  10  11
ENDBRANCH   9  10
ENDBRANCH   7   9
ENDBRANCH   2   7
BRANCH   1  17
ATOM     17  O   UNL     1       3.754   5.195  -7.064  0.00  0.00    -0.473 OA
BRANCH  17  18
ATOM     18  C   UNL     1       3.851   5.715  -5.766  0.00  0.00    +0.240 C 
BRANCH  18  19
ATOM     19  C   UNL     1       2.687   4.845  -4.985  0.00  0.00    +0.213 C 
ATOM     20  O   UNL     1       3.093   5.403  -3.629  0.00  0.00    -0.218 OA
BRANCH  19  21
ATOM     21  C   UNL     1       1.556   6.027  -5.205  0.00  0.00    +0.125 C 
BRANCH  21  22
ATOM     22  N   UNL     1       0.378   5.172  -5.371  0.00  0.00    -0.215 NA
BRANCH  22  23
ATOM     23  C   UNL     1      -0.777   6.034  -5.554  0.00  0.00    +0.089 C 
BRANCH  23  25
ATOM     24  C   UNL     1      -2.005   5.524  -6.445  0.00  0.00    +0.002 C 
ATOM     25  C   UNL     1      -1.803   5.437  -6.464  0.00  0.00    +0.019 C 
ENDBRANCH  23  25
ENDBRANCH  22  23
ENDBRANCH  21  22
ENDBRANCH  19  21
ENDBRANCH  18  19
ENDBRANCH  17  18
ENDBRANCH   1  17
TORSDOF 11
ENDMDL
MODEL 4
REMARK VINA RESULT:      -7.3      3.125      6.145
REMARK  Name = 
REMARK  11 active torsions:
REMARK  status: ('A' for Active; 'I' for Inactive)
REMARK    1  A    between atoms: C_2  and  C_3
REMARK    2  A    between atoms: C_3  and  N_4
REMARK    3  A    between atoms: N_4  and  C_5
REMARK    4  A    between atoms: C_5  and  C_6
REMARK    5  A    between atoms: C_6  and  C_8
REMARK    6  A    between atoms: C_8  and  O_9
REMARK    7  A    between atoms: O_9  and  C_10
REMARK    8  A    between atoms: C_15  and  C_16
REMARK    9  A    between atoms: C_16  and  C_18
REMARK   10  A    between atoms: C_18  and  C_19
REMARK   11  A    between atoms: C_19  and  C_20
REMARK                            x       y       z     vdW  Elec       q    Type
REMARK                         _______ _______ _______ _____ _____    ______ ____
ROOT
ATOM      1  C   UNL     1       4.955   6.401 -10.730  0.00  0.00    +0.141 A 
ATOM      2  C   UNL     1       5.200   5.822  -9.494  0.00  0.00    +0.069 A 
ATOM      3  C   UNL     1       6.499   5.635  -9.124  0.00  0.00    +0.006 A 
ATOM      4  C   UNL     1       7.551   6.084  -9.914  0.00  0.00    +0.000 A 
ATOM      5  C   UNL     1       7.273   6.984 -10.910  0.00  0.00    +0.003 A 
ATOM      6  C   UNL     1       5.941   7.268 -11.186  0.00  0.00    +0.037 A 
ENDROOT
BRANCH   2   7
ATOM      7  C   UNL     1       4.112   5.227  -8.738  0.00  0.00    +0.176 C 
ATOM      8  O   UNL     1       3.717   4.087  -9.052  0.00  0.00    -0.291 OA
BRANCH   7   9
ATOM      9  C   UNL     1       3.524   6.010  -7.608  0.00  0.00    +0.074 C 
BRANCH   9  10
ATOM     10  C   UNL     1       3.394   5.089  -6.400  0.00  0.00    +0.034 C 
BRANCH  10  11
ATOM     11  C   UNL     1       4.080   5.658  -5.229  0.00  0.00    -0.022 A 
ATOM     12  C   UNL     1       4.574   6.932  -5.265  0.00  0.00    -0.004 A 
ATOM     13  C   UNL     1       4.951   7.556  -4.082  0.00  0.00    -0.000 A 
ATOM     14  C   UNL     1       4.645   6.941  -2.896  0.00  0.00    -0.000 A 
ATOM     15  C   UNL     1       4.449   5.584  -2.891  0.00  0.00    -0.000 A 
ATOM     16  C   UNL     1       4.247   4.898  -4.080  0.00  0.00    -0.004 A 
ENDBRANCH  10  11
ENDBRANCH   9  10
ENDBRANCH   7   9
ENDBRANCH   2   7
BRANCH   1  17
ATOM     17  O   UNL     1       3.625   6.725 -10.982  0.00  0.00    -0.473 OA
BRANCH  17  18
ATOM     18  C   UNL     1       2.877   6.106 -11.993  0.00  0.00    +0.240 C 
BRANCH  18  19
ATOM     19  C   UNL     1       1.339   6.495 -11.539  0.00  0.00    +0.213 C 
ATOM     20  O   UNL     1       0.980   6.967 -12.939  0.00  0.00    -0.218 OA
BRANCH  19  21
ATOM     21  C   UNL     1       0.788   4.969 -11.842  0.00  0.00    +0.125 C 
BRANCH  21  22
ATOM     22  N   UNL     1       0.572   4.538 -10.459  0.00  0.00    -0.215 NA
BRANCH  22  23
ATOM     23  C   UNL     1       0.136   5.693  -9.693  0.00  0.00    +0.089 C 
BRANCH  23  25
ATOM     24  C   UNL     1      -0.146   5.549  -8.124  0.00  0.00    +0.002 C 
ATOM     25  C   UNL     1      -0.083   5.377  -8.248  0.00  0.00    +0.019 C 
ENDBRANCH  23  25
ENDBRANCH  22  23
ENDBRANCH  21  22
ENDBRANCH  19  21
ENDBRANCH  18  19
ENDBRANCH  17  18
ENDBRANCH   1  17
TORSDOF 11
ENDMDL
MODEL 5
REMARK VINA RESULT:      -7.3      2.302      6.750
REMARK  Name = 
REMARK  11 active torsions:
REMARK  status: ('A' for Active; 'I' for Inactive)
REMARK    1  A    between atoms: C_2  and  C_3
REMARK    2  A    between atoms: C_3  and  N_4
REMARK    3  A    between atoms: N_4  and  C_5
REMARK    4  A    between atoms: C_5  and  C_6
REMARK    5  A    between atoms: C_6  and  C_8
REMARK    6  A    between atoms: C_8  and  O_9
REMARK    7  A    between atoms: O_9  and  C_10
REMARK    8  A    between atoms: C_15  and  C_16
REMARK    9  A    between atoms: C_16  and  C_18
REMARK   10  A    between atoms: C_18  and  C_19
REMARK   11  A    between atoms: C_19  and  C_20
REMARK                            x       y       z     vdW  Elec       q    Type
REMARK                         _______ _______ _______ _____ _____    ______ ____
ROOT
ATOM      1  C   UNL     1      -0.373   5.945  -4.532  0.00  0.00    +0.141 A 
ATOM      2  C   UNL     1      -0.021   5.558  -5.817  0.00  0.00    +0.069 A 
ATOM      3  C   UNL     1      -1.015   5.446  -6.744  0.00  0.00    +0.006 A 
ATOM      4  C   UNL     1      -2.329   5.787  -6.445  0.00  0.00    +0.000 A 
ATOM      5  C   UNL     1      -2.563   6.527  -5.314  0.00  0.00    +0.003 A 
ATOM      6  C   UNL     1      -1.503   6.748  -4.443  0.00  0.00    +0.037 A 
ENDROOT
BRANCH   2   7
ATOM      7  C   UNL     1       1.318   5.066  -6.090  0.00  0.00    +0.176 C 
ATOM      8  O   UNL     1       1.544   3.846  -5.972  0.00  0.00    -0.291 OA
BRANCH   7   9
ATOM      9  C   UNL     1       2.361   6.051  -6.513  0.00  0.00    +0.074 C 
BRANCH   9  10
ATOM     10  C   UNL     1       3.676   5.305  -6.710  0.00  0.00    +0.034 C 
BRANCH  10  11
ATOM     11  C   UNL     1       4.220   5.545  -8.055  0.00  0.00    -0.022 A 
ATOM     12  C   UNL     1       3.485   6.218  -8.992  0.00  0.00    -0.004 A 
ATOM     13  C   UNL     1       4.106   6.691 -10.142  0.00  0.00    -0.000 A 
ATOM     14  C   UNL     1       5.473   6.627 -10.216  0.00  0.00    -0.000 A 
ATOM     15  C   UNL     1       6.130   5.703  -9.447  0.00  0.00    -0.000 A 
ATOM     16  C   UNL     1       5.481   5.074  -8.394  0.00  0.00    -0.004 A 
ENDBRANCH  10  11
ENDBRANCH   9  10
ENDBRANCH   7   9
ENDBRANCH   2   7
BRANCH   1  17
ATOM     17  O   UNL     1       0.693   6.211  -3.679  0.00  0.00    -0.473 OA
BRANCH  17  18
ATOM     18  C   UNL     1       0.766   5.690  -2.379  0.00  0.00    +0.240 C 
BRANCH  18  19
ATOM     19  C   UNL     1       2.219   6.286  -1.874  0.00  0.00    +0.213 C 
ATOM     20  O   UNL     1       2.229   5.390  -0.645  0.00  0.00    -0.218 OA
BRANCH  19  21
ATOM     21  C   UNL     1       3.061   5.181  -2.766  0.00  0.00    +0.125 C 
BRANCH  21  22
ATOM     22  N   UNL     1       4.364   5.849  -2.765  0.00  0.00    -0.215 NA
BRANCH  22  23
ATOM     23  C   UNL     1       4.156   7.235  -3.147  0.00  0.00    +0.089 C 
BRANCH  23  25
ATOM     24  C   UNL     1       5.075   7.805  -4.327  0.00  0.00    +0.002 C 
ATOM     25  C   UNL     1       5.162   7.716  -4.144  0.00  0.00    +0.019 C 
ENDBRANCH  23  25
ENDBRANCH  22  23
ENDBRANCH  21  22
ENDBRANCH  19  21
ENDBRANCH  18  19
ENDBRANCH  17  18
ENDBRANCH   1  17
TORSDOF 11
ENDMDL
MODEL 6
REMARK VINA RESULT:      -7.3      2.873      6.167
REMARK  Name = 
REMARK  11 active torsions:
REMARK  status: ('A' for Active; 'I' for Inactive)
REMARK    1  A    between atoms: C_2  and  C_3
REMARK    2  A    between atoms: C_3  and  N_4
REMARK    3  A    between atoms: N_4  and  C_5
REMARK    4  A    between atoms: C_5  and  C_6
REMARK    5  A    between atoms: C_6  and  C_8
REMARK    6  A    between atoms: C_8  and  O_9
REMARK    7  A    between atoms: O_9  and  C_10
REMARK    8  A    between atoms: C_15  and  C_16
REMARK    9  A    between atoms: C_16  and  C_18
REMARK   10  A    between atoms: C_18  and  C_19
REMARK   11  A    between atoms: C_19  and  C_20
REMARK                            x       y       z     vdW  Elec       q    Type
REMARK                         _______ _______ _______ _____ _____    ______ ____
ROOT
ATOM      1  C   UNL     1      -0.501   5.564  -4.591  0.00  0.00    +0.141 A 
ATOM      2  C   UNL     1      -0.036   5.334  -5.878  0.00  0.00    +0.069 A 
ATOM      3  C   UNL     1      -0.943   5.361  -6.896  0.00  0.00    +0.006 A 
ATOM      4  C   UNL     1      -2.274   5.690  -6.675  0.00  0.00    +0.000 A 
ATOM      5  C   UNL     1      -2.604   6.287  -5.485  0.00  0.00    +0.003 A 
ATOM      6  C   UNL     1      -1.626   6.374  -4.501  0.00  0.00    +0.037 A 
ENDROOT
BRANCH   2   7
ATOM      7  C   UNL     1       1.317   4.851  -6.090  0.00  0.00    +0.176 C 
ATOM      8  O   UNL     1       1.549   3.635  -5.947  0.00  0.00    -0.291 OA
BRANCH   7   9
ATOM      9  C   UNL     1       2.367   5.840  -6.484  0.00  0.00    +0.074 C 
BRANCH   9  10
ATOM     10  C   UNL     1       3.040   5.346  -7.759  0.00  0.00    +0.034 C 
BRANCH  10  11
ATOM     11  C   UNL     1       2.150   5.504  -8.919  0.00  0.00    -0.022 A 
ATOM     12  C   UNL     1       1.735   4.412  -9.631  0.00  0.00    -0.004 A 
ATOM     13  C   UNL     1       0.679   4.537 -10.526  0.00  0.00    -0.000 A 
ATOM     14  C   UNL     1      -0.033   5.708 -10.533  0.00  0.00    -0.000 A 
ATOM     15  C   UNL     1       0.570   6.846 -10.065  0.00  0.00    -0.000 A 
ATOM     16  C   UNL     1       1.734   6.768  -9.314  0.00  0.00    -0.004 A 
ENDBRANCH  10  11
ENDBRANCH   9  10
ENDBRANCH   7   9
ENDBRANCH   2   7
BRANCH   1  17
ATOM     17  O   UNL     1       0.486   5.697  -3.618  0.00  0.00    -0.473 OA
BRANCH  17  18
ATOM     18  C   UNL     1       0.368   5.127  -2.342  0.00  0.00    +0.240 C 
BRANCH  18  19
ATOM     19  C   UNL     1       1.580   5.899  -1.532  0.00  0.00    +0.213 C 
ATOM     20  O   UNL     1       1.877   4.673  -0.684  0.00  0.00    -0.218 OA
BRANCH  19  21
ATOM     21  C   UNL     1       2.704   5.470  -2.662  0.00  0.00    +0.125 C 
BRANCH  21  22
ATOM     22  N   UNL     1       3.596   6.624  -2.529  0.00  0.00    -0.215 NA
BRANCH  22  23
ATOM     23  C   UNL     1       4.693   6.450  -3.465  0.00  0.00    +0.089 C 
BRANCH  23  25
ATOM     24  C   UNL     1       5.185   7.759  -4.246  0.00  0.00    +0.002 C 
ATOM     25  C   UNL     1       4.976   7.687  -4.258  0.00  0.00    +0.019 C 
ENDBRANCH  23  25
ENDBRANCH  22  23
ENDBRANCH  21  22
ENDBRANCH  19  21
ENDBRANCH  18  19
ENDBRANCH  17  18
ENDBRANCH   1  17
TORSDOF 11
ENDMDL
MODEL 7
REMARK VINA RESULT:      -7.2      1.765      2.635
REMARK  Name = 
REMARK  11 active torsions:
REMARK  status: ('A' for Active; 'I' for Inactive)
REMARK    1  A    between atoms: C_2  and  C_3
REMARK    2  A    between atoms: C_3  and  N_4
REMARK    3  A    between atoms: N_4  and  C_5
REMARK    4  A    between atoms: C_5  and  C_6
REMARK    5  A    between atoms: C_6  and  C_8
REMARK    6  A    between atoms: C_8  and  O_9
REMARK    7  A    between atoms: O_9  and  C_10
REMARK    8  A    between atoms: C_15  and  C_16
REMARK    9  A    between atoms: C_16  and  C_18
REMARK   10  A    between atoms: C_18  and  C_19
REMARK   11  A    between atoms: C_19  and  C_20
REMARK                            x       y       z     vdW  Elec       q    Type
REMARK                         _______ _______ _______ _____ _____    ______ ____
ROOT
ATOM      1  C   UNL     1       2.897   6.252  -5.505  0.00  0.00    +0.141 A 
ATOM      2  C   UNL     1       1.650   5.842  -5.057  0.00  0.00    +0.069 A 
ATOM      3  C   UNL     1       1.392   5.933  -3.721  0.00  0.00    +0.006 A 
ATOM      4  C   UNL     1       2.309   6.494  -2.840  0.00  0.00    +0.000 A 
ATOM      5  C   UNL     1       3.338   7.234  -3.364  0.00  0.00    +0.003 A 
ATOM      6  C   UNL     1       3.507   7.241  -4.743  0.00  0.00    +0.037 A 
ENDROOT
BRANCH   2   7
ATOM      7  C   UNL     1       0.752   5.127  -5.947  0.00  0.00    +0.176 C 
ATOM      8  O   UNL     1       0.862   3.889  -6.041  0.00  0.00    -0.291 OA
BRANCH   7   9
ATOM      9  C   UNL     1      -0.271   5.914  -6.702  0.00  0.00    +0.074 C 
BRANCH   9  10
ATOM     10  C   UNL     1      -1.653   5.398  -6.319  0.00  0.00    +0.034 C 
BRANCH  10  11
ATOM     11  C   UNL     1      -2.152   6.077  -5.112  0.00  0.00    -0.022 A 
ATOM     12  C   UNL     1      -2.790   5.369  -4.132  0.00  0.00    -0.004 A 
ATOM     13  C   UNL     1      -2.992   5.951  -2.886  0.00  0.00    -0.000 A 
ATOM     14  C   UNL     1      -2.382   7.150  -2.622  0.00  0.00    -0.000 A 
ATOM     15  C   UNL     1      -2.031   7.955  -3.674  0.00  0.00    -0.000 A 
ATOM     16  C   UNL     1      -1.993   7.448  -4.965  0.00  0.00    -0.004 A 
ENDBRANCH  10  11
ENDBRANCH   9  10
ENDBRANCH   7   9
ENDBRANCH   2   7
BRANCH   1  17
ATOM     17  O   UNL     1       3.044   6.301  -6.888  0.00  0.00    -0.473 OA
BRANCH  17  18
ATOM     18  C   UNL     1       3.992   5.527  -7.573  0.00  0.00    +0.240 C 
BRANCH  18  19
ATOM     19  C   UNL     1       3.611   5.865  -9.141  0.00  0.00    +0.213 C 
ATOM     20  O   UNL     1       4.687   4.929  -9.670  0.00  0.00    -0.218 OA
BRANCH  19  21
ATOM     21  C   UNL     1       2.463   4.680  -9.193  0.00  0.00    +0.125 C 
BRANCH  21  22
ATOM     22  N   UNL     1       1.709   5.159 -10.354  0.00  0.00    -0.215 NA
BRANCH  22  23
ATOM     23  C   UNL     1       1.233   6.499 -10.056  0.00  0.00    +0.089 C 
BRANCH  23  25
ATOM     24  C   UNL     1      -0.100   6.723 -10.913  0.00  0.00    +0.002 C 
ATOM     25  C   UNL     1       0.046   6.886 -10.880  0.00  0.00    +0.019 C 
ENDBRANCH  23  25
ENDBRANCH  22  23
ENDBRANCH  21  22
ENDBRANCH  19  21
ENDBRANCH  18  19
ENDBRANCH  17  18
ENDBRANCH   1  17
TORSDOF 11
ENDMDL
MODEL 8
REMARK VINA RESULT:      -7.2      2.518      8.479
REMARK  Name = 
REMARK  11 active torsions:
REMARK  status: ('A' for Active; 'I' for Inactive)
REMARK    1  A    between atoms: C_2  and  C_3
REMARK    2  A    between atoms: C_3  and  N_4
REMARK    3  A    between atoms: N_4  and  C_5
REMARK    4  A    between atoms: C_5  and  C_6
REMARK    5  A    between atoms: C_6  and  C_8
REMARK    6  A    between atoms: C_8  and  O_9
REMARK    7  A    between atoms: O_9  and  C_10
REMARK    8  A    between atoms: C_15  and  C_16
REMARK    9  A    between atoms: C_16  and  C_18
REMARK   10  A    between atoms: C_18  and  C_19
REMARK   11  A    between atoms: C_19  and  C_20
REMARK                            x       y       z     vdW  Elec       q    Type
REMARK                         _______ _______ _______ _____ _____    ______ ____
ROOT
ATOM      1  C   UNL     1       1.229   5.445  -9.364  0.00  0.00    +0.141 A 
ATOM      2  C   UNL     1       2.464   5.462  -9.996  0.00  0.00    +0.069 A 
ATOM      3  C   UNL     1       2.489   5.699 -11.339  0.00  0.00    +0.006 A 
ATOM      4  C   UNL     1       1.330   5.997 -12.045  0.00  0.00    +0.000 A 
ATOM      5  C   UNL     1       0.214   6.356 -11.335  0.00  0.00    +0.003 A 
ATOM      6  C   UNL     1       0.250   6.238  -9.951  0.00  0.00    +0.037 A 
ENDROOT
BRANCH   2   7
ATOM      7  C   UNL     1       3.651   5.011  -9.291  0.00  0.00    +0.176 C 
ATOM      8  O   UNL     1       3.803   3.790  -9.094  0.00  0.00    -0.291 OA
BRANCH   7   9
ATOM      9  C   UNL     1       4.642   6.039  -8.845  0.00  0.00    +0.074 C 
BRANCH   9  10
ATOM     10  C   UNL     1       6.041   5.447  -8.977  0.00  0.00    +0.034 C 
BRANCH  10  11
ATOM     11  C   UNL     1       6.729   5.985 -10.160  0.00  0.00    -0.022 A 
ATOM     12  C   UNL     1       7.912   5.442 -10.582  0.00  0.00    -0.004 A 
ATOM     13  C   UNL     1       8.398   5.754 -11.845  0.00  0.00    -0.000 A 
ATOM     14  C   UNL     1       7.586   6.453 -12.701  0.00  0.00    -0.000 A 
ATOM     15  C   UNL     1       6.585   7.225 -12.172  0.00  0.00    -0.000 A 
ATOM     16  C   UNL     1       6.193   7.063 -10.851  0.00  0.00    -0.004 A 
ENDBRANCH  10  11
ENDBRANCH   9  10
ENDBRANCH   7   9
ENDBRANCH   2   7
BRANCH   1  17
ATOM     17  O   UNL     1       1.273   5.373  -7.974  0.00  0.00    -0.473 OA
BRANCH  17  18
ATOM     18  C   UNL     1       1.241   6.514  -7.159  0.00  0.00    +0.240 C 
BRANCH  18  19
ATOM     19  C   UNL     1       1.756   5.895  -5.720  0.00  0.00    +0.213 C 
ATOM     20  O   UNL     1       2.767   7.014  -5.530  0.00  0.00    -0.218 OA
BRANCH  19  21
ATOM     21  C   UNL     1       0.597   6.711  -4.874  0.00  0.00    +0.125 C 
BRANCH  21  22
ATOM     22  N   UNL     1      -0.363   5.617  -4.711  0.00  0.00    -0.215 NA
BRANCH  22  23
ATOM     23  C   UNL     1      -1.682   6.127  -5.044  0.00  0.00    +0.089 C 
BRANCH  23  25
ATOM     24  C   UNL     1      -2.420   5.547  -6.341  0.00  0.00    +0.002 C 
ATOM     25  C   UNL     1      -2.202   5.580  -6.336  0.00  0.00    +0.019 C 
ENDBRANCH  23  25
ENDBRANCH  22  23
ENDBRANCH  21  22
ENDBRANCH  19  21
ENDBRANCH  18  19
ENDBRANCH  17  18
ENDBRANCH   1  17
TORSDOF 11
ENDMDL
MODEL 9
REMARK VINA RESULT:      -7.2      2.887      8.289
REMARK  Name = 
REMARK  11 active torsions:
REMARK  status: ('A' for Active; 'I' for Inactive)
REMARK    1  A    between atoms: C_2  and  C_3
REMARK    2  A    between atoms: C_3  and  N_4
REMARK    3  A    between atoms: N_4  and  C_5
REMARK    4  A    between atoms: C_5  and  C_6
REMARK    5  A    between atoms: C_6  and  C_8
REMARK    6  A    between atoms: C_8  and  O_9
REMARK    7  A    between atoms: O_9  and  C_10
REMARK    8  A    between atoms: C_15  and  C_16
REMARK    9  A    between atoms: C_16  and  C_18
REMARK   10  A    between atoms: C_18  and  C_19
REMARK   11  A    between atoms: C_19  and  C_20
REMARK                            x       y       z     vdW  Elec       q    Type
REMARK                         _______ _______ _______ _____ _____    ______ ____
ROOT
ATOM      1  C   UNL     1       0.323   5.311  -4.891  0.00  0.00    +0.141 A 
ATOM      2  C   UNL     1       0.681   5.045  -6.204  0.00  0.00    +0.069 A 
ATOM      3  C   UNL     1      -0.280   5.171  -7.164  0.00  0.00    +0.006 A 
ATOM      4  C   UNL     1      -1.555   5.632  -6.859  0.00  0.00    +0.000 A 
ATOM      5  C   UNL     1      -1.747   6.250  -5.650  0.00  0.00    +0.003 A 
ATOM      6  C   UNL     1      -0.706   6.231  -4.730  0.00  0.00    +0.037 A 
ENDROOT
BRANCH   2   7
ATOM      7  C   UNL     1       1.962   4.429  -6.502  0.00  0.00    +0.176 C 
ATOM      8  O   UNL     1       2.100   3.206  -6.303  0.00  0.00    -0.291 OA
BRANCH   7   9
ATOM      9  C   UNL     1       3.053   5.294  -7.046  0.00  0.00    +0.074 C 
BRANCH   9  10
ATOM     10  C   UNL     1       3.516   4.706  -8.374  0.00  0.00    +0.034 C 
BRANCH  10  11
ATOM     11  C   UNL     1       4.574   5.534  -8.975  0.00  0.00    -0.022 A 
ATOM     12  C   UNL     1       5.891   5.277  -8.712  0.00  0.00    -0.004 A 
ATOM     13  C   UNL     1       6.875   5.862  -9.499  0.00  0.00    -0.000 A 
ATOM     14  C   UNL     1       6.490   6.535 -10.629  0.00  0.00    -0.000 A 
ATOM     15  C   UNL     1       5.214   7.030 -10.696  0.00  0.00    -0.000 A 
ATOM     16  C   UNL     1       4.243   6.598  -9.804  0.00  0.00    -0.004 A 
ENDBRANCH  10  11
ENDBRANCH   9  10
ENDBRANCH   7   9
ENDBRANCH   2   7
BRANCH   1  17
ATOM     17  O   UNL     1       1.377   5.336  -3.981  0.00  0.00    -0.473 OA
BRANCH  17  18
ATOM     18  C   UNL     1       1.297   6.007  -2.753  0.00  0.00    +0.240 C 
BRANCH  18  19
ATOM     19  C   UNL     1       0.643   4.837  -1.790  0.00  0.00    +0.213 C 
ATOM     20  O   UNL     1       1.790   4.929  -0.795  0.00  0.00    -0.218 OA
BRANCH  19  21
ATOM     21  C   UNL     1      -0.260   5.934  -0.950  0.00  0.00    +0.125 C 
BRANCH  21  22
ATOM     22  N   UNL     1      -1.591   5.430  -1.296  0.00  0.00    -0.215 NA
BRANCH  22  23
ATOM     23  C   UNL     1      -2.494   6.566  -1.364  0.00  0.00    +0.089 C 
BRANCH  23  25
ATOM     24  C   UNL     1      -3.664   6.584  -2.456  0.00  0.00    +0.002 C 
ATOM     25  C   UNL     1      -3.498   6.439  -2.465  0.00  0.00    +0.019 C 
ENDBRANCH  23  25
ENDBRANCH  22  23
ENDBRANCH  21  22
ENDBRANCH  19  21
ENDBRANCH  18  19
ENDBRANCH  17  18
ENDBRANCH   1  17
TORSDOF 11
ENDMDL
