MODEL 1
REMARK VINA RESULT:      -8.3      0.000      0.000
REMARK  Name = 
REMARK  4 active torsions:
REMARK  status: ('A' for Active; 'I' for Inactive)
REMARK    1  A    between atoms: O_2  and  C_3
REMARK    2  A    between atoms: C_3  and  N_5
REMARK    3  A    between atoms: C_11  and  C_12
REMARK    4  A    between atoms: C_12  and  C_14
REMARK                            x       y       z     vdW  Elec       q    Type
REMARK                         _______ _______ _______ _____ _____    ______ ____
ROOT
ATOM      1  N   UNL     1      -0.353   5.992  -3.929  0.00  0.00    -0.106 NA
ATOM      2  C   UNL     1       0.586   6.559  -4.631  0.00  0.00    +0.246 A 
ATOM      3  N   UNL     1       0.682   6.722  -5.955  0.00  0.00    -0.211 NA
ATOM      4  C   UNL     1       1.973   6.802  -6.345  0.00  0.00    +0.102 A 
ATOM      5  C   UNL     1       2.708   6.780  -5.179  0.00  0.00    +0.102 A 
ATOM      6  C   UNL     1       4.076   6.555  -5.283  0.00  0.00    +0.021 A 
ATOM      7  C   UNL     1       4.647   5.984  -6.402  0.00  0.00    +0.005 A 
ATOM      8  C   UNL     1       3.863   5.866  -7.536  0.00  0.00    +0.041 A 
ATOM      9  C   UNL     1       2.583   6.350  -7.509  0.00  0.00    +0.024 A 
ATOM     10  N   UNL     1       1.849   6.642  -4.147  0.00  0.00    -0.211 NA
ENDROOT
BRANCH   1  11
ATOM     11  C   UNL     1      -0.247   5.900  -2.520  0.00  0.00    +0.428 C 
ATOM     12  O   UNL     1      -0.893   6.686  -1.782  0.00  0.00    -0.224 OA
BRANCH  11  14
ATOM     13  C   UNL     1       1.346   4.746  -1.093  0.00  0.00    +0.257 C 
ATOM     14  O   UNL     1       0.219   4.728  -1.937  0.00  0.00    -0.429 OA
ENDBRANCH  11  14
ENDBRANCH   1  11
BRANCH   8  15
ATOM     15  C   UNL     1       4.347   5.199  -8.739  0.00  0.00    +0.196 C 
ATOM     16  O   UNL     1       3.818   4.074  -8.990  0.00  0.00    -0.287 OA
BRANCH  15  17
ATOM     17  C   UNL     1       5.344   5.781  -9.630  0.00  0.00    +0.039 A 
ATOM     18  C   UNL     1       4.922   6.848 -10.413  0.00  0.00    +0.003 A 
ATOM     19  C   UNL     1       5.828   7.560 -11.187  0.00  0.00    +0.000 A 
ATOM     20  C   UNL     1       7.148   7.550 -10.770  0.00  0.00    +0.000 A 
ATOM     21  C   UNL     1       7.583   6.403 -10.122  0.00  0.00    +0.000 A 
ATOM     22  C   UNL     1       6.694   5.642  -9.377  0.00  0.00    +0.003 A 
ENDBRANCH  15  17
ENDBRANCH   8  15
TORSDOF 4
ENDMDL
MODEL 2
REMARK VINA RESULT:      -8.1      1.622      2.082
REMARK  Name = 
REMARK  4 active torsions:
REMARK  status: ('A' for Active; 'I' for Inactive)
REMARK    1  A    between atoms: O_2  and  C_3
REMARK    2  A    between atoms: C_3  and  N_5
REMARK    3  A    between atoms: C_11  and  C_12
REMARK    4  A    between atoms: C_12  and  C_14
REMARK                            x       y       z     vdW  Elec       q    Type
REMARK                         _______ _______ _______ _____ _____    ______ ____
ROOT
ATOM      1  N   UNL     1       0.050   6.416  -3.826  0.00  0.00    -0.106 NA
ATOM      2  C   UNL     1       1.126   5.976  -4.412  0.00  0.00    +0.246 A 
ATOM      3  N   UNL     1       2.114   6.655  -5.004  0.00  0.00    -0.211 NA
ATOM      4  C   UNL     1       2.711   5.913  -5.962  0.00  0.00    +0.102 A 
ATOM      5  C   UNL     1       2.114   4.673  -5.888  0.00  0.00    +0.102 A 
ATOM      6  C   UNL     1       2.320   3.794  -6.945  0.00  0.00    +0.021 A 
ATOM      7  C   UNL     1       2.744   4.218  -8.187  0.00  0.00    +0.005 A 
ATOM      8  C   UNL     1       3.208   5.518  -8.300  0.00  0.00    +0.041 A 
ATOM      9  C   UNL     1       3.260   6.300  -7.179  0.00  0.00    +0.024 A 
ATOM     10  N   UNL     1       1.159   4.726  -4.935  0.00  0.00    -0.211 NA
ENDROOT
BRANCH   1  11
ATOM     11  C   UNL     1      -0.895   5.516  -3.278  0.00  0.00    +0.428 C 
ATOM     12  O   UNL     1      -0.715   5.020  -2.138  0.00  0.00    -0.224 OA
BRANCH  11  14
ATOM     13  C   UNL     1      -3.266   5.989  -3.024  0.00  0.00    +0.257 C 
ATOM     14  O   UNL     1      -2.191   5.484  -3.781  0.00  0.00    -0.429 OA
ENDBRANCH  11  14
ENDBRANCH   1  11
BRANCH   8  15
ATOM     15  C   UNL     1       3.596   6.087  -9.585  0.00  0.00    +0.196 C 
ATOM     16  O   UNL     1       2.641   6.510 -10.305  0.00  0.00    -0.287 OA
BRANCH  15  17
ATOM     17  C   UNL     1       4.982   6.206 -10.021  0.00  0.00    +0.039 A 
ATOM     18  C   UNL     1       5.289   7.312 -10.803  0.00  0.00    +0.003 A 
ATOM     19  C   UNL     1       6.605   7.591 -11.149  0.00  0.00    +0.000 A 
ATOM     20  C   UNL     1       7.588   7.107 -10.304  0.00  0.00    +0.000 A 
ATOM     21  C   UNL     1       7.311   5.915  -9.651  0.00  0.00    +0.000 A 
ATOM     22  C   UNL     1       6.003   5.583  -9.330  0.00  0.00    +0.003 A 
ENDBRANCH  15  17
ENDBRANCH   8  15
TORSDOF 4
ENDMDL
MODEL 3
REMARK VINA RESULT:      -7.8      3.396      8.112
REMARK  Name = 
REMARK  4 active torsions:
REMARK  status: ('A' for Active; 'I' for Inactive)
REMARK    1  A    between atoms: O_2  and  C_3
REMARK    2  A    between atoms: C_3  and  N_5
REMARK    3  A    between atoms: C_11  and  C_12
REMARK    4  A    between atoms: C_12  and  C_14
REMARK                            x       y       z     vdW  Elec       q    Type
REMARK                         _______ _______ _______ _____ _____    ______ ____
ROOT
ATOM      1  N   UNL     1       6.167   5.327 -10.645  0.00  0.00    -0.106 NA
ATOM      2  C   UNL     1       5.435   5.931  -9.754  0.00  0.00    +0.246 A 
ATOM      3  N   UNL     1       5.229   5.624  -8.468  0.00  0.00    -0.211 NA
ATOM      4  C   UNL     1       4.030   6.079  -8.044  0.00  0.00    +0.102 A 
ATOM      5  C   UNL     1       3.511   6.787  -9.107  0.00  0.00    +0.102 A 
ATOM      6  C   UNL     1       2.163   7.122  -9.062  0.00  0.00    +0.021 A 
ATOM      7  C   UNL     1       1.267   6.472  -8.238  0.00  0.00    +0.005 A 
ATOM      8  C   UNL     1       1.780   5.638  -7.260  0.00  0.00    +0.041 A 
ATOM      9  C   UNL     1       3.138   5.527  -7.132  0.00  0.00    +0.024 A 
ATOM     10  N   UNL     1       4.382   6.695 -10.133  0.00  0.00    -0.211 NA
ENDROOT
BRANCH   1  11
ATOM     11  C   UNL     1       6.229   5.808 -11.976  0.00  0.00    +0.428 C 
ATOM     12  O   UNL     1       6.980   6.771 -12.269  0.00  0.00    -0.224 OA
BRANCH  11  14
ATOM     13  C   UNL     1       4.475   5.065 -13.487  0.00  0.00    +0.257 C 
ATOM     14  O   UNL     1       5.803   4.999 -13.023  0.00  0.00    -0.429 OA
ENDBRANCH  11  14
ENDBRANCH   1  11
BRANCH   8  15
ATOM     15  C   UNL     1       0.915   4.840  -6.399  0.00  0.00    +0.196 C 
ATOM     16  O   UNL     1       1.367   3.701  -6.076  0.00  0.00    -0.287 OA
BRANCH  15  17
ATOM     17  C   UNL     1      -0.371   5.314  -5.899  0.00  0.00    +0.039 A 
ATOM     18  C   UNL     1      -0.326   6.255  -4.879  0.00  0.00    +0.003 A 
ATOM     19  C   UNL     1      -1.488   6.871  -4.433  0.00  0.00    +0.000 A 
ATOM     20  C   UNL     1      -2.540   6.943  -5.330  0.00  0.00    +0.000 A 
ATOM     21  C   UNL     1      -2.646   5.904  -6.243  0.00  0.00    +0.000 A 
ATOM     22  C   UNL     1      -1.510   5.236  -6.675  0.00  0.00    +0.003 A 
ENDBRANCH  15  17
ENDBRANCH   8  15
TORSDOF 4
ENDMDL
MODEL 4
REMARK VINA RESULT:      -7.7      3.265      8.105
REMARK  Name = 
REMARK  4 active torsions:
REMARK  status: ('A' for Active; 'I' for Inactive)
REMARK    1  A    between atoms: O_2  and  C_3
REMARK    2  A    between atoms: C_3  and  N_5
REMARK    3  A    between atoms: C_11  and  C_12
REMARK    4  A    between atoms: C_12  and  C_14
REMARK                            x       y       z     vdW  Elec       q    Type
REMARK                         _______ _______ _______ _____ _____    ______ ____
ROOT
ATOM      1  N   UNL     1       5.938   6.676 -10.652  0.00  0.00    -0.106 NA
ATOM      2  C   UNL     1       4.726   6.303 -10.356  0.00  0.00    +0.246 A 
ATOM      3  N   UNL     1       3.736   6.996  -9.784  0.00  0.00    -0.211 NA
ATOM      4  C   UNL     1       2.885   6.178  -9.126  0.00  0.00    +0.102 A 
ATOM      5  C   UNL     1       3.329   4.900  -9.390  0.00  0.00    +0.102 A 
ATOM      6  C   UNL     1       2.824   3.867  -8.609  0.00  0.00    +0.021 A 
ATOM      7  C   UNL     1       2.231   4.090  -7.383  0.00  0.00    +0.005 A 
ATOM      8  C   UNL     1       1.917   5.396  -7.047  0.00  0.00    +0.041 A 
ATOM      9  C   UNL     1       2.171   6.390  -7.953  0.00  0.00    +0.024 A 
ATOM     10  N   UNL     1       4.443   4.994 -10.146  0.00  0.00    -0.211 NA
ENDROOT
BRANCH   1  11
ATOM     11  C   UNL     1       6.851   5.767 -11.239  0.00  0.00    +0.428 C 
ATOM     12  O   UNL     1       7.769   5.254 -10.551  0.00  0.00    -0.224 OA
BRANCH  11  14
ATOM     13  C   UNL     1       7.210   5.415 -13.618  0.00  0.00    +0.257 C 
ATOM     14  O   UNL     1       6.519   5.123 -12.426  0.00  0.00    -0.429 OA
ENDBRANCH  11  14
ENDBRANCH   1  11
BRANCH   8  15
ATOM     15  C   UNL     1       1.370   5.743  -5.741  0.00  0.00    +0.196 C 
ATOM     16  O   UNL     1       2.222   5.883  -4.813  0.00  0.00    -0.287 OA
BRANCH  15  17
ATOM     17  C   UNL     1      -0.053   5.957  -5.502  0.00  0.00    +0.039 A 
ATOM     18  C   UNL     1      -0.390   7.079  -4.755  0.00  0.00    +0.003 A 
ATOM     19  C   UNL     1      -1.719   7.447  -4.592  0.00  0.00    +0.000 A 
ATOM     20  C   UNL     1      -2.605   7.037  -5.573  0.00  0.00    +0.000 A 
ATOM     21  C   UNL     1      -2.320   5.831  -6.198  0.00  0.00    +0.000 A 
ATOM     22  C   UNL     1      -1.006   5.410  -6.337  0.00  0.00    +0.003 A 
ENDBRANCH  15  17
ENDBRANCH   8  15
TORSDOF 4
ENDMDL
MODEL 5
REMARK VINA RESULT:      -7.7      2.030      2.662
REMARK  Name = 
REMARK  4 active torsions:
REMARK  status: ('A' for Active; 'I' for Inactive)
REMARK    1  A    between atoms: O_2  and  C_3
REMARK    2  A    between atoms: C_3  and  N_5
REMARK    3  A    between atoms: C_11  and  C_12
REMARK    4  A    between atoms: C_12  and  C_14
REMARK                            x       y       z     vdW  Elec       q    Type
REMARK                         _______ _______ _______ _____ _____    ______ ____
ROOT
ATOM      1  N   UNL     1       3.590   4.945  -3.604  0.00  0.00    -0.106 NA
ATOM      2  C   UNL     1       2.877   5.105  -4.682  0.00  0.00    +0.246 A 
ATOM      3  N   UNL     1       2.880   4.402  -5.819  0.00  0.00    -0.211 NA
ATOM      4  C   UNL     1       2.481   5.162  -6.863  0.00  0.00    +0.102 A 
ATOM      5  C   UNL     1       2.123   6.375  -6.316  0.00  0.00    +0.102 A 
ATOM      6  C   UNL     1       1.950   7.447  -7.183  0.00  0.00    +0.021 A 
ATOM      7  C   UNL     1       2.479   7.460  -8.458  0.00  0.00    +0.005 A 
ATOM      8  C   UNL     1       2.980   6.270  -8.958  0.00  0.00    +0.041 A 
ATOM      9  C   UNL     1       2.893   5.141  -8.191  0.00  0.00    +0.024 A 
ATOM     10  N   UNL     1       2.361   6.320  -4.989  0.00  0.00    -0.211 NA
ENDROOT
BRANCH   1  11
ATOM     11  C   UNL     1       3.449   5.828  -2.506  0.00  0.00    +0.428 C 
ATOM     12  O   UNL     1       2.691   5.533  -1.548  0.00  0.00    -0.224 OA
BRANCH  11  14
ATOM     13  C   UNL     1       4.162   8.151  -2.559  0.00  0.00    +0.257 C 
ATOM     14  O   UNL     1       4.417   6.796  -2.268  0.00  0.00    -0.429 OA
ENDBRANCH  11  14
ENDBRANCH   1  11
BRANCH   8  15
ATOM     15  C   UNL     1       3.637   6.200 -10.258  0.00  0.00    +0.196 C 
ATOM     16  O   UNL     1       2.865   6.049 -11.253  0.00  0.00    -0.287 OA
BRANCH  15  17
ATOM     17  C   UNL     1       5.079   6.329 -10.432  0.00  0.00    +0.039 A 
ATOM     18  C   UNL     1       5.523   7.485 -11.060  0.00  0.00    +0.003 A 
ATOM     19  C   UNL     1       6.880   7.768 -11.146  0.00  0.00    +0.000 A 
ATOM     20  C   UNL     1       7.697   7.205 -10.182  0.00  0.00    +0.000 A 
ATOM     21  C   UNL     1       7.305   5.971  -9.682  0.00  0.00    +0.000 A 
ATOM     22  C   UNL     1       5.960   5.638  -9.624  0.00  0.00    +0.003 A 
ENDBRANCH  15  17
ENDBRANCH   8  15
TORSDOF 4
ENDMDL
MODEL 6
REMARK VINA RESULT:      -7.7      2.809      7.692
REMARK  Name = 
REMARK  4 active torsions:
REMARK  status: ('A' for Active; 'I' for Inactive)
REMARK    1  A    between atoms: O_2  and  C_3
REMARK    2  A    between atoms: C_3  and  N_5
REMARK    3  A    between atoms: C_11  and  C_12
REMARK    4  A    between atoms: C_12  and  C_14
REMARK                            x       y       z     vdW  Elec       q    Type
REMARK                         _______ _______ _______ _____ _____    ______ ____
ROOT
ATOM      1  N   UNL     1       4.020   5.305 -10.610  0.00  0.00    -0.106 NA
ATOM      2  C   UNL     1       3.960   4.825  -9.402  0.00  0.00    +0.246 A 
ATOM      3  N   UNL     1       2.967   4.166  -8.794  0.00  0.00    -0.211 NA
ATOM      4  C   UNL     1       3.013   4.342  -7.455  0.00  0.00    +0.102 A 
ATOM      5  C   UNL     1       4.157   5.075  -7.222  0.00  0.00    +0.102 A 
ATOM      6  C   UNL     1       4.307   5.654  -5.968  0.00  0.00    +0.021 A 
ATOM      7  C   UNL     1       3.242   5.856  -5.115  0.00  0.00    +0.005 A 
ATOM      8  C   UNL     1       2.042   5.240  -5.426  0.00  0.00    +0.041 A 
ATOM      9  C   UNL     1       1.979   4.436  -6.531  0.00  0.00    +0.024 A 
ATOM     10  N   UNL     1       4.724   5.352  -8.415  0.00  0.00    -0.211 NA
ENDROOT
BRANCH   1  11
ATOM     11  C   UNL     1       5.169   6.002 -11.055  0.00  0.00    +0.428 C 
ATOM     12  O   UNL     1       6.027   5.423 -11.768  0.00  0.00    -0.224 OA
BRANCH  11  14
ATOM     13  C   UNL     1       6.349   8.103 -11.377  0.00  0.00    +0.257 C 
ATOM     14  O   UNL     1       5.173   7.392 -11.070  0.00  0.00    -0.429 OA
ENDBRANCH  11  14
ENDBRANCH   1  11
BRANCH   8  15
ATOM     15  C   UNL     1       0.837   5.462  -4.636  0.00  0.00    +0.196 C 
ATOM     16  O   UNL     1       0.856   4.981  -3.463  0.00  0.00    -0.287 OA
BRANCH  15  17
ATOM     17  C   UNL     1      -0.313   6.214  -5.126  0.00  0.00    +0.039 A 
ATOM     18  C   UNL     1      -1.234   5.506  -5.886  0.00  0.00    +0.003 A 
ATOM     19  C   UNL     1      -2.429   6.094  -6.279  0.00  0.00    +0.000 A 
ATOM     20  C   UNL     1      -2.904   7.129  -5.492  0.00  0.00    +0.000 A 
ATOM     21  C   UNL     1      -1.949   7.916  -4.864  0.00  0.00    +0.000 A 
ATOM     22  C   UNL     1      -0.726   7.373  -4.499  0.00  0.00    +0.003 A 
ENDBRANCH  15  17
ENDBRANCH   8  15
TORSDOF 4
ENDMDL
MODEL 7
REMARK VINA RESULT:      -7.6      1.657      2.280
REMARK  Name = 
REMARK  4 active torsions:
REMARK  status: ('A' for Active; 'I' for Inactive)
REMARK    1  A    between atoms: O_2  and  C_3
REMARK    2  A    between atoms: C_3  and  N_5
REMARK    3  A    between atoms: C_11  and  C_12
REMARK    4  A    between atoms: C_12  and  C_14
REMARK                            x       y       z     vdW  Elec       q    Type
REMARK                         _______ _______ _______ _____ _____    ______ ____
ROOT
ATOM      1  N   UNL     1      -2.245   6.456  -3.931  0.00  0.00    -0.106 NA
ATOM      2  C   UNL     1      -0.990   6.688  -4.191  0.00  0.00    +0.246 A 
ATOM      3  N   UNL     1      -0.424   7.163  -5.306  0.00  0.00    -0.211 NA
ATOM      4  C   UNL     1       0.851   6.732  -5.427  0.00  0.00    +0.102 A 
ATOM      5  C   UNL     1       1.110   6.028  -4.271  0.00  0.00    +0.102 A 
ATOM      6  C   UNL     1       2.244   5.224  -4.246  0.00  0.00    +0.021 A 
ATOM      7  C   UNL     1       2.878   4.805  -5.397  0.00  0.00    +0.005 A 
ATOM      8  C   UNL     1       2.512   5.407  -6.589  0.00  0.00    +0.041 A 
ATOM      9  C   UNL     1       1.578   6.406  -6.566  0.00  0.00    +0.024 A 
ATOM     10  N   UNL     1      -0.016   6.019  -3.527  0.00  0.00    -0.211 NA
ENDROOT
BRANCH   1  11
ATOM     11  C   UNL     1      -2.636   5.920  -2.680  0.00  0.00    +0.428 C 
ATOM     12  O   UNL     1      -2.698   4.676  -2.513  0.00  0.00    -0.224 OA
BRANCH  11  14
ATOM     13  C   UNL     1      -1.781   6.294  -0.435  0.00  0.00    +0.257 C 
ATOM     14  O   UNL     1      -2.557   6.706  -1.536  0.00  0.00    -0.429 OA
ENDBRANCH  11  14
ENDBRANCH   1  11
BRANCH   8  15
ATOM     15  C   UNL     1       3.060   4.973  -7.869  0.00  0.00    +0.196 C 
ATOM     16  O   UNL     1       2.535   3.929  -8.361  0.00  0.00    -0.287 OA
BRANCH  15  17
ATOM     17  C   UNL     1       4.115   5.693  -8.572  0.00  0.00    +0.039 A 
ATOM     18  C   UNL     1       5.394   5.159  -8.479  0.00  0.00    +0.003 A 
ATOM     19  C   UNL     1       6.438   5.688  -9.225  0.00  0.00    +0.000 A 
ATOM     20  C   UNL     1       6.099   6.344 -10.395  0.00  0.00    +0.000 A 
ATOM     21  C   UNL     1       4.876   7.000 -10.404  0.00  0.00    +0.000 A 
ATOM     22  C   UNL     1       3.824   6.525  -9.635  0.00  0.00    +0.003 A 
ENDBRANCH  15  17
ENDBRANCH   8  15
TORSDOF 4
ENDMDL
MODEL 8
REMARK VINA RESULT:      -7.4      3.932      5.040
REMARK  Name = 
REMARK  4 active torsions:
REMARK  status: ('A' for Active; 'I' for Inactive)
REMARK    1  A    between atoms: O_2  and  C_3
REMARK    2  A    between atoms: C_3  and  N_5
REMARK    3  A    between atoms: C_11  and  C_12
REMARK    4  A    between atoms: C_12  and  C_14
REMARK                            x       y       z     vdW  Elec       q    Type
REMARK                         _______ _______ _______ _____ _____    ______ ____
ROOT
ATOM      1  N   UNL     1      -1.143   6.801   0.275  0.00  0.00    -0.106 NA
ATOM      2  C   UNL     1      -1.351   6.383  -0.940  0.00  0.00    +0.246 A 
ATOM      3  N   UNL     1      -0.815   5.343  -1.589  0.00  0.00    -0.211 NA
ATOM      4  C   UNL     1      -0.803   5.555  -2.923  0.00  0.00    +0.102 A 
ATOM      5  C   UNL     1      -1.457   6.754  -3.109  0.00  0.00    +0.102 A 
ATOM      6  C   UNL     1      -1.340   7.366  -4.351  0.00  0.00    +0.021 A 
ATOM      7  C   UNL     1      -0.330   7.052  -5.238  0.00  0.00    +0.005 A 
ATOM      8  C   UNL     1       0.431   5.926  -4.974  0.00  0.00    +0.041 A 
ATOM      9  C   UNL     1       0.125   5.163  -3.881  0.00  0.00    +0.024 A 
ATOM     10  N   UNL     1      -1.791   7.239  -1.895  0.00  0.00    -0.211 NA
ENDROOT
BRANCH   1  11
ATOM     11  C   UNL     1      -1.802   7.954   0.766  0.00  0.00    +0.428 C 
ATOM     12  O   UNL     1      -2.853   7.843   1.446  0.00  0.00    -0.224 OA
BRANCH  11  14
ATOM     13  C   UNL     1       0.281   9.168   1.075  0.00  0.00    +0.257 C 
ATOM     14  O   UNL     1      -1.112   9.156   0.866  0.00  0.00    -0.429 OA
ENDBRANCH  11  14
ENDBRANCH   1  11
BRANCH   8  15
ATOM     15  C   UNL     1       1.574   5.560  -5.802  0.00  0.00    +0.196 C 
ATOM     16  O   UNL     1       1.291   5.079  -6.941  0.00  0.00    -0.287 OA
BRANCH  15  17
ATOM     17  C   UNL     1       2.958   5.759  -5.387  0.00  0.00    +0.039 A 
ATOM     18  C   UNL     1       3.379   7.076  -5.259  0.00  0.00    +0.003 A 
ATOM     19  C   UNL     1       4.631   7.371  -4.735  0.00  0.00    +0.000 A 
ATOM     20  C   UNL     1       5.189   6.431  -3.885  0.00  0.00    +0.000 A 
ATOM     21  C   UNL     1       4.867   5.104  -4.134  0.00  0.00    +0.000 A 
ATOM     22  C   UNL     1       3.644   4.777  -4.700  0.00  0.00    +0.003 A 
ENDBRANCH  15  17
ENDBRANCH   8  15
TORSDOF 4
ENDMDL
MODEL 9
REMARK VINA RESULT:      -7.3      2.889      8.030
REMARK  Name = 
REMARK  4 active torsions:
REMARK  status: ('A' for Active; 'I' for Inactive)
REMARK    1  A    between atoms: O_2  and  C_3
REMARK    2  A    between atoms: C_3  and  N_5
REMARK    3  A    between atoms: C_11  and  C_12
REMARK    4  A    between atoms: C_12  and  C_14
REMARK                            x       y       z     vdW  Elec       q    Type
REMARK                         _______ _______ _______ _____ _____    ______ ____
ROOT
ATOM      1  N   UNL     1       4.385   4.985 -10.496  0.00  0.00    -0.106 NA
ATOM      2  C   UNL     1       4.041   4.932  -9.241  0.00  0.00    +0.246 A 
ATOM      3  N   UNL     1       3.142   4.148  -8.635  0.00  0.00    -0.211 NA
ATOM      4  C   UNL     1       2.650   4.740  -7.525  0.00  0.00    +0.102 A 
ATOM      5  C   UNL     1       3.358   5.915  -7.392  0.00  0.00    +0.102 A 
ATOM      6  C   UNL     1       2.866   6.867  -6.507  0.00  0.00    +0.021 A 
ATOM      7  C   UNL     1       1.558   6.865  -6.070  0.00  0.00    +0.005 A 
ATOM      8  C   UNL     1       0.793   5.741  -6.333  0.00  0.00    +0.041 A 
ATOM      9  C   UNL     1       1.375   4.681  -6.973  0.00  0.00    +0.024 A 
ATOM     10  N   UNL     1       4.205   6.011  -8.439  0.00  0.00    -0.211 NA
ENDROOT
BRANCH   1  11
ATOM     11  C   UNL     1       5.352   5.918 -10.942  0.00  0.00    +0.428 C 
ATOM     12  O   UNL     1       5.016   7.095 -11.224  0.00  0.00    -0.224 OA
BRANCH  11  14
ATOM     13  C   UNL     1       7.537   6.743 -10.269  0.00  0.00    +0.257 C 
ATOM     14  O   UNL     1       6.700   5.691 -10.687  0.00  0.00    -0.429 OA
ENDBRANCH  11  14
ENDBRANCH   1  11
BRANCH   8  15
ATOM     15  C   UNL     1      -0.622   5.677  -5.990  0.00  0.00    +0.196 C 
ATOM     16  O   UNL     1      -1.397   5.327  -6.931  0.00  0.00    -0.287 OA
BRANCH  15  17
ATOM     17  C   UNL     1      -1.134   5.955  -4.653  0.00  0.00    +0.039 A 
ATOM     18  C   UNL     1      -2.461   6.360  -4.574  0.00  0.00    +0.003 A 
ATOM     19  C   UNL     1      -3.081   6.512  -3.340  0.00  0.00    +0.000 A 
ATOM     20  C   UNL     1      -2.569   5.772  -2.289  0.00  0.00    +0.000 A 
ATOM     21  C   UNL     1      -1.206   5.514  -2.320  0.00  0.00    +0.000 A 
ATOM     22  C   UNL     1      -0.545   5.401  -3.534  0.00  0.00    +0.003 A 
ENDBRANCH  15  17
ENDBRANCH   8  15
TORSDOF 4
ENDMDL
