MODEL 1
REMARK VINA RESULT:      -8.7      0.000      0.000
REMARK  Name = 
REMARK  8 active torsions:
REMARK  status: ('A' for Active; 'I' for Inactive)
REMARK    1  A    between atoms: C_2  and  N_4
REMARK    2  A    between atoms: N_7  and  C_8
REMARK    3  A    between atoms: C_11  and  O_12
REMARK    4  A    between atoms: O_12  and  C_13
REMARK    5  A    between atoms: C_13  and  C_14
REMARK    6  A    between atoms: C_17  and  C_18
REMARK    7  A    between atoms: C_17  and  C_24
REMARK    8  A    between atoms: C_18  and  N_19
REMARK                            x       y       z     vdW  Elec       q    Type
REMARK                         _______ _______ _______ _____ _____    ______ ____
ROOT
ATOM      1  C   UNL     1       2.071   7.439  -7.677  0.00  0.00    +0.191 C 
ATOM      2  O   UNL     1       2.543   7.237  -9.131  0.00  0.00    -0.325 OA
ATOM      3  C   UNL     1       3.283   6.136  -9.082  0.00  0.00    +0.231 C 
ATOM      4  O   UNL     1       3.606   5.720  -7.823  0.00  0.00    -0.327 OA
ATOM      5  C   UNL     1       3.515   6.841  -7.065  0.00  0.00    +0.178 C 
ENDROOT
BRANCH   3   6
ATOM      6  C   UNL     1       4.598   6.449  -9.730  0.00  0.00    +0.041 A 
ATOM      7  C   UNL     1       5.661   5.599  -9.470  0.00  0.00    +0.059 A 
ATOM      8 CL   UNL     1       5.614   4.624  -8.031  0.00  0.00    -0.082 Cl
ATOM      9  C   UNL     1       6.745   5.705 -10.301  0.00  0.00    +0.023 A 
ATOM     10  C   UNL     1       6.804   6.646 -11.315  0.00  0.00    +0.058 A 
ATOM     11 CL   UNL     1       7.740   6.333 -12.772  0.00  0.00    -0.082 Cl
ATOM     12  C   UNL     1       5.951   7.721 -11.198  0.00  0.00    +0.011 A 
ATOM     13  C   UNL     1       4.782   7.588 -10.502  0.00  0.00    +0.002 A 
ENDBRANCH   3   6
BRANCH   3  14
ATOM     14  C   UNL     1       2.747   4.916  -9.797  0.00  0.00    +0.190 C 
BRANCH  14  15
ATOM     15  N   UNL     1       1.803   5.239 -10.835  0.00  0.00    -0.225 N 
ATOM     16  N   UNL     1       2.247   5.419 -12.080  0.00  0.00    -0.145 NA
ATOM     17  C   UNL     1       1.229   5.301 -12.923  0.00  0.00    +0.221 A 
ATOM     18  N   UNL     1       0.134   4.989 -12.230  0.00  0.00    -0.201 NA
ATOM     19  C   UNL     1       0.591   4.662 -10.997  0.00  0.00    +0.197 A 
ENDBRANCH  14  15
ENDBRANCH   3  14
BRANCH   1  20
ATOM     20  C   UNL     1       1.329   5.928  -7.646  0.00  0.00    +0.237 C 
BRANCH  20  21
ATOM     21  O   UNL     1       0.140   6.350  -6.999  0.00  0.00    -0.473 OA
BRANCH  21  25
ATOM     22  C   UNL     1      -0.706   6.194  -3.019  0.00  0.00    +0.048 A 
ATOM     23  C   UNL     1      -1.651   6.730  -3.881  0.00  0.00    +0.018 A 
ATOM     24  C   UNL     1      -1.402   6.627  -5.245  0.00  0.00    +0.038 A 
ATOM     25  C   UNL     1      -0.203   6.092  -5.704  0.00  0.00    +0.139 A 
ATOM     26  C   UNL     1       0.550   5.320  -4.865  0.00  0.00    +0.038 A 
ATOM     27  C   UNL     1       0.187   5.264  -3.532  0.00  0.00    +0.018 A 
BRANCH  22  31
ATOM     28  N   UNL     1      -0.608   7.438   0.981  0.00  0.00    -0.271 NA
ATOM     29  C   UNL     1       0.591   6.933   0.379  0.00  0.00    +0.094 C 
ATOM     30  C   UNL     1       0.303   5.934  -0.737  0.00  0.00    +0.108 C 
ATOM     31  N   UNL     1      -0.585   6.618  -1.664  0.00  0.00    -0.305 N 
ATOM     32  C   UNL     1      -1.752   7.271  -1.092  0.00  0.00    +0.108 C 
ATOM     33  C   UNL     1      -1.801   6.853   0.373  0.00  0.00    +0.094 C 
BRANCH  28  35
ATOM     34  C   UNL     1       0.576   9.565   1.122  0.00  0.00    +0.017 C 
ATOM     35  C   UNL     1      -0.757   8.865   0.898  0.00  0.00    +0.058 C 
ATOM     36  C   UNL     1      -1.738   9.420   1.914  0.00  0.00    +0.017 C 
ENDBRANCH  28  35
ENDBRANCH  22  31
ENDBRANCH  21  25
ENDBRANCH  20  21
ENDBRANCH   1  20
TORSDOF 8
ENDMDL
MODEL 2
REMARK VINA RESULT:      -8.6      3.393     10.001
REMARK  Name = 
REMARK  8 active torsions:
REMARK  status: ('A' for Active; 'I' for Inactive)
REMARK    1  A    between atoms: C_2  and  N_4
REMARK    2  A    between atoms: N_7  and  C_8
REMARK    3  A    between atoms: C_11  and  O_12
REMARK    4  A    between atoms: O_12  and  C_13
REMARK    5  A    between atoms: C_13  and  C_14
REMARK    6  A    between atoms: C_17  and  C_18
REMARK    7  A    between atoms: C_17  and  C_24
REMARK    8  A    between atoms: C_18  and  N_19
REMARK                            x       y       z     vdW  Elec       q    Type
REMARK                         _______ _______ _______ _____ _____    ______ ____
ROOT
ATOM      1  C   UNL     1      -1.573   6.454  -5.139  0.00  0.00    +0.191 C 
ATOM      2  O   UNL     1      -0.614   7.102  -4.120  0.00  0.00    -0.325 OA
ATOM      3  C   UNL     1      -0.302   6.112  -3.293  0.00  0.00    +0.231 C 
ATOM      4  O   UNL     1      -1.079   4.998  -3.417  0.00  0.00    -0.327 OA
ATOM      5  C   UNL     1      -2.233   5.452  -3.965  0.00  0.00    +0.178 C 
ENDROOT
BRANCH   3   6
ATOM      6  C   UNL     1      -0.550   6.598  -1.897  0.00  0.00    +0.041 A 
ATOM      7  C   UNL     1       0.227   6.064  -0.882  0.00  0.00    +0.059 A 
ATOM      8 CL   UNL     1       0.986   4.521  -1.140  0.00  0.00    -0.082 Cl
ATOM      9  C   UNL     1       0.216   6.733   0.314  0.00  0.00    +0.023 A 
ATOM     10  C   UNL     1      -0.571   7.853   0.520  0.00  0.00    +0.058 A 
ATOM     11 CL   UNL     1      -0.074   9.095   1.664  0.00  0.00    -0.082 Cl
ATOM     12  C   UNL     1      -1.630   8.021  -0.344  0.00  0.00    +0.011 A 
ATOM     13  C   UNL     1      -1.571   7.493  -1.603  0.00  0.00    +0.002 A 
ENDBRANCH   3   6
BRANCH   3  14
ATOM     14  C   UNL     1       1.129   5.625  -3.315  0.00  0.00    +0.190 C 
BRANCH  14  15
ATOM     15  N   UNL     1       2.067   6.645  -3.704  0.00  0.00    -0.225 N 
ATOM     16  N   UNL     1       2.905   7.136  -2.789  0.00  0.00    -0.145 NA
ATOM     17  C   UNL     1       3.918   7.731  -3.406  0.00  0.00    +0.221 A 
ATOM     18  N   UNL     1       3.768   7.577  -4.721  0.00  0.00    -0.201 NA
ATOM     19  C   UNL     1       2.789   6.648  -4.847  0.00  0.00    +0.197 A 
ENDBRANCH  14  15
ENDBRANCH   3  14
BRANCH   1  20
ATOM     20  C   UNL     1      -0.418   5.314  -5.589  0.00  0.00    +0.237 C 
BRANCH  20  21
ATOM     21  O   UNL     1      -0.421   5.625  -6.972  0.00  0.00    -0.473 OA
BRANCH  21  25
ATOM     22  C   UNL     1       2.914   5.200  -9.271  0.00  0.00    +0.048 A 
ATOM     23  C   UNL     1       2.810   4.459  -8.102  0.00  0.00    +0.018 A 
ATOM     24  C   UNL     1       1.599   4.506  -7.423  0.00  0.00    +0.038 A 
ATOM     25  C   UNL     1       0.578   5.343  -7.859  0.00  0.00    +0.139 A 
ATOM     26  C   UNL     1       0.599   5.814  -9.142  0.00  0.00    +0.038 A 
ATOM     27  C   UNL     1       1.739   5.597  -9.894  0.00  0.00    +0.018 A 
BRANCH  22  31
ATOM     28  N   UNL     1       6.485   6.620 -10.940  0.00  0.00    -0.271 NA
ATOM     29  C   UNL     1       6.547   5.681  -9.858  0.00  0.00    +0.094 C 
ATOM     30  C   UNL     1       5.333   5.774  -8.939  0.00  0.00    +0.108 C 
ATOM     31  N   UNL     1       4.170   5.617  -9.798  0.00  0.00    -0.305 N 
ATOM     32  C   UNL     1       4.118   6.448 -10.991  0.00  0.00    +0.108 C 
ATOM     33  C   UNL     1       5.273   7.435 -10.874  0.00  0.00    +0.094 C 
BRANCH  28  35
ATOM     34  C   UNL     1       7.718   5.104 -12.399  0.00  0.00    +0.017 C 
ATOM     35  C   UNL     1       6.512   6.022 -12.247  0.00  0.00    +0.058 C 
ATOM     36  C   UNL     1       6.574   7.044 -13.367  0.00  0.00    +0.017 C 
ENDBRANCH  28  35
ENDBRANCH  22  31
ENDBRANCH  21  25
ENDBRANCH  20  21
ENDBRANCH   1  20
TORSDOF 8
ENDMDL
MODEL 3
REMARK VINA RESULT:      -8.5      3.564     10.706
REMARK  Name = 
REMARK  8 active torsions:
REMARK  status: ('A' for Active; 'I' for Inactive)
REMARK    1  A    between atoms: C_2  and  N_4
REMARK    2  A    between atoms: N_7  and  C_8
REMARK    3  A    between atoms: C_11  and  O_12
REMARK    4  A    between atoms: O_12  and  C_13
REMARK    5  A    between atoms: C_13  and  C_14
REMARK    6  A    between atoms: C_17  and  C_18
REMARK    7  A    between atoms: C_17  and  C_24
REMARK    8  A    between atoms: C_18  and  N_19
REMARK                            x       y       z     vdW  Elec       q    Type
REMARK                         _______ _______ _______ _____ _____    ______ ____
ROOT
ATOM      1  C   UNL     1       4.540   5.076  -4.658  0.00  0.00    +0.191 C 
ATOM      2  O   UNL     1       3.642   5.175  -3.408  0.00  0.00    -0.325 OA
ATOM      3  C   UNL     1       3.371   6.471  -3.305  0.00  0.00    +0.231 C 
ATOM      4  O   UNL     1       4.135   7.278  -4.096  0.00  0.00    -0.327 OA
ATOM      5  C   UNL     1       5.259   6.557  -4.329  0.00  0.00    +0.178 C 
ENDROOT
BRANCH   3   6
ATOM      6  C   UNL     1       3.699   6.888  -1.903  0.00  0.00    +0.041 A 
ATOM      7  C   UNL     1       4.024   5.893  -0.995  0.00  0.00    +0.059 A 
ATOM      8 CL   UNL     1       3.489   4.270  -1.314  0.00  0.00    -0.082 Cl
ATOM      9  C   UNL     1       4.622   6.299   0.168  0.00  0.00    +0.023 A 
ATOM     10  C   UNL     1       4.844   7.636   0.453  0.00  0.00    +0.058 A 
ATOM     11 CL   UNL     1       6.192   8.121   1.474  0.00  0.00    -0.082 Cl
ATOM     12  C   UNL     1       4.084   8.542  -0.254  0.00  0.00    +0.011 A 
ATOM     13  C   UNL     1       3.609   8.211  -1.492  0.00  0.00    +0.002 A 
ENDBRANCH   3   6
BRANCH   3  14
ATOM     14  C   UNL     1       1.938   6.893  -3.540  0.00  0.00    +0.190 C 
BRANCH  14  15
ATOM     15  N   UNL     1       0.981   6.007  -2.931  0.00  0.00    -0.225 N 
ATOM     16  N   UNL     1       0.503   6.305  -1.722  0.00  0.00    -0.145 NA
ATOM     17  C   UNL     1      -0.620   5.627  -1.522  0.00  0.00    +0.221 A 
ATOM     18  N   UNL     1      -0.901   4.931  -2.623  0.00  0.00    -0.201 NA
ATOM     19  C   UNL     1      -0.063   5.429  -3.565  0.00  0.00    +0.197 A 
ENDBRANCH  14  15
ENDBRANCH   3  14
BRANCH   1  20
ATOM     20  C   UNL     1       3.356   5.768  -5.635  0.00  0.00    +0.237 C 
BRANCH  20  21
ATOM     21  O   UNL     1       3.692   5.058  -6.815  0.00  0.00    -0.473 OA
BRANCH  21  25
ATOM     22  C   UNL     1       5.092   6.242 -10.452  0.00  0.00    +0.048 A 
ATOM     23  C   UNL     1       3.952   6.849  -9.946  0.00  0.00    +0.018 A 
ATOM     24  C   UNL     1       3.590   6.539  -8.640  0.00  0.00    +0.038 A 
ATOM     25  C   UNL     1       4.297   5.581  -7.921  0.00  0.00    +0.139 A 
ATOM     26  C   UNL     1       5.555   5.235  -8.325  0.00  0.00    +0.038 A 
ATOM     27  C   UNL     1       5.998   5.707  -9.547  0.00  0.00    +0.018 A 
BRANCH  22  31
ATOM     28  N   UNL     1       6.007   5.794 -14.516  0.00  0.00    -0.271 NA
ATOM     29  C   UNL     1       4.663   5.563 -14.075  0.00  0.00    +0.094 C 
ATOM     30  C   UNL     1       4.601   5.091 -12.626  0.00  0.00    +0.108 C 
ATOM     31  N   UNL     1       5.317   6.091 -11.851  0.00  0.00    -0.305 N 
ATOM     32  C   UNL     1       6.637   6.471 -12.330  0.00  0.00    +0.108 C 
ATOM     33  C   UNL     1       6.975   5.505 -13.459  0.00  0.00    +0.094 C 
BRANCH  28  35
ATOM     34  C   UNL     1       5.041   7.725 -15.648  0.00  0.00    +0.017 C 
ATOM     35  C   UNL     1       6.264   7.138 -14.958  0.00  0.00    +0.058 C 
ATOM     36  C   UNL     1       7.425   7.232 -15.930  0.00  0.00    +0.017 C 
ENDBRANCH  28  35
ENDBRANCH  22  31
ENDBRANCH  21  25
ENDBRANCH  20  21
ENDBRANCH   1  20
TORSDOF 8
ENDMDL
MODEL 4
REMARK VINA RESULT:      -8.3      2.921      4.517
REMARK  Name = 
REMARK  8 active torsions:
REMARK  status: ('A' for Active; 'I' for Inactive)
REMARK    1  A    between atoms: C_2  and  N_4
REMARK    2  A    between atoms: N_7  and  C_8
REMARK    3  A    between atoms: C_11  and  O_12
REMARK    4  A    between atoms: O_12  and  C_13
REMARK    5  A    between atoms: C_13  and  C_14
REMARK    6  A    between atoms: C_17  and  C_18
REMARK    7  A    between atoms: C_17  and  C_24
REMARK    8  A    between atoms: C_18  and  N_19
REMARK                            x       y       z     vdW  Elec       q    Type
REMARK                         _______ _______ _______ _____ _____    ______ ____
ROOT
ATOM      1  C   UNL     1       0.032   4.984 -10.694  0.00  0.00    +0.191 C 
ATOM      2  O   UNL     1       0.943   5.048 -11.936  0.00  0.00    -0.325 OA
ATOM      3  C   UNL     1       1.195   6.343 -12.087  0.00  0.00    +0.231 C 
ATOM      4  O   UNL     1       0.410   7.169 -11.337  0.00  0.00    -0.327 OA
ATOM      5  C   UNL     1      -0.706   6.439 -11.089  0.00  0.00    +0.178 C 
ENDROOT
BRANCH   3   6
ATOM      6  C   UNL     1       0.878   6.700 -13.508  0.00  0.00    +0.041 A 
ATOM      7  C   UNL     1       0.650   5.662 -14.396  0.00  0.00    +0.059 A 
ATOM      8 CL   UNL     1       1.290   4.090 -14.020  0.00  0.00    -0.082 Cl
ATOM      9  C   UNL     1       0.058   5.994 -15.586  0.00  0.00    +0.023 A 
ATOM     10  C   UNL     1      -0.249   7.304 -15.913  0.00  0.00    +0.058 A 
ATOM     11 CL   UNL     1      -1.599   7.665 -16.982  0.00  0.00    -0.082 Cl
ATOM     12  C   UNL     1       0.424   8.280 -15.211  0.00  0.00    +0.011 A 
ATOM     13  C   UNL     1       0.886   8.015 -13.952  0.00  0.00    +0.002 A 
ENDBRANCH   3   6
BRANCH   3  14
ATOM     14  C   UNL     1       2.619   6.796 -11.851  0.00  0.00    +0.190 C 
BRANCH  14  15
ATOM     15  N   UNL     1       3.597   5.871 -12.358  0.00  0.00    -0.225 N 
ATOM     16  N   UNL     1       4.105   6.069 -13.576  0.00  0.00    -0.145 NA
ATOM     17  C   UNL     1       5.237   5.386 -13.689  0.00  0.00    +0.221 A 
ATOM     18  N   UNL     1       5.495   4.790 -12.525  0.00  0.00    -0.201 NA
ATOM     19  C   UNL     1       4.629   5.359 -11.650  0.00  0.00    +0.197 A 
ENDBRANCH  14  15
ENDBRANCH   3  14
BRANCH   1  20
ATOM     20  C   UNL     1       1.193   5.732  -9.731  0.00  0.00    +0.237 C 
BRANCH  20  21
ATOM     21  O   UNL     1       0.871   5.044  -8.534  0.00  0.00    -0.473 OA
BRANCH  21  25
ATOM     22  C   UNL     1      -0.359   6.312  -4.864  0.00  0.00    +0.048 A 
ATOM     23  C   UNL     1       0.777   6.882  -5.421  0.00  0.00    +0.018 A 
ATOM     24  C   UNL     1       1.081   6.545  -6.735  0.00  0.00    +0.038 A 
ATOM     25  C   UNL     1       0.322   5.598  -7.414  0.00  0.00    +0.139 A 
ATOM     26  C   UNL     1      -0.929   5.291  -6.958  0.00  0.00    +0.038 A 
ATOM     27  C   UNL     1      -1.313   5.790  -5.727  0.00  0.00    +0.018 A 
BRANCH  22  31
ATOM     28  N   UNL     1      -1.131   5.965  -0.761  0.00  0.00    -0.271 NA
ATOM     29  C   UNL     1       0.156   5.579  -1.262  0.00  0.00    +0.094 C 
ATOM     30  C   UNL     1       0.095   5.107  -2.712  0.00  0.00    +0.108 C 
ATOM     31  N   UNL     1      -0.535   6.186  -3.456  0.00  0.00    -0.305 N 
ATOM     32  C   UNL     1      -1.778   6.716  -2.918  0.00  0.00    +0.108 C 
ATOM     33  C   UNL     1      -2.174   5.794  -1.770  0.00  0.00    +0.094 C 
BRANCH  28  35
ATOM     34  C   UNL     1       0.105   7.765   0.324  0.00  0.00    +0.017 C 
ATOM     35  C   UNL     1      -1.208   7.328  -0.312  0.00  0.00    +0.058 C 
ATOM     36  C   UNL     1      -2.306   7.556   0.710  0.00  0.00    +0.017 C 
ENDBRANCH  28  35
ENDBRANCH  22  31
ENDBRANCH  21  25
ENDBRANCH  20  21
ENDBRANCH   1  20
TORSDOF 8
ENDMDL
MODEL 5
REMARK VINA RESULT:      -8.3      3.728     10.923
REMARK  Name = 
REMARK  8 active torsions:
REMARK  status: ('A' for Active; 'I' for Inactive)
REMARK    1  A    between atoms: C_2  and  N_4
REMARK    2  A    between atoms: N_7  and  C_8
REMARK    3  A    between atoms: C_11  and  O_12
REMARK    4  A    between atoms: O_12  and  C_13
REMARK    5  A    between atoms: C_13  and  C_14
REMARK    6  A    between atoms: C_17  and  C_18
REMARK    7  A    between atoms: C_17  and  C_24
REMARK    8  A    between atoms: C_18  and  N_19
REMARK                            x       y       z     vdW  Elec       q    Type
REMARK                         _______ _______ _______ _____ _____    ______ ____
ROOT
ATOM      1  C   UNL     1       2.571   4.433  -7.711  0.00  0.00    +0.191 C 
ATOM      2  O   UNL     1       1.685   5.690  -7.592  0.00  0.00    -0.325 OA
ATOM      3  C   UNL     1       1.741   6.006  -6.303  0.00  0.00    +0.231 C 
ATOM      4  O   UNL     1       2.284   5.044  -5.503  0.00  0.00    -0.327 OA
ATOM      5  C   UNL     1       2.104   3.891  -6.192  0.00  0.00    +0.178 C 
ENDROOT
BRANCH   3   6
ATOM      6  C   UNL     1       0.332   6.159  -5.816  0.00  0.00    +0.041 A 
ATOM      7  C   UNL     1      -0.684   5.673  -6.623  0.00  0.00    +0.059 A 
ATOM      8 CL   UNL     1      -0.371   5.469  -8.321  0.00  0.00    -0.082 Cl
ATOM      9  C   UNL     1      -1.914   5.529  -6.038  0.00  0.00    +0.023 A 
ATOM     10  C   UNL     1      -2.150   5.899  -4.725  0.00  0.00    +0.058 A 
ATOM     11 CL   UNL     1      -3.383   5.080  -3.773  0.00  0.00    -0.082 Cl
ATOM     12  C   UNL     1      -1.251   6.783  -4.171  0.00  0.00    +0.011 A 
ATOM     13  C   UNL     1       0.033   6.830  -4.639  0.00  0.00    +0.002 A 
ENDBRANCH   3   6
BRANCH   3  14
ATOM     14  C   UNL     1       2.448   7.293  -5.944  0.00  0.00    +0.190 C 
BRANCH  14  15
ATOM     15  N   UNL     1       3.385   7.141  -4.862  0.00  0.00    -0.225 N 
ATOM     16  N   UNL     1       4.623   7.615  -5.008  0.00  0.00    -0.145 NA
ATOM     17  C   UNL     1       5.180   7.745  -3.810  0.00  0.00    +0.221 A 
ATOM     18  N   UNL     1       4.283   7.408  -2.883  0.00  0.00    -0.201 NA
ATOM     19  C   UNL     1       3.108   7.339  -3.554  0.00  0.00    +0.197 A 
ENDBRANCH  14  15
ENDBRANCH   3  14
BRANCH   1  20
ATOM     20  C   UNL     1       3.912   5.250  -7.103  0.00  0.00    +0.237 C 
BRANCH  20  21
ATOM     21  O   UNL     1       4.818   4.840  -8.114  0.00  0.00    -0.473 OA
BRANCH  21  25
ATOM     22  C   UNL     1       5.579   6.600 -11.707  0.00  0.00    +0.048 A 
ATOM     23  C   UNL     1       4.391   6.899 -11.055  0.00  0.00    +0.018 A 
ATOM     24  C   UNL     1       4.230   6.409  -9.765  0.00  0.00    +0.038 A 
ATOM     25  C   UNL     1       5.189   5.573  -9.204  0.00  0.00    +0.139 A 
ATOM     26  C   UNL     1       6.447   5.546  -9.736  0.00  0.00    +0.038 A 
ATOM     27  C   UNL     1       6.661   6.203 -10.933  0.00  0.00    +0.018 A 
BRANCH  22  31
ATOM     28  N   UNL     1       6.166   6.590 -15.856  0.00  0.00    -0.271 NA
ATOM     29  C   UNL     1       4.827   6.593 -15.341  0.00  0.00    +0.094 C 
ATOM     30  C   UNL     1       4.731   5.931 -13.971  0.00  0.00    +0.108 C 
ATOM     31  N   UNL     1       5.694   6.620 -13.127  0.00  0.00    -0.305 N 
ATOM     32  C   UNL     1       7.041   6.771 -13.656  0.00  0.00    +0.108 C 
ATOM     33  C   UNL     1       7.094   5.939 -14.932  0.00  0.00    +0.094 C 
BRANCH  28  35
ATOM     34  C   UNL     1       5.623   8.817 -16.685  0.00  0.00    +0.017 C 
ATOM     35  C   UNL     1       6.700   7.897 -16.128  0.00  0.00    +0.058 C 
ATOM     36  C   UNL     1       7.842   7.876 -17.126  0.00  0.00    +0.017 C 
ENDBRANCH  28  35
ENDBRANCH  22  31
ENDBRANCH  21  25
ENDBRANCH  20  21
ENDBRANCH   1  20
TORSDOF 8
ENDMDL
MODEL 6
REMARK VINA RESULT:      -8.3      3.531      9.851
REMARK  Name = 
REMARK  8 active torsions:
REMARK  status: ('A' for Active; 'I' for Inactive)
REMARK    1  A    between atoms: C_2  and  N_4
REMARK    2  A    between atoms: N_7  and  C_8
REMARK    3  A    between atoms: C_11  and  O_12
REMARK    4  A    between atoms: O_12  and  C_13
REMARK    5  A    between atoms: C_13  and  C_14
REMARK    6  A    between atoms: C_17  and  C_18
REMARK    7  A    between atoms: C_17  and  C_24
REMARK    8  A    between atoms: C_18  and  N_19
REMARK                            x       y       z     vdW  Elec       q    Type
REMARK                         _______ _______ _______ _____ _____    ______ ____
ROOT
ATOM      1  C   UNL     1       5.160   5.963  -4.031  0.00  0.00    +0.191 C 
ATOM      2  O   UNL     1       4.223   5.845  -2.812  0.00  0.00    -0.325 OA
ATOM      3  C   UNL     1       3.734   7.070  -2.659  0.00  0.00    +0.231 C 
ATOM      4  O   UNL     1       4.372   8.034  -3.383  0.00  0.00    -0.327 OA
ATOM      5  C   UNL     1       5.608   7.524  -3.608  0.00  0.00    +0.178 C 
ENDROOT
BRANCH   3   6
ATOM      6  C   UNL     1       3.946   7.464  -1.228  0.00  0.00    +0.041 A 
ATOM      7  C   UNL     1       4.427   6.497  -0.360  0.00  0.00    +0.059 A 
ATOM      8 CL   UNL     1       4.206   4.823  -0.775  0.00  0.00    -0.082 Cl
ATOM      9  C   UNL     1       4.912   6.941   0.841  0.00  0.00    +0.023 A 
ATOM     10  C   UNL     1       4.878   8.278   1.198  0.00  0.00    +0.058 A 
ATOM     11 CL   UNL     1       6.089   8.945   2.286  0.00  0.00    -0.082 Cl
ATOM     12  C   UNL     1       3.982   9.069   0.511  0.00  0.00    +0.011 A 
ATOM     13  C   UNL     1       3.605   8.724  -0.756  0.00  0.00    +0.002 A 
ENDBRANCH   3   6
BRANCH   3  14
ATOM     14  C   UNL     1       2.257   7.257  -2.927  0.00  0.00    +0.190 C 
BRANCH  14  15
ATOM     15  N   UNL     1       1.446   6.200  -2.383  0.00  0.00    -0.225 N 
ATOM     16  N   UNL     1       0.814   6.401  -1.226  0.00  0.00    -0.145 NA
ATOM     17  C   UNL     1      -0.164   5.512  -1.107  0.00  0.00    +0.221 A 
ATOM     18  N   UNL     1      -0.204   4.770  -2.214  0.00  0.00    -0.201 NA
ATOM     19  C   UNL     1       0.597   5.422  -3.092  0.00  0.00    +0.197 A 
ENDBRANCH  14  15
ENDBRANCH   3  14
BRANCH   1  20
ATOM     20  C   UNL     1       3.904   6.496  -5.018  0.00  0.00    +0.237 C 
BRANCH  20  21
ATOM     21  O   UNL     1       3.593   5.229  -5.574  0.00  0.00    -0.473 OA
BRANCH  21  25
ATOM     22  C   UNL     1       2.744   4.977  -9.549  0.00  0.00    +0.048 A 
ATOM     23  C   UNL     1       3.834   5.735  -9.146  0.00  0.00    +0.018 A 
ATOM     24  C   UNL     1       4.192   5.675  -7.805  0.00  0.00    +0.038 A 
ATOM     25  C   UNL     1       3.418   4.957  -6.900  0.00  0.00    +0.139 A 
ATOM     26  C   UNL     1       2.554   4.005  -7.364  0.00  0.00    +0.038 A 
ATOM     27  C   UNL     1       2.341   3.932  -8.729  0.00  0.00    +0.018 A 
BRANCH  22  31
ATOM     28  N   UNL     1       0.771   5.899 -13.129  0.00  0.00    -0.271 NA
ATOM     29  C   UNL     1       0.024   5.321 -12.050  0.00  0.00    +0.094 C 
ATOM     30  C   UNL     1       0.888   4.444 -11.150  0.00  0.00    +0.108 C 
ATOM     31  N   UNL     1       1.997   5.283 -10.723  0.00  0.00    -0.305 N 
ATOM     32  C   UNL     1       2.710   6.007 -11.764  0.00  0.00    +0.108 C 
ATOM     33  C   UNL     1       2.173   5.486 -13.091  0.00  0.00    +0.094 C 
BRANCH  28  35
ATOM     34  C   UNL     1      -0.367   7.887 -12.292  0.00  0.00    +0.017 C 
ATOM     35  C   UNL     1       0.762   7.337 -13.153  0.00  0.00    +0.058 C 
ATOM     36  C   UNL     1       0.590   7.906 -14.548  0.00  0.00    +0.017 C 
ENDBRANCH  28  35
ENDBRANCH  22  31
ENDBRANCH  21  25
ENDBRANCH  20  21
ENDBRANCH   1  20
TORSDOF 8
ENDMDL
MODEL 7
REMARK VINA RESULT:      -8.2      1.546      2.048
REMARK  Name = 
REMARK  8 active torsions:
REMARK  status: ('A' for Active; 'I' for Inactive)
REMARK    1  A    between atoms: C_2  and  N_4
REMARK    2  A    between atoms: N_7  and  C_8
REMARK    3  A    between atoms: C_11  and  O_12
REMARK    4  A    between atoms: O_12  and  C_13
REMARK    5  A    between atoms: C_13  and  C_14
REMARK    6  A    between atoms: C_17  and  C_18
REMARK    7  A    between atoms: C_17  and  C_24
REMARK    8  A    between atoms: C_18  and  N_19
REMARK                            x       y       z     vdW  Elec       q    Type
REMARK                         _______ _______ _______ _____ _____    ______ ____
ROOT
ATOM      1  C   UNL     1       0.279   6.434  -6.373  0.00  0.00    +0.191 C 
ATOM      2  O   UNL     1       0.760   6.853  -7.777  0.00  0.00    -0.325 OA
ATOM      3  C   UNL     1       1.117   5.711  -8.352  0.00  0.00    +0.231 C 
ATOM      4  O   UNL     1       1.211   4.648  -7.501  0.00  0.00    -0.327 OA
ATOM      5  C   UNL     1       1.423   5.208  -6.285  0.00  0.00    +0.178 C 
ENDROOT
BRANCH   3   6
ATOM      6  C   UNL     1       2.504   5.893  -8.890  0.00  0.00    +0.041 A 
ATOM      7  C   UNL     1       3.198   4.758  -9.278  0.00  0.00    +0.059 A 
ATOM      8 CL   UNL     1       2.721   3.224  -8.612  0.00  0.00    -0.082 Cl
ATOM      9  C   UNL     1       4.311   4.957 -10.051  0.00  0.00    +0.023 A 
ATOM     10  C   UNL     1       4.757   6.224 -10.385  0.00  0.00    +0.058 A 
ATOM     11 CL   UNL     1       5.636   6.496 -11.885  0.00  0.00    -0.082 Cl
ATOM     12  C   UNL     1       4.308   7.256  -9.590  0.00  0.00    +0.011 A 
ATOM     13  C   UNL     1       3.116   7.138  -8.932  0.00  0.00    +0.002 A 
ENDBRANCH   3   6
BRANCH   3  14
ATOM     14  C   UNL     1       0.277   5.237  -9.516  0.00  0.00    +0.190 C 
BRANCH  14  15
ATOM     15  N   UNL     1       0.477   6.015 -10.711  0.00  0.00    -0.225 N 
ATOM     16  N   UNL     1       0.782   5.388 -11.848  0.00  0.00    -0.145 NA
ATOM     17  C   UNL     1       0.527   6.196 -12.869  0.00  0.00    +0.221 A 
ATOM     18  N   UNL     1       0.004   7.328 -12.399  0.00  0.00    -0.201 NA
ATOM     19  C   UNL     1      -0.292   7.056 -11.104  0.00  0.00    +0.197 A 
ENDBRANCH  14  15
ENDBRANCH   3  14
BRANCH   1  20
ATOM     20  C   UNL     1      -0.895   5.412  -7.015  0.00  0.00    +0.237 C 
BRANCH  20  21
ATOM     21  O   UNL     1      -2.010   6.073  -6.439  0.00  0.00    -0.473 OA
BRANCH  21  25
ATOM     22  C   UNL     1      -1.946   6.921  -2.456  0.00  0.00    +0.048 A 
ATOM     23  C   UNL     1      -2.050   7.968  -3.360  0.00  0.00    +0.018 A 
ATOM     24  C   UNL     1      -2.227   7.640  -4.699  0.00  0.00    +0.038 A 
ATOM     25  C   UNL     1      -2.201   6.312  -5.109  0.00  0.00    +0.139 A 
ATOM     26  C   UNL     1      -2.396   5.322  -4.188  0.00  0.00    +0.038 A 
ATOM     27  C   UNL     1      -2.415   5.675  -2.851  0.00  0.00    +0.018 A 
BRANCH  22  31
ATOM     28  N   UNL     1      -0.331   7.344   1.386  0.00  0.00    -0.271 NA
ATOM     29  C   UNL     1       0.542   7.025   0.295  0.00  0.00    +0.094 C 
ATOM     30  C   UNL     1      -0.171   6.257  -0.813  0.00  0.00    +0.108 C 
ATOM     31  N   UNL     1      -1.317   7.070  -1.187  0.00  0.00    -0.305 N 
ATOM     32  C   UNL     1      -2.167   7.543  -0.105  0.00  0.00    +0.108 C 
ATOM     33  C   UNL     1      -1.683   6.838   1.157  0.00  0.00    +0.094 C 
BRANCH  28  35
ATOM     34  C   UNL     1       0.789   9.502   1.199  0.00  0.00    +0.017 C 
ATOM     35  C   UNL     1      -0.455   8.751   1.655  0.00  0.00    +0.058 C 
ATOM     36  C   UNL     1      -0.658   9.060   3.126  0.00  0.00    +0.017 C 
ENDBRANCH  28  35
ENDBRANCH  22  31
ENDBRANCH  21  25
ENDBRANCH  20  21
ENDBRANCH   1  20
TORSDOF 8
ENDMDL
MODEL 8
REMARK VINA RESULT:      -8.2      2.872      4.504
REMARK  Name = 
REMARK  8 active torsions:
REMARK  status: ('A' for Active; 'I' for Inactive)
REMARK    1  A    between atoms: C_2  and  N_4
REMARK    2  A    between atoms: N_7  and  C_8
REMARK    3  A    between atoms: C_11  and  O_12
REMARK    4  A    between atoms: O_12  and  C_13
REMARK    5  A    between atoms: C_13  and  C_14
REMARK    6  A    between atoms: C_17  and  C_18
REMARK    7  A    between atoms: C_17  and  C_24
REMARK    8  A    between atoms: C_18  and  N_19
REMARK                            x       y       z     vdW  Elec       q    Type
REMARK                         _______ _______ _______ _____ _____    ______ ____
ROOT
ATOM      1  C   UNL     1       4.212   4.723  -8.284  0.00  0.00    +0.191 C 
ATOM      2  O   UNL     1       3.563   5.828  -9.143  0.00  0.00    -0.325 OA
ATOM      3  C   UNL     1       2.259   5.621  -9.006  0.00  0.00    +0.231 C 
ATOM      4  O   UNL     1       1.927   4.429  -8.432  0.00  0.00    -0.327 OA
ATOM      5  C   UNL     1       2.996   3.631  -8.670  0.00  0.00    +0.178 C 
ENDROOT
BRANCH   3   6
ATOM      6  C   UNL     1       1.667   5.561 -10.382  0.00  0.00    +0.041 A 
ATOM      7  C   UNL     1       2.476   5.928 -11.446  0.00  0.00    +0.059 A 
ATOM      8 CL   UNL     1       3.845   6.952 -11.136  0.00  0.00    -0.082 Cl
ATOM      9  C   UNL     1       2.041   5.570 -12.695  0.00  0.00    +0.023 A 
ATOM     10  C   UNL     1       0.833   4.924 -12.895  0.00  0.00    +0.058 A 
ATOM     11 CL   UNL     1       0.615   3.839 -14.264  0.00  0.00    -0.082 Cl
ATOM     12  C   UNL     1      -0.089   5.028 -11.877  0.00  0.00    +0.011 A 
ATOM     13  C   UNL     1       0.336   5.229 -10.594  0.00  0.00    +0.002 A 
ENDBRANCH   3   6
BRANCH   3  14
ATOM     14  C   UNL     1       1.473   6.675  -8.260  0.00  0.00    +0.190 C 
BRANCH  14  15
ATOM     15  N   UNL     1       0.674   6.135  -7.193  0.00  0.00    -0.225 N 
ATOM     16  N   UNL     1       0.593   6.805  -6.042  0.00  0.00    -0.145 NA
ATOM     17  C   UNL     1      -0.468   6.380  -5.368  0.00  0.00    +0.221 A 
ATOM     18  N   UNL     1      -1.110   5.475  -6.106  0.00  0.00    -0.201 NA
ATOM     19  C   UNL     1      -0.550   5.578  -7.336  0.00  0.00    +0.197 A 
ENDBRANCH  14  15
ENDBRANCH   3  14
BRANCH   1  20
ATOM     20  C   UNL     1       3.417   5.253  -6.898  0.00  0.00    +0.237 C 
BRANCH  20  21
ATOM     21  O   UNL     1       4.580   5.658  -6.195  0.00  0.00    -0.473 OA
BRANCH  21  25
ATOM     22  C   UNL     1       4.107   6.732  -2.295  0.00  0.00    +0.048 A 
ATOM     23  C   UNL     1       4.474   5.426  -2.588  0.00  0.00    +0.018 A 
ATOM     24  C   UNL     1       4.780   5.131  -3.911  0.00  0.00    +0.038 A 
ATOM     25  C   UNL     1       4.625   6.094  -4.902  0.00  0.00    +0.139 A 
ATOM     26  C   UNL     1       4.557   7.412  -4.550  0.00  0.00    +0.038 A 
ATOM     27  C   UNL     1       4.447   7.721  -3.207  0.00  0.00    +0.018 A 
BRANCH  22  31
ATOM     28  N   UNL     1       1.670   7.566   1.010  0.00  0.00    -0.271 NA
ATOM     29  C   UNL     1       3.068   7.880   1.078  0.00  0.00    +0.094 C 
ATOM     30  C   UNL     1       3.911   6.966   0.194  0.00  0.00    +0.108 C 
ATOM     31  N   UNL     1       3.343   7.067  -1.140  0.00  0.00    -0.305 N 
ATOM     32  C   UNL     1       1.903   6.895  -1.255  0.00  0.00    +0.108 C 
ATOM     33  C   UNL     1       1.416   6.438   0.115  0.00  0.00    +0.094 C 
BRANCH  28  35
ATOM     34  C   UNL     1       1.400   9.990   1.015  0.00  0.00    +0.017 C 
ATOM     35  C   UNL     1       0.841   8.650   0.557  0.00  0.00    +0.058 C 
ATOM     36  C   UNL     1      -0.587   8.556   1.061  0.00  0.00    +0.017 C 
ENDBRANCH  28  35
ENDBRANCH  22  31
ENDBRANCH  21  25
ENDBRANCH  20  21
ENDBRANCH   1  20
TORSDOF 8
ENDMDL
MODEL 9
REMARK VINA RESULT:      -8.2      3.408      5.167
REMARK  Name = 
REMARK  8 active torsions:
REMARK  status: ('A' for Active; 'I' for Inactive)
REMARK    1  A    between atoms: C_2  and  N_4
REMARK    2  A    between atoms: N_7  and  C_8
REMARK    3  A    between atoms: C_11  and  O_12
REMARK    4  A    between atoms: O_12  and  C_13
REMARK    5  A    between atoms: C_13  and  C_14
REMARK    6  A    between atoms: C_17  and  C_18
REMARK    7  A    between atoms: C_17  and  C_24
REMARK    8  A    between atoms: C_18  and  N_19
REMARK                            x       y       z     vdW  Elec       q    Type
REMARK                         _______ _______ _______ _____ _____    ______ ____
ROOT
ATOM      1  C   UNL     1       3.820   5.649  -6.565  0.00  0.00    +0.191 C 
ATOM      2  O   UNL     1       2.461   6.284  -6.922  0.00  0.00    -0.325 OA
ATOM      3  C   UNL     1       1.694   5.249  -7.243  0.00  0.00    +0.231 C 
ATOM      4  O   UNL     1       2.364   4.074  -7.419  0.00  0.00    -0.327 OA
ATOM      5  C   UNL     1       3.630   4.451  -7.725  0.00  0.00    +0.178 C 
ENDROOT
BRANCH   3   6
ATOM      6  C   UNL     1       1.079   5.542  -8.579  0.00  0.00    +0.041 A 
ATOM      7  C   UNL     1       1.387   6.754  -9.176  0.00  0.00    +0.059 A 
ATOM      8 CL   UNL     1       1.939   8.060  -8.171  0.00  0.00    -0.082 Cl
ATOM      9  C   UNL     1       1.087   6.873 -10.507  0.00  0.00    +0.023 A 
ATOM     10  C   UNL     1       0.460   5.859 -11.212  0.00  0.00    +0.058 A 
ATOM     11 CL   UNL     1       0.740   5.665 -12.939  0.00  0.00    -0.082 Cl
ATOM     12  C   UNL     1      -0.217   4.924 -10.460  0.00  0.00    +0.011 A 
ATOM     13  C   UNL     1       0.170   4.677  -9.173  0.00  0.00    +0.002 A 
ENDBRANCH   3   6
BRANCH   3  14
ATOM     14  C   UNL     1       0.542   4.936  -6.315  0.00  0.00    +0.190 C 
BRANCH  14  15
ATOM     15  N   UNL     1      -0.241   6.095  -5.974  0.00  0.00    -0.225 N 
ATOM     16  N   UNL     1      -1.567   6.040  -6.106  0.00  0.00    -0.145 NA
ATOM     17  C   UNL     1      -2.113   7.011  -5.383  0.00  0.00    +0.221 A 
ATOM     18  N   UNL     1      -1.145   7.660  -4.738  0.00  0.00    -0.201 NA
ATOM     19  C   UNL     1      -0.049   6.877  -4.888  0.00  0.00    +0.197 A 
ENDBRANCH  14  15
ENDBRANCH   3  14
BRANCH   1  20
ATOM     20  C   UNL     1       3.127   4.708  -5.352  0.00  0.00    +0.237 C 
BRANCH  20  21
ATOM     21  O   UNL     1       4.265   4.678  -4.507  0.00  0.00    -0.473 OA
BRANCH  21  25
ATOM     22  C   UNL     1       4.199   7.044  -1.193  0.00  0.00    +0.048 A 
ATOM     23  C   UNL     1       3.936   5.689  -1.052  0.00  0.00    +0.018 A 
ATOM     24  C   UNL     1       4.120   4.883  -2.169  0.00  0.00    +0.038 A 
ATOM     25  C   UNL     1       4.459   5.444  -3.395  0.00  0.00    +0.139 A 
ATOM     26  C   UNL     1       4.991   6.702  -3.432  0.00  0.00    +0.038 A 
ATOM     27  C   UNL     1       4.987   7.443  -2.264  0.00  0.00    +0.018 A 
BRANCH  22  31
ATOM     28  N   UNL     1       2.669   9.820   1.546  0.00  0.00    -0.271 NA
ATOM     29  C   UNL     1       2.535  10.080   0.143  0.00  0.00    +0.094 C 
ATOM     30  C   UNL     1       3.650   9.435  -0.675  0.00  0.00    +0.108 C 
ATOM     31  N   UNL     1       3.633   8.023  -0.328  0.00  0.00    -0.305 N 
ATOM     32  C   UNL     1       3.627   7.697   1.090  0.00  0.00    +0.108 C 
ATOM     33  C   UNL     1       3.851   9.009   1.831  0.00  0.00    +0.094 C 
BRANCH  28  35
ATOM     34  C   UNL     1       0.284   9.367   1.313  0.00  0.00    +0.017 C 
ATOM     35  C   UNL     1       1.547   9.138   2.132  0.00  0.00    +0.058 C 
ATOM     36  C   UNL     1       1.255   9.586   3.552  0.00  0.00    +0.017 C 
ENDBRANCH  28  35
ENDBRANCH  22  31
ENDBRANCH  21  25
ENDBRANCH  20  21
ENDBRANCH   1  20
TORSDOF 8
ENDMDL
