MODEL 1
REMARK VINA RESULT:      -5.5      0.000      0.000
REMARK  Name = 
REMARK  0 active torsions:
REMARK  status: ('A' for Active; 'I' for Inactive)
REMARK                            x       y       z     vdW  Elec       q    Type
REMARK                         _______ _______ _______ _____ _____    ______ ____
ROOT
ATOM      1  C   UNL     1       3.024   6.869  -4.189  0.00  0.00    +0.044 C 
ATOM      2  C   UNL     1       2.005   6.771  -5.437  0.00  0.00    +0.163 C 
ATOM      3  S   UNL     1       1.956   4.840  -5.376  0.00  0.00    -0.109 S 
ATOM      4  C   UNL     1       0.181   4.969  -5.793  0.00  0.00    +0.088 C 
ATOM      5  C   UNL     1      -0.143   6.103  -4.896  0.00  0.00    +0.118 C 
ATOM      6  C   UNL     1      -1.440   6.716  -5.416  0.00  0.00    +0.030 C 
ATOM      7  C   UNL     1      -1.899   7.837  -4.518  0.00  0.00    +0.020 C 
ATOM      8  C   UNL     1      -1.846   7.403  -3.079  0.00  0.00    +0.072 C 
ATOM      9  N   UNL     1      -1.783   5.951  -3.062  0.00  0.00    -0.271 NA
ATOM     10  C   UNL     1      -2.831   5.359  -3.891  0.00  0.00    +0.072 C 
ATOM     11  C   UNL     1      -2.517   5.638  -5.347  0.00  0.00    +0.020 C 
ATOM     12  C   UNL     1      -0.546   5.436  -3.574  0.00  0.00    +0.100 C 
ATOM     13  O   UNL     1       0.818   6.928  -4.587  0.00  0.00    -0.348 OA
ENDROOT
TORSDOF 0
ENDMDL
MODEL 2
REMARK VINA RESULT:      -5.5      7.345      9.486
REMARK  Name = 
REMARK  0 active torsions:
REMARK  status: ('A' for Active; 'I' for Inactive)
REMARK                            x       y       z     vdW  Elec       q    Type
REMARK                         _______ _______ _______ _____ _____    ______ ____
ROOT
ATOM      1  C   UNL     1       2.083   6.430 -10.183  0.00  0.00    +0.044 C 
ATOM      2  C   UNL     1       3.416   6.759  -9.334  0.00  0.00    +0.163 C 
ATOM      3  S   UNL     1       3.790   4.892  -9.007  0.00  0.00    -0.109 S 
ATOM      4  C   UNL     1       5.557   5.311  -9.214  0.00  0.00    +0.088 C 
ATOM      5  C   UNL     1       5.403   6.210 -10.381  0.00  0.00    +0.118 C 
ATOM      6  C   UNL     1       6.664   7.070 -10.441  0.00  0.00    +0.030 C 
ATOM      7  C   UNL     1       6.639   7.970 -11.650  0.00  0.00    +0.020 C 
ATOM      8  C   UNL     1       6.257   7.184 -12.874  0.00  0.00    +0.072 C 
ATOM      9  N   UNL     1       6.453   5.777 -12.570  0.00  0.00    -0.271 NA
ATOM     10  C   UNL     1       7.782   5.528 -12.015  0.00  0.00    +0.072 C 
ATOM     11  C   UNL     1       7.850   6.131 -10.625  0.00  0.00    +0.020 C 
ATOM     12  C   UNL     1       5.526   5.278 -11.594  0.00  0.00    +0.100 C 
ATOM     13  O   UNL     1       4.263   6.822 -10.532  0.00  0.00    -0.348 OA
ENDROOT
TORSDOF 0
ENDMDL
MODEL 3
REMARK VINA RESULT:      -5.3      7.283      9.340
REMARK  Name = 
REMARK  0 active torsions:
REMARK  status: ('A' for Active; 'I' for Inactive)
REMARK                            x       y       z     vdW  Elec       q    Type
REMARK                         _______ _______ _______ _____ _____    ______ ____
ROOT
ATOM      1  C   UNL     1       3.844   5.508  -7.703  0.00  0.00    +0.044 C 
ATOM      2  C   UNL     1       4.166   4.665  -9.041  0.00  0.00    +0.163 C 
ATOM      3  S   UNL     1       2.808   5.582 -10.067  0.00  0.00    -0.109 S 
ATOM      4  C   UNL     1       3.967   5.516 -11.477  0.00  0.00    +0.088 C 
ATOM      5  C   UNL     1       5.197   5.864 -10.729  0.00  0.00    +0.118 C 
ATOM      6  C   UNL     1       6.375   5.399 -11.581  0.00  0.00    +0.030 C 
ATOM      7  C   UNL     1       7.684   5.782 -10.937  0.00  0.00    +0.020 C 
ATOM      8  C   UNL     1       7.647   7.221 -10.502  0.00  0.00    +0.072 C 
ATOM      9  N   UNL     1       6.555   7.865 -11.213  0.00  0.00    -0.271 NA
ATOM     10  C   UNL     1       6.627   7.612 -12.650  0.00  0.00    +0.072 C 
ATOM     11  C   UNL     1       6.309   6.152 -12.905  0.00  0.00    +0.020 C 
ATOM     12  C   UNL     1       5.262   7.396 -10.801  0.00  0.00    +0.100 C 
ATOM     13  O   UNL     1       5.238   5.578  -9.458  0.00  0.00    -0.348 OA
ENDROOT
TORSDOF 0
ENDMDL
MODEL 4
REMARK VINA RESULT:      -5.3      3.178      5.197
REMARK  Name = 
REMARK  0 active torsions:
REMARK  status: ('A' for Active; 'I' for Inactive)
REMARK                            x       y       z     vdW  Elec       q    Type
REMARK                         _______ _______ _______ _____ _____    ______ ____
ROOT
ATOM      1  C   UNL     1       0.446   4.540  -6.129  0.00  0.00    +0.044 C 
ATOM      2  C   UNL     1       1.928   4.921  -6.645  0.00  0.00    +0.163 C 
ATOM      3  S   UNL     1       1.472   6.782  -6.895  0.00  0.00    -0.109 S 
ATOM      4  C   UNL     1       3.148   7.174  -6.282  0.00  0.00    +0.088 C 
ATOM      5  C   UNL     1       3.179   6.193  -5.173  0.00  0.00    +0.118 C 
ATOM      6  C   UNL     1       4.648   5.981  -4.815  0.00  0.00    +0.030 C 
ATOM      7  C   UNL     1       4.782   5.052  -3.636  0.00  0.00    +0.020 C 
ATOM      8  C   UNL     1       3.837   5.464  -2.541  0.00  0.00    +0.072 C 
ATOM      9  N   UNL     1       3.432   6.834  -2.805  0.00  0.00    -0.271 NA
ATOM     10  C   UNL     1       4.585   7.700  -3.042  0.00  0.00    +0.072 C 
ATOM     11  C   UNL     1       5.210   7.327  -4.372  0.00  0.00    +0.020 C 
ATOM     12  C   UNL     1       2.607   6.961  -3.974  0.00  0.00    +0.100 C 
ATOM     13  O   UNL     1       2.438   5.126  -5.283  0.00  0.00    -0.348 OA
ENDROOT
TORSDOF 0
ENDMDL
MODEL 5
REMARK VINA RESULT:      -5.2      5.879      7.028
REMARK  Name = 
REMARK  0 active torsions:
REMARK  status: ('A' for Active; 'I' for Inactive)
REMARK                            x       y       z     vdW  Elec       q    Type
REMARK                         _______ _______ _______ _____ _____    ______ ____
ROOT
ATOM      1  C   UNL     1       4.007   4.190  -8.844  0.00  0.00    +0.044 C 
ATOM      2  C   UNL     1       2.536   4.744  -8.478  0.00  0.00    +0.163 C 
ATOM      3  S   UNL     1       3.127   6.583  -8.440  0.00  0.00    -0.109 S 
ATOM      4  C   UNL     1       1.523   7.012  -9.204  0.00  0.00    +0.088 C 
ATOM      5  C   UNL     1       1.473   5.897 -10.178  0.00  0.00    +0.118 C 
ATOM      6  C   UNL     1       0.013   5.748 -10.599  0.00  0.00    +0.030 C 
ATOM      7  C   UNL     1      -0.133   4.682 -11.655  0.00  0.00    +0.020 C 
ATOM      8  C   UNL     1       0.900   4.874 -12.731  0.00  0.00    +0.072 C 
ATOM      9  N   UNL     1       1.401   6.234 -12.619  0.00  0.00    -0.271 NA
ATOM     10  C   UNL     1       0.311   7.205 -12.571  0.00  0.00    +0.072 C 
ATOM     11  C   UNL     1      -0.413   7.060 -11.247  0.00  0.00    +0.020 C 
ATOM     12  C   UNL     1       2.169   6.454 -11.427  0.00  0.00    +0.100 C 
ATOM     13  O   UNL     1       2.117   4.802  -9.884  0.00  0.00    -0.348 OA
ENDROOT
TORSDOF 0
ENDMDL
MODEL 6
REMARK VINA RESULT:      -5.2      5.285      6.424
REMARK  Name = 
REMARK  0 active torsions:
REMARK  status: ('A' for Active; 'I' for Inactive)
REMARK                            x       y       z     vdW  Elec       q    Type
REMARK                         _______ _______ _______ _____ _____    ______ ____
ROOT
ATOM      1  C   UNL     1       6.809   6.612 -10.644  0.00  0.00    +0.044 C 
ATOM      2  C   UNL     1       5.350   7.252 -10.898  0.00  0.00    +0.163 C 
ATOM      3  S   UNL     1       4.757   5.739 -11.944  0.00  0.00    -0.109 S 
ATOM      4  C   UNL     1       3.125   5.953 -11.149  0.00  0.00    +0.088 C 
ATOM      5  C   UNL     1       3.616   6.212  -9.776  0.00  0.00    +0.118 C 
ATOM      6  C   UNL     1       2.478   6.902  -9.027  0.00  0.00    +0.030 C 
ATOM      7  C   UNL     1       2.853   7.138  -7.586  0.00  0.00    +0.020 C 
ATOM      8  C   UNL     1       3.439   5.887  -6.991  0.00  0.00    +0.072 C 
ATOM      9  N   UNL     1       3.062   4.776  -7.849  0.00  0.00    -0.271 NA
ATOM     10  C   UNL     1       1.626   4.768  -8.118  0.00  0.00    +0.072 C 
ATOM     11  C   UNL     1       1.291   5.945  -9.014  0.00  0.00    +0.020 C 
ATOM     12  C   UNL     1       3.697   4.819  -9.135  0.00  0.00    +0.100 C 
ATOM     13  O   UNL     1       4.807   6.723  -9.641  0.00  0.00    -0.348 OA
ENDROOT
TORSDOF 0
ENDMDL
MODEL 7
REMARK VINA RESULT:      -5.2      2.535      4.697
REMARK  Name = 
REMARK  0 active torsions:
REMARK  status: ('A' for Active; 'I' for Inactive)
REMARK                            x       y       z     vdW  Elec       q    Type
REMARK                         _______ _______ _______ _____ _____    ______ ____
ROOT
ATOM      1  C   UNL     1      -2.375   5.375  -5.969  0.00  0.00    +0.044 C 
ATOM      2  C   UNL     1      -1.404   6.618  -5.625  0.00  0.00    +0.163 C 
ATOM      3  S   UNL     1      -0.699   5.759  -4.044  0.00  0.00    -0.109 S 
ATOM      4  C   UNL     1       0.918   6.484  -4.491  0.00  0.00    +0.088 C 
ATOM      5  C   UNL     1       0.851   6.216  -5.946  0.00  0.00    +0.118 C 
ATOM      6  C   UNL     1       1.853   7.156  -6.612  0.00  0.00    +0.030 C 
ATOM      7  C   UNL     1       1.916   6.903  -8.097  0.00  0.00    +0.020 C 
ATOM      8  C   UNL     1       2.038   5.429  -8.368  0.00  0.00    +0.072 C 
ATOM      9  N   UNL     1       2.475   4.793  -7.137  0.00  0.00    -0.271 NA
ATOM     10  C   UNL     1       3.647   5.459  -6.574  0.00  0.00    +0.072 C 
ATOM     11  C   UNL     1       3.233   6.822  -6.057  0.00  0.00    +0.020 C 
ATOM     12  C   UNL     1       1.479   4.825  -6.103  0.00  0.00    +0.100 C 
ATOM     13  O   UNL     1      -0.328   6.125  -6.494  0.00  0.00    -0.348 OA
ENDROOT
TORSDOF 0
ENDMDL
MODEL 8
REMARK VINA RESULT:      -5.1      1.586      2.837
REMARK  Name = 
REMARK  0 active torsions:
REMARK  status: ('A' for Active; 'I' for Inactive)
REMARK                            x       y       z     vdW  Elec       q    Type
REMARK                         _______ _______ _______ _____ _____    ______ ____
ROOT
ATOM      1  C   UNL     1      -0.536   5.455  -7.477  0.00  0.00    +0.044 C 
ATOM      2  C   UNL     1       0.088   4.929  -6.084  0.00  0.00    +0.163 C 
ATOM      3  S   UNL     1       1.169   6.515  -5.854  0.00  0.00    -0.109 S 
ATOM      4  C   UNL     1       0.795   6.391  -4.069  0.00  0.00    +0.088 C 
ATOM      5  C   UNL     1      -0.642   6.053  -4.199  0.00  0.00    +0.118 C 
ATOM      6  C   UNL     1      -1.065   5.422  -2.875  0.00  0.00    +0.030 C 
ATOM      7  C   UNL     1      -2.540   5.112  -2.878  0.00  0.00    +0.020 C 
ATOM      8  C   UNL     1      -3.318   6.297  -3.380  0.00  0.00    +0.072 C 
ATOM      9  N   UNL     1      -2.451   7.460  -3.289  0.00  0.00    -0.271 NA
ATOM     10  C   UNL     1      -1.850   7.579  -1.963  0.00  0.00    +0.072 C 
ATOM     11  C   UNL     1      -0.843   6.460  -1.781  0.00  0.00    +0.020 C 
ATOM     12  C   UNL     1      -1.351   7.414  -4.210  0.00  0.00    +0.100 C 
ATOM     13  O   UNL     1      -1.030   5.454  -5.289  0.00  0.00    -0.348 OA
ENDROOT
TORSDOF 0
ENDMDL
MODEL 9
REMARK VINA RESULT:      -5.1      4.069      5.596
REMARK  Name = 
REMARK  0 active torsions:
REMARK  status: ('A' for Active; 'I' for Inactive)
REMARK                            x       y       z     vdW  Elec       q    Type
REMARK                         _______ _______ _______ _____ _____    ______ ____
ROOT
ATOM      1  C   UNL     1      -0.397   6.907 -11.160  0.00  0.00    +0.044 C 
ATOM      2  C   UNL     1       0.321   5.573 -10.602  0.00  0.00    +0.163 C 
ATOM      3  S   UNL     1       2.039   6.072 -11.332  0.00  0.00    -0.109 S 
ATOM      4  C   UNL     1       2.778   5.366  -9.817  0.00  0.00    +0.088 C 
ATOM      5  C   UNL     1       1.795   5.914  -8.854  0.00  0.00    +0.118 C 
ATOM      6  C   UNL     1       1.908   5.072  -7.586  0.00  0.00    +0.030 C 
ATOM      7  C   UNL     1       0.997   5.604  -6.508  0.00  0.00    +0.020 C 
ATOM      8  C   UNL     1       1.154   7.094  -6.386  0.00  0.00    +0.072 C 
ATOM      9  N   UNL     1       2.405   7.457  -7.029  0.00  0.00    -0.271 NA
ATOM     10  C   UNL     1       3.514   6.636  -6.548  0.00  0.00    +0.072 C 
ATOM     11  C   UNL     1       3.331   5.221  -7.061  0.00  0.00    +0.020 C 
ATOM     12  C   UNL     1       2.379   7.276  -8.453  0.00  0.00    +0.100 C 
ATOM     13  O   UNL     1       0.594   6.170  -9.289  0.00  0.00    -0.348 OA
ENDROOT
TORSDOF 0
ENDMDL
