MODEL 1
REMARK VINA RESULT:      -8.2      0.000      0.000
REMARK  Name = 
REMARK  8 active torsions:
REMARK  status: ('A' for Active; 'I' for Inactive)
REMARK    1  A    between atoms: C_2  and  C_3
REMARK    2  A    between atoms: CA_4  and  C_5
REMARK    3  A    between atoms: CA_11  and  N_12
REMARK    4  A    between atoms: C_13  and  C_15
REMARK    5  A    between atoms: C_15  and  C_22
REMARK    6  A    between atoms: N_16  and  O_17
REMARK    7  A    between atoms: O_17  and  C_18
REMARK    8  A    between atoms: C_18  and  C_19
REMARK                            x       y       z     vdW  Elec       q    Type
REMARK                         _______ _______ _______ _____ _____    ______ ____
ROOT
ATOM      1  N   UNL     1       0.358   5.651  -8.179  0.00  0.00    -0.190 NA
ATOM      2  C   UNL     1       0.967   6.306  -9.299  0.00  0.00    +0.288 C 
ATOM      3  O   UNL     1       1.459   7.456  -9.070  0.00  0.00    -0.267 OA
ENDROOT
BRANCH   1  11
ATOM      4  C   UNL     1      -1.660   6.152  -3.811  0.00  0.00    +0.009 C 
ATOM      5  C   UNL     1      -2.538   5.681  -4.933  0.00  0.00    +0.087 C 
ATOM      6  S   UNL     1      -1.567   5.496  -6.471  0.00  0.00    -0.114 S 
ATOM      7  C   UNL     1      -0.092   6.637  -6.019  0.00  0.00    +0.157 C 
ATOM      8  N   UNL     1       0.375   5.593  -5.010  0.00  0.00    -0.242 N 
ATOM      9  C   UNL     1       0.699   4.612  -6.035  0.00  0.00    +0.253 C 
ATOM     10  O   UNL     1       1.519   3.658  -5.869  0.00  0.00    -0.273 OA
ATOM     11  CA  UNL     1       1.199   5.925  -6.850  0.00  0.00    +0.201 C 
ATOM     12  CA  UNL     1      -0.421   5.656  -3.815  0.00  0.00    +0.132 C 
BRANCH  12  13
ATOM     13  C   UNL     1       0.350   5.393  -2.616  0.00  0.00    +0.401 C 
ATOM     14  OXT UNL     1       1.305   6.321  -2.182  0.00  0.00    -0.239 OA
ATOM     15  O   UNL     1       0.137   4.450  -1.817  0.00  0.00    -0.239 OA
ENDBRANCH  12  13
BRANCH   4  17
ATOM     16  C   UNL     1      -3.007   6.422  -2.319  0.00  0.00    -0.000 C 
ATOM     17  C   UNL     1      -2.342   6.264  -2.512  0.00  0.00    -0.002 C 
ENDBRANCH   4  17
ENDBRANCH   1  11
BRANCH   2  18
ATOM     18  C   UNL     1       1.627   5.603 -10.410  0.00  0.00    +0.192 C 
ATOM     19  N   UNL     1       2.805   5.074 -10.282  0.00  0.00    -0.076 NA
BRANCH  18  20
ATOM     20  C   UNL     1       1.102   5.693 -11.791  0.00  0.00    +0.115 A 
ATOM     21  N   UNL     1       0.502   4.686 -12.474  0.00  0.00    -0.220 NA
ATOM     22  C   UNL     1       0.927   4.632 -13.756  0.00  0.00    +0.201 A 
ATOM     23  N   UNL     1       1.034   3.488 -14.614  0.00  0.00    -0.100 NA
ATOM     24  S   UNL     1       1.019   6.309 -14.106  0.00  0.00    -0.048 S 
ATOM     25  C   UNL     1       0.951   6.889 -12.489  0.00  0.00    +0.059 A 
ENDBRANCH  18  20
BRANCH  19  26
ATOM     26  O   UNL     1       3.590   5.488  -9.220  0.00  0.00    -0.365 OA
BRANCH  26  27
ATOM     27  C   UNL     1       4.993   5.615  -9.306  0.00  0.00    +0.351 C 
BRANCH  27  28
ATOM     28  C   UNL     1       5.386   6.148 -10.647  0.00  0.00    +0.411 C 
ATOM     29  O   UNL     1       5.313   7.533 -10.809  0.00  0.00    -0.241 OA
ATOM     30  O   UNL     1       6.169   5.452 -11.336  0.00  0.00    -0.241 OA
ENDBRANCH  27  28
ENDBRANCH  26  27
ENDBRANCH  19  26
ENDBRANCH   2  18
TORSDOF 8
ENDMDL
MODEL 2
REMARK VINA RESULT:      -8.1      2.399      3.680
REMARK  Name = 
REMARK  8 active torsions:
REMARK  status: ('A' for Active; 'I' for Inactive)
REMARK    1  A    between atoms: C_2  and  C_3
REMARK    2  A    between atoms: CA_4  and  C_5
REMARK    3  A    between atoms: CA_11  and  N_12
REMARK    4  A    between atoms: C_13  and  C_15
REMARK    5  A    between atoms: C_15  and  C_22
REMARK    6  A    between atoms: N_16  and  O_17
REMARK    7  A    between atoms: O_17  and  C_18
REMARK    8  A    between atoms: C_18  and  C_19
REMARK                            x       y       z     vdW  Elec       q    Type
REMARK                         _______ _______ _______ _____ _____    ______ ____
ROOT
ATOM      1  N   UNL     1       0.935   6.320  -7.516  0.00  0.00    -0.190 NA
ATOM      2  C   UNL     1       1.683   7.044  -8.501  0.00  0.00    +0.288 C 
ATOM      3  O   UNL     1       2.054   8.214  -8.168  0.00  0.00    -0.267 OA
ENDROOT
BRANCH   1  11
ATOM      4  C   UNL     1      -1.779   6.268  -3.512  0.00  0.00    +0.009 C 
ATOM      5  C   UNL     1      -2.404   5.772  -4.783  0.00  0.00    +0.087 C 
ATOM      6  S   UNL     1      -1.192   5.814  -6.151  0.00  0.00    -0.114 S 
ATOM      7  C   UNL     1       0.034   7.092  -5.412  0.00  0.00    +0.157 C 
ATOM      8  N   UNL     1       0.473   6.045  -4.393  0.00  0.00    -0.242 N 
ATOM      9  C   UNL     1       1.076   5.184  -5.399  0.00  0.00    +0.253 C 
ATOM     10  O   UNL     1       1.979   4.328  -5.150  0.00  0.00    -0.273 OA
ATOM     11  CA  UNL     1       1.519   6.601  -6.057  0.00  0.00    +0.201 C 
ATOM     12  CA  UNL     1      -0.499   5.928  -3.340  0.00  0.00    +0.132 C 
BRANCH  12  13
ATOM     13  C   UNL     1       0.106   5.678  -2.047  0.00  0.00    +0.401 C 
ATOM     14  OXT UNL     1       0.259   4.363  -1.590  0.00  0.00    -0.239 OA
ATOM     15  O   UNL     1       0.660   6.548  -1.333  0.00  0.00    -0.239 OA
ENDBRANCH  12  13
BRANCH   4  17
ATOM     16  C   UNL     1      -3.331   6.408  -2.214  0.00  0.00    -0.000 C 
ATOM     17  C   UNL     1      -2.661   6.205  -2.337  0.00  0.00    -0.002 C 
ENDBRANCH   4  17
ENDBRANCH   1  11
BRANCH   2  18
ATOM     18  C   UNL     1       2.566   6.417  -9.497  0.00  0.00    +0.192 C 
ATOM     19  N   UNL     1       2.096   5.810 -10.544  0.00  0.00    -0.076 NA
BRANCH  18  20
ATOM     20  C   UNL     1       4.006   6.217  -9.223  0.00  0.00    +0.115 A 
ATOM     21  N   UNL     1       5.026   6.698  -9.977  0.00  0.00    -0.220 NA
ATOM     22  C   UNL     1       6.000   5.775 -10.142  0.00  0.00    +0.201 A 
ATOM     23  N   UNL     1       6.900   5.614 -11.247  0.00  0.00    -0.100 NA
ATOM     24  S   UNL     1       6.014   5.078  -8.575  0.00  0.00    -0.048 S 
ATOM     25  C   UNL     1       4.507   5.703  -8.030  0.00  0.00    +0.059 A 
ENDBRANCH  18  20
BRANCH  19  26
ATOM     26  O   UNL     1       0.764   5.434 -10.531  0.00  0.00    -0.365 OA
BRANCH  26  27
ATOM     27  C   UNL     1      -0.133   5.749 -11.575  0.00  0.00    +0.351 C 
BRANCH  27  28
ATOM     28  C   UNL     1       0.056   7.168 -12.012  0.00  0.00    +0.411 C 
ATOM     29  O   UNL     1       0.527   7.358 -13.312  0.00  0.00    -0.241 OA
ATOM     30  O   UNL     1      -0.627   8.044 -11.432  0.00  0.00    -0.241 OA
ENDBRANCH  27  28
ENDBRANCH  26  27
ENDBRANCH  19  26
ENDBRANCH   2  18
TORSDOF 8
ENDMDL
MODEL 3
REMARK VINA RESULT:      -8.0      2.550      8.669
REMARK  Name = 
REMARK  8 active torsions:
REMARK  status: ('A' for Active; 'I' for Inactive)
REMARK    1  A    between atoms: C_2  and  C_3
REMARK    2  A    between atoms: CA_4  and  C_5
REMARK    3  A    between atoms: CA_11  and  N_12
REMARK    4  A    between atoms: C_13  and  C_15
REMARK    5  A    between atoms: C_15  and  C_22
REMARK    6  A    between atoms: N_16  and  O_17
REMARK    7  A    between atoms: O_17  and  C_18
REMARK    8  A    between atoms: C_18  and  C_19
REMARK                            x       y       z     vdW  Elec       q    Type
REMARK                         _______ _______ _______ _____ _____    ______ ____
ROOT
ATOM      1  N   UNL     1       0.935   5.249  -7.492  0.00  0.00    -0.190 NA
ATOM      2  C   UNL     1       0.879   4.684  -6.177  0.00  0.00    +0.288 C 
ATOM      3  O   UNL     1       1.318   3.495  -6.064  0.00  0.00    -0.267 OA
ENDROOT
BRANCH   1  11
ATOM      4  C   UNL     1       1.620   5.706 -12.259  0.00  0.00    +0.009 C 
ATOM      5  C   UNL     1       0.408   6.360 -11.664  0.00  0.00    +0.087 C 
ATOM      6  S   UNL     1       0.377   6.124  -9.852  0.00  0.00    -0.114 S 
ATOM      7  C   UNL     1       1.540   4.602  -9.740  0.00  0.00    +0.157 C 
ATOM      8  N   UNL     1       2.716   5.504 -10.102  0.00  0.00    -0.242 N 
ATOM      9  C   UNL     1       2.637   6.261  -8.861  0.00  0.00    +0.253 C 
ATOM     10  O   UNL     1       3.607   6.910  -8.364  0.00  0.00    -0.273 OA
ATOM     11  CA  UNL     1       2.279   4.807  -8.232  0.00  0.00    +0.201 C 
ATOM     12  CA  UNL     1       2.725   5.777 -11.513  0.00  0.00    +0.132 C 
BRANCH  12  13
ATOM     13  C   UNL     1       4.067   5.856 -12.057  0.00  0.00    +0.401 C 
ATOM     14  OXT UNL     1       4.916   6.901 -11.671  0.00  0.00    -0.239 OA
ATOM     15  O   UNL     1       4.613   4.967 -12.753  0.00  0.00    -0.239 OA
ENDBRANCH  12  13
BRANCH   4  17
ATOM     16  C   UNL     1       1.340   5.792 -14.266  0.00  0.00    -0.000 C 
ATOM     17  C   UNL     1       1.768   5.903 -13.709  0.00  0.00    -0.002 C 
ENDBRANCH   4  17
ENDBRANCH   1  11
BRANCH   2  18
ATOM     18  C   UNL     1       0.991   5.463  -4.934  0.00  0.00    +0.192 C 
ATOM     19  N   UNL     1      -0.048   5.995  -4.363  0.00  0.00    -0.076 NA
BRANCH  18  20
ATOM     20  C   UNL     1       2.308   5.901  -4.422  0.00  0.00    +0.115 A 
ATOM     21  N   UNL     1       3.088   5.207  -3.556  0.00  0.00    -0.220 NA
ATOM     22  C   UNL     1       3.624   6.014  -2.613  0.00  0.00    +0.201 A 
ATOM     23  N   UNL     1       3.984   5.693  -1.263  0.00  0.00    -0.100 NA
ATOM     24  S   UNL     1       3.986   7.389  -3.573  0.00  0.00    -0.048 S 
ATOM     25  C   UNL     1       3.024   6.979  -4.939  0.00  0.00    +0.059 A 
ENDBRANCH  18  20
BRANCH  19  26
ATOM     26  O   UNL     1      -1.199   6.138  -5.117  0.00  0.00    -0.365 OA
BRANCH  26  27
ATOM     27  C   UNL     1      -2.458   5.659  -4.696  0.00  0.00    +0.351 C 
BRANCH  27  28
ATOM     28  C   UNL     1      -2.564   5.716  -3.205  0.00  0.00    +0.411 C 
ATOM     29  O   UNL     1      -2.968   6.935  -2.659  0.00  0.00    -0.241 OA
ATOM     30  O   UNL     1      -2.756   4.635  -2.600  0.00  0.00    -0.241 OA
ENDBRANCH  27  28
ENDBRANCH  26  27
ENDBRANCH  19  26
ENDBRANCH   2  18
TORSDOF 8
ENDMDL
MODEL 4
REMARK VINA RESULT:      -8.0      2.887      4.429
REMARK  Name = 
REMARK  8 active torsions:
REMARK  status: ('A' for Active; 'I' for Inactive)
REMARK    1  A    between atoms: C_2  and  C_3
REMARK    2  A    between atoms: CA_4  and  C_5
REMARK    3  A    between atoms: CA_11  and  N_12
REMARK    4  A    between atoms: C_13  and  C_15
REMARK    5  A    between atoms: C_15  and  C_22
REMARK    6  A    between atoms: N_16  and  O_17
REMARK    7  A    between atoms: O_17  and  C_18
REMARK    8  A    between atoms: C_18  and  C_19
REMARK                            x       y       z     vdW  Elec       q    Type
REMARK                         _______ _______ _______ _____ _____    ______ ____
ROOT
ATOM      1  N   UNL     1       3.973   5.499  -7.440  0.00  0.00    -0.190 NA
ATOM      2  C   UNL     1       4.096   4.996  -8.777  0.00  0.00    +0.288 C 
ATOM      3  O   UNL     1       3.883   3.750  -8.923  0.00  0.00    -0.267 OA
ENDROOT
BRANCH   1  11
ATOM      4  C   UNL     1       2.763   6.454  -2.855  0.00  0.00    +0.009 C 
ATOM      5  C   UNL     1       3.779   7.346  -3.507  0.00  0.00    +0.087 C 
ATOM      6  S   UNL     1       4.039   6.854  -5.249  0.00  0.00    -0.114 S 
ATOM      7  C   UNL     1       3.387   5.052  -5.139  0.00  0.00    +0.157 C 
ATOM      8  N   UNL     1       1.972   5.599  -4.985  0.00  0.00    -0.242 N 
ATOM      9  C   UNL     1       1.935   6.144  -6.334  0.00  0.00    +0.253 C 
ATOM     10  O   UNL     1       0.866   6.382  -6.973  0.00  0.00    -0.273 OA
ATOM     11  CA  UNL     1       2.758   4.788  -6.687  0.00  0.00    +0.201 C 
ATOM     12  CA  UNL     1       1.757   6.070  -3.644  0.00  0.00    +0.132 C 
BRANCH  12  13
ATOM     13  C   UNL     1       0.409   5.820  -3.174  0.00  0.00    +0.401 C 
ATOM     14  OXT UNL     1      -0.649   6.615  -3.633  0.00  0.00    -0.239 OA
ATOM     15  O   UNL     1       0.060   4.834  -2.483  0.00  0.00    -0.239 OA
ENDBRANCH  12  13
BRANCH   4  17
ATOM     16  C   UNL     1       2.827   7.002  -0.903  0.00  0.00    -0.000 C 
ATOM     17  C   UNL     1       2.437   6.818  -1.468  0.00  0.00    -0.002 C 
ENDBRANCH   4  17
ENDBRANCH   1  11
BRANCH   2  18
ATOM     18  C   UNL     1       3.804   5.780  -9.986  0.00  0.00    +0.192 C 
ATOM     19  N   UNL     1       2.594   5.918 -10.438  0.00  0.00    -0.076 NA
BRANCH  18  20
ATOM     20  C   UNL     1       4.888   6.225 -10.889  0.00  0.00    +0.115 A 
ATOM     21  N   UNL     1       5.390   5.514 -11.930  0.00  0.00    -0.220 NA
ATOM     22  C   UNL     1       6.739   5.592 -11.980  0.00  0.00    +0.201 A 
ATOM     23  N   UNL     1       7.671   4.621 -12.475  0.00  0.00    -0.100 NA
ATOM     24  S   UNL     1       6.955   7.240 -11.557  0.00  0.00    -0.048 S 
ATOM     25  C   UNL     1       5.380   7.528 -10.930  0.00  0.00    +0.059 A 
ENDBRANCH  18  20
BRANCH  19  26
ATOM     26  O   UNL     1       1.632   5.028  -9.996  0.00  0.00    -0.365 OA
BRANCH  26  27
ATOM     27  C   UNL     1       0.356   4.918 -10.589  0.00  0.00    +0.351 C 
BRANCH  27  28
ATOM     28  C   UNL     1       0.149   6.017 -11.583  0.00  0.00    +0.411 C 
ATOM     29  O   UNL     1       0.432   5.709 -12.915  0.00  0.00    -0.241 OA
ATOM     30  O   UNL     1      -0.669   6.918 -11.282  0.00  0.00    -0.241 OA
ENDBRANCH  27  28
ENDBRANCH  26  27
ENDBRANCH  19  26
ENDBRANCH   2  18
TORSDOF 8
ENDMDL
MODEL 5
REMARK VINA RESULT:      -7.8      2.440      3.514
REMARK  Name = 
REMARK  8 active torsions:
REMARK  status: ('A' for Active; 'I' for Inactive)
REMARK    1  A    between atoms: C_2  and  C_3
REMARK    2  A    between atoms: CA_4  and  C_5
REMARK    3  A    between atoms: CA_11  and  N_12
REMARK    4  A    between atoms: C_13  and  C_15
REMARK    5  A    between atoms: C_15  and  C_22
REMARK    6  A    between atoms: N_16  and  O_17
REMARK    7  A    between atoms: O_17  and  C_18
REMARK    8  A    between atoms: C_18  and  C_19
REMARK                            x       y       z     vdW  Elec       q    Type
REMARK                         _______ _______ _______ _____ _____    ______ ____
ROOT
ATOM      1  N   UNL     1       3.595   5.445  -7.658  0.00  0.00    -0.190 NA
ATOM      2  C   UNL     1       3.683   4.769  -8.919  0.00  0.00    +0.288 C 
ATOM      3  O   UNL     1       3.355   3.540  -8.914  0.00  0.00    -0.267 OA
ENDROOT
BRANCH   1  11
ATOM      4  C   UNL     1       3.368   5.339  -2.828  0.00  0.00    +0.009 C 
ATOM      5  C   UNL     1       4.544   6.029  -3.454  0.00  0.00    +0.087 C 
ATOM      6  S   UNL     1       4.399   6.013  -5.277  0.00  0.00    -0.114 S 
ATOM      7  C   UNL     1       3.175   4.546  -5.455  0.00  0.00    +0.157 C 
ATOM      8  N   UNL     1       2.072   5.428  -4.879  0.00  0.00    -0.242 N 
ATOM      9  C   UNL     1       2.065   6.327  -6.023  0.00  0.00    +0.253 C 
ATOM     10  O   UNL     1       1.077   7.056  -6.345  0.00  0.00    -0.273 OA
ATOM     11  CA  UNL     1       2.309   4.951  -6.851  0.00  0.00    +0.201 C 
ATOM     12  CA  UNL     1       2.203   5.528  -3.451  0.00  0.00    +0.132 C 
BRANCH  12  13
ATOM     13  C   UNL     1       0.921   5.575  -2.775  0.00  0.00    +0.401 C 
ATOM     14  OXT UNL     1       0.479   4.468  -2.039  0.00  0.00    -0.239 OA
ATOM     15  O   UNL     1       0.207   6.600  -2.659  0.00  0.00    -0.239 OA
ENDBRANCH  12  13
BRANCH   4  17
ATOM     16  C   UNL     1       3.867   5.286  -0.862  0.00  0.00    -0.000 C 
ATOM     17  C   UNL     1       3.362   5.363  -1.357  0.00  0.00    -0.002 C 
ENDBRANCH   4  17
ENDBRANCH   1  11
BRANCH   2  18
ATOM     18  C   UNL     1       3.481   5.418 -10.223  0.00  0.00    +0.192 C 
ATOM     19  N   UNL     1       4.462   5.966 -10.875  0.00  0.00    -0.076 NA
BRANCH  18  20
ATOM     20  C   UNL     1       2.122   5.711 -10.729  0.00  0.00    +0.115 A 
ATOM     21  N   UNL     1       1.686   5.489 -11.994  0.00  0.00    -0.220 NA
ATOM     22  C   UNL     1       0.945   6.522 -12.454  0.00  0.00    +0.201 A 
ATOM     23  N   UNL     1       0.791   6.980 -13.804  0.00  0.00    -0.100 NA
ATOM     24  S   UNL     1       0.068   6.910 -11.032  0.00  0.00    -0.048 S 
ATOM     25  C   UNL     1       1.043   6.042  -9.912  0.00  0.00    +0.059 A 
ENDBRANCH  18  20
BRANCH  19  26
ATOM     26  O   UNL     1       5.619   6.262 -10.177  0.00  0.00    -0.365 OA
BRANCH  26  27
ATOM     27  C   UNL     1       6.865   5.667 -10.468  0.00  0.00    +0.351 C 
BRANCH  27  28
ATOM     28  C   UNL     1       7.085   5.619 -11.947  0.00  0.00    +0.411 C 
ATOM     29  O   UNL     1       7.146   6.849 -12.605  0.00  0.00    -0.241 OA
ATOM     30  O   UNL     1       7.655   4.603 -12.412  0.00  0.00    -0.241 OA
ENDBRANCH  27  28
ENDBRANCH  26  27
ENDBRANCH  19  26
ENDBRANCH   2  18
TORSDOF 8
ENDMDL
MODEL 6
REMARK VINA RESULT:      -7.6      3.267      4.451
REMARK  Name = 
REMARK  8 active torsions:
REMARK  status: ('A' for Active; 'I' for Inactive)
REMARK    1  A    between atoms: C_2  and  C_3
REMARK    2  A    between atoms: CA_4  and  C_5
REMARK    3  A    between atoms: CA_11  and  N_12
REMARK    4  A    between atoms: C_13  and  C_15
REMARK    5  A    between atoms: C_15  and  C_22
REMARK    6  A    between atoms: N_16  and  O_17
REMARK    7  A    between atoms: O_17  and  C_18
REMARK    8  A    between atoms: C_18  and  C_19
REMARK                            x       y       z     vdW  Elec       q    Type
REMARK                         _______ _______ _______ _____ _____    ______ ____
ROOT
ATOM      1  N   UNL     1       4.010   6.015  -6.612  0.00  0.00    -0.190 NA
ATOM      2  C   UNL     1       4.701   5.532  -7.772  0.00  0.00    +0.288 C 
ATOM      3  O   UNL     1       5.612   4.671  -7.556  0.00  0.00    -0.267 OA
ENDROOT
BRANCH   1  11
ATOM      4  C   UNL     1       4.465   6.558  -1.827  0.00  0.00    +0.009 C 
ATOM      5  C   UNL     1       4.494   7.797  -2.674  0.00  0.00    +0.087 C 
ATOM      6  S   UNL     1       4.239   7.374  -4.435  0.00  0.00    -0.114 S 
ATOM      7  C   UNL     1       4.739   5.524  -4.362  0.00  0.00    +0.157 C 
ATOM      8  N   UNL     1       3.455   5.232  -3.592  0.00  0.00    -0.242 N 
ATOM      9  C   UNL     1       2.595   5.552  -4.722  0.00  0.00    +0.253 C 
ATOM     10  O   UNL     1       1.409   5.121  -4.855  0.00  0.00    -0.273 OA
ATOM     11  CA  UNL     1       3.777   4.829  -5.569  0.00  0.00    +0.201 C 
ATOM     12  CA  UNL     1       3.592   5.626  -2.217  0.00  0.00    +0.132 C 
BRANCH  12  13
ATOM     13  C   UNL     1       2.903   4.731  -1.308  0.00  0.00    +0.401 C 
ATOM     14  OXT UNL     1       3.599   3.674  -0.708  0.00  0.00    -0.239 OA
ATOM     15  O   UNL     1       1.739   4.903  -0.875  0.00  0.00    -0.239 OA
ENDBRANCH  12  13
BRANCH   4  17
ATOM     16  C   UNL     1       4.911   7.312   0.002  0.00  0.00    -0.000 C 
ATOM     17  C   UNL     1       4.592   6.807  -0.383  0.00  0.00    -0.002 C 
ENDBRANCH   4  17
ENDBRANCH   1  11
BRANCH   2  18
ATOM     18  C   UNL     1       4.096   5.414  -9.107  0.00  0.00    +0.192 C 
ATOM     19  N   UNL     1       4.782   5.621 -10.191  0.00  0.00    -0.076 NA
BRANCH  18  20
ATOM     20  C   UNL     1       2.629   5.317  -9.277  0.00  0.00    +0.115 A 
ATOM     21  N   UNL     1       1.939   5.667 -10.391  0.00  0.00    -0.220 NA
ATOM     22  C   UNL     1       0.807   6.339 -10.084  0.00  0.00    +0.201 A 
ATOM     23  N   UNL     1       0.130   7.344 -10.851  0.00  0.00    -0.100 NA
ATOM     24  S   UNL     1       0.306   5.457  -8.701  0.00  0.00    -0.048 S 
ATOM     25  C   UNL     1       1.788   4.640  -8.397  0.00  0.00    +0.059 A 
ENDBRANCH  18  20
BRANCH  19  26
ATOM     26  O   UNL     1       5.978   6.308 -10.079  0.00  0.00    -0.365 OA
BRANCH  26  27
ATOM     27  C   UNL     1       7.221   5.750 -10.446  0.00  0.00    +0.351 C 
BRANCH  27  28
ATOM     28  C   UNL     1       7.416   5.843 -11.927  0.00  0.00    +0.411 C 
ATOM     29  O   UNL     1       7.535   4.633 -12.613  0.00  0.00    -0.241 OA
ATOM     30  O   UNL     1       7.000   6.878 -12.498  0.00  0.00    -0.241 OA
ENDBRANCH  27  28
ENDBRANCH  26  27
ENDBRANCH  19  26
ENDBRANCH   2  18
TORSDOF 8
ENDMDL
MODEL 7
REMARK VINA RESULT:      -7.5      2.926      8.291
REMARK  Name = 
REMARK  8 active torsions:
REMARK  status: ('A' for Active; 'I' for Inactive)
REMARK    1  A    between atoms: C_2  and  C_3
REMARK    2  A    between atoms: CA_4  and  C_5
REMARK    3  A    between atoms: CA_11  and  N_12
REMARK    4  A    between atoms: C_13  and  C_15
REMARK    5  A    between atoms: C_15  and  C_22
REMARK    6  A    between atoms: N_16  and  O_17
REMARK    7  A    between atoms: O_17  and  C_18
REMARK    8  A    between atoms: C_18  and  C_19
REMARK                            x       y       z     vdW  Elec       q    Type
REMARK                         _______ _______ _______ _____ _____    ______ ____
ROOT
ATOM      1  N   UNL     1       2.598   5.911  -8.022  0.00  0.00    -0.190 NA
ATOM      2  C   UNL     1       2.396   6.812  -6.927  0.00  0.00    +0.288 C 
ATOM      3  O   UNL     1       2.335   8.047  -7.227  0.00  0.00    -0.267 OA
ENDROOT
BRANCH   1  11
ATOM      4  C   UNL     1       4.433   5.981 -12.497  0.00  0.00    +0.009 C 
ATOM      5  C   UNL     1       5.234   5.299 -11.427  0.00  0.00    +0.087 C 
ATOM      6  S   UNL     1       4.333   5.328  -9.837  0.00  0.00    -0.114 S 
ATOM      7  C   UNL     1       3.150   6.793 -10.203  0.00  0.00    +0.157 C 
ATOM      8  N   UNL     1       2.392   5.904 -11.185  0.00  0.00    -0.242 N 
ATOM      9  C   UNL     1       1.901   5.013 -10.144  0.00  0.00    +0.253 C 
ATOM     10  O   UNL     1       0.870   4.285 -10.264  0.00  0.00    -0.273 OA
ATOM     11  CA  UNL     1       1.774   6.396  -9.301  0.00  0.00    +0.201 C 
ATOM     12  CA  UNL     1       3.113   5.794 -12.423  0.00  0.00    +0.132 C 
BRANCH  12  13
ATOM     13  C   UNL     1       2.237   5.739 -13.577  0.00  0.00    +0.401 C 
ATOM     14  OXT UNL     1       1.640   6.912 -14.057  0.00  0.00    -0.239 OA
ATOM     15  O   UNL     1       2.070   4.731 -14.304  0.00  0.00    -0.239 OA
ENDBRANCH  12  13
BRANCH   4  17
ATOM     16  C   UNL     1       5.692   5.761 -14.072  0.00  0.00    -0.000 C 
ATOM     17  C   UNL     1       5.049   5.947 -13.833  0.00  0.00    -0.002 C 
ENDBRANCH   4  17
ENDBRANCH   1  11
BRANCH   2  18
ATOM     18  C   UNL     1       1.651   6.475  -5.703  0.00  0.00    +0.192 C 
ATOM     19  N   UNL     1       2.223   5.898  -4.690  0.00  0.00    -0.076 NA
BRANCH  18  20
ATOM     20  C   UNL     1       0.174   6.535  -5.667  0.00  0.00    +0.115 A 
ATOM     21  N   UNL     1      -0.563   7.513  -5.083  0.00  0.00    -0.220 NA
ATOM     22  C   UNL     1      -1.610   7.004  -4.396  0.00  0.00    +0.201 A 
ATOM     23  N   UNL     1      -2.254   7.534  -3.229  0.00  0.00    -0.100 NA
ATOM     24  S   UNL     1      -2.083   5.750  -5.466  0.00  0.00    -0.048 S 
ATOM     25  C   UNL     1      -0.656   5.712  -6.425  0.00  0.00    +0.059 A 
ENDBRANCH  18  20
BRANCH  19  26
ATOM     26  O   UNL     1       3.438   5.270  -4.903  0.00  0.00    -0.365 OA
BRANCH  26  27
ATOM     27  C   UNL     1       4.558   5.462  -4.068  0.00  0.00    +0.351 C 
BRANCH  27  28
ATOM     28  C   UNL     1       4.698   6.908  -3.709  0.00  0.00    +0.411 C 
ATOM     29  O   UNL     1       4.809   7.201  -2.349  0.00  0.00    -0.241 OA
ATOM     30  O   UNL     1       5.172   7.673  -4.581  0.00  0.00    -0.241 OA
ENDBRANCH  27  28
ENDBRANCH  26  27
ENDBRANCH  19  26
ENDBRANCH   2  18
TORSDOF 8
ENDMDL
MODEL 8
REMARK VINA RESULT:      -7.5      3.345      8.800
REMARK  Name = 
REMARK  8 active torsions:
REMARK  status: ('A' for Active; 'I' for Inactive)
REMARK    1  A    between atoms: C_2  and  C_3
REMARK    2  A    between atoms: CA_4  and  C_5
REMARK    3  A    between atoms: CA_11  and  N_12
REMARK    4  A    between atoms: C_13  and  C_15
REMARK    5  A    between atoms: C_15  and  C_22
REMARK    6  A    between atoms: N_16  and  O_17
REMARK    7  A    between atoms: O_17  and  C_18
REMARK    8  A    between atoms: C_18  and  C_19
REMARK                            x       y       z     vdW  Elec       q    Type
REMARK                         _______ _______ _______ _____ _____    ______ ____
ROOT
ATOM      1  N   UNL     1       3.793   6.415  -8.856  0.00  0.00    -0.190 NA
ATOM      2  C   UNL     1       2.671   6.940  -8.136  0.00  0.00    +0.288 C 
ATOM      3  O   UNL     1       2.459   8.187  -8.269  0.00  0.00    -0.267 OA
ENDROOT
BRANCH   1  11
ATOM      4  C   UNL     1       7.778   6.219 -11.592  0.00  0.00    +0.009 C 
ATOM      5  C   UNL     1       7.726   5.343 -10.374  0.00  0.00    +0.087 C 
ATOM      6  S   UNL     1       6.116   5.521  -9.527  0.00  0.00    -0.114 S 
ATOM      7  C   UNL     1       5.597   7.221 -10.247  0.00  0.00    +0.157 C 
ATOM      8  N   UNL     1       5.373   6.553 -11.600  0.00  0.00    -0.242 N 
ATOM      9  C   UNL     1       4.248   5.760 -11.127  0.00  0.00    +0.253 C 
ATOM     10  O   UNL     1       3.351   5.282 -11.885  0.00  0.00    -0.273 OA
ATOM     11  CA  UNL     1       3.909   7.110 -10.289  0.00  0.00    +0.201 C 
ATOM     12  CA  UNL     1       6.629   6.326 -12.262  0.00  0.00    +0.132 C 
BRANCH  12  13
ATOM     13  C   UNL     1       6.542   6.502 -13.699  0.00  0.00    +0.401 C 
ATOM     14  OXT UNL     1       6.451   7.790 -14.240  0.00  0.00    -0.239 OA
ATOM     15  O   UNL     1       6.694   5.589 -14.545  0.00  0.00    -0.239 OA
ENDBRANCH  12  13
BRANCH   4  17
ATOM     16  C   UNL     1       9.669   5.859 -12.231  0.00  0.00    -0.000 C 
ATOM     17  C   UNL     1       9.014   6.091 -12.380  0.00  0.00    -0.002 C 
ENDBRANCH   4  17
ENDBRANCH   1  11
BRANCH   2  18
ATOM     18  C   UNL     1       1.453   6.174  -7.828  0.00  0.00    +0.192 C 
ATOM     19  N   UNL     1       0.576   5.885  -8.741  0.00  0.00    -0.076 NA
BRANCH  18  20
ATOM     20  C   UNL     1       1.039   5.926  -6.430  0.00  0.00    +0.115 A 
ATOM     21  N   UNL     1      -0.017   5.167  -6.043  0.00  0.00    -0.220 NA
ATOM     22  C   UNL     1      -0.710   5.754  -5.041  0.00  0.00    +0.201 A 
ATOM     23  N   UNL     1      -2.109   5.646  -4.741  0.00  0.00    -0.100 NA
ATOM     24  S   UNL     1       0.587   6.398  -4.123  0.00  0.00    -0.048 S 
ATOM     25  C   UNL     1       1.814   6.254  -5.319  0.00  0.00    +0.059 A 
ENDBRANCH  18  20
BRANCH  19  26
ATOM     26  O   UNL     1       0.606   6.610  -9.920  0.00  0.00    -0.365 OA
BRANCH  26  27
ATOM     27  C   UNL     1      -0.381   6.488 -10.921  0.00  0.00    +0.351 C 
BRANCH  27  28
ATOM     28  C   UNL     1       0.256   6.212 -12.247  0.00  0.00    +0.411 C 
ATOM     29  O   UNL     1       0.292   4.876 -12.651  0.00  0.00    -0.241 OA
ATOM     30  O   UNL     1       0.272   7.146 -13.083  0.00  0.00    -0.241 OA
ENDBRANCH  27  28
ENDBRANCH  26  27
ENDBRANCH  19  26
ENDBRANCH   2  18
TORSDOF 8
ENDMDL
MODEL 9
REMARK VINA RESULT:      -7.4      2.376      3.619
REMARK  Name = 
REMARK  8 active torsions:
REMARK  status: ('A' for Active; 'I' for Inactive)
REMARK    1  A    between atoms: C_2  and  C_3
REMARK    2  A    between atoms: CA_4  and  C_5
REMARK    3  A    between atoms: CA_11  and  N_12
REMARK    4  A    between atoms: C_13  and  C_15
REMARK    5  A    between atoms: C_15  and  C_22
REMARK    6  A    between atoms: N_16  and  O_17
REMARK    7  A    between atoms: O_17  and  C_18
REMARK    8  A    between atoms: C_18  and  C_19
REMARK                            x       y       z     vdW  Elec       q    Type
REMARK                         _______ _______ _______ _____ _____    ______ ____
ROOT
ATOM      1  N   UNL     1       1.200   5.417  -8.705  0.00  0.00    -0.190 NA
ATOM      2  C   UNL     1       1.574   6.396  -9.683  0.00  0.00    +0.288 C 
ATOM      3  O   UNL     1       1.616   7.600  -9.276  0.00  0.00    -0.267 OA
ENDROOT
BRANCH   1  11
ATOM      4  C   UNL     1      -1.418   6.075  -4.691  0.00  0.00    +0.009 C 
ATOM      5  C   UNL     1      -2.121   5.530  -5.899  0.00  0.00    +0.087 C 
ATOM      6  S   UNL     1      -0.941   5.297  -7.276  0.00  0.00    -0.114 S 
ATOM      7  C   UNL     1       0.436   6.493  -6.681  0.00  0.00    +0.157 C 
ATOM      8  N   UNL     1       0.775   5.509  -5.566  0.00  0.00    -0.242 N 
ATOM      9  C   UNL     1       1.256   4.489  -6.485  0.00  0.00    +0.253 C 
ATOM     10  O   UNL     1       2.062   3.564  -6.160  0.00  0.00    -0.273 OA
ATOM     11  CA  UNL     1       1.843   5.773  -7.288  0.00  0.00    +0.201 C 
ATOM     12  CA  UNL     1      -0.181   5.610  -4.498  0.00  0.00    +0.132 C 
BRANCH  12  13
ATOM     13  C   UNL     1       0.419   5.422  -3.191  0.00  0.00    +0.401 C 
ATOM     14  OXT UNL     1       1.459   6.263  -2.773  0.00  0.00    -0.239 OA
ATOM     15  O   UNL     1      -0.015   4.647  -2.307  0.00  0.00    -0.239 OA
ENDBRANCH  12  13
BRANCH   4  17
ATOM     16  C   UNL     1      -2.817   6.664  -3.346  0.00  0.00    -0.000 C 
ATOM     17  C   UNL     1      -2.276   6.232  -3.507  0.00  0.00    -0.002 C 
ENDBRANCH   4  17
ENDBRANCH   1  11
BRANCH   2  18
ATOM     18  C   UNL     1       2.479   6.134 -10.813  0.00  0.00    +0.192 C 
ATOM     19  N   UNL     1       2.036   5.973 -12.023  0.00  0.00    -0.076 NA
BRANCH  18  20
ATOM     20  C   UNL     1       3.898   5.781 -10.590  0.00  0.00    +0.115 A 
ATOM     21  N   UNL     1       4.352   4.852  -9.712  0.00  0.00    -0.220 NA
ATOM     22  C   UNL     1       5.442   5.289  -9.044  0.00  0.00    +0.201 A 
ATOM     23  N   UNL     1       5.872   4.951  -7.718  0.00  0.00    -0.100 NA
ATOM     24  S   UNL     1       6.258   6.105 -10.313  0.00  0.00    -0.048 S 
ATOM     25  C   UNL     1       4.941   6.194 -11.416  0.00  0.00    +0.059 A 
ENDBRANCH  18  20
BRANCH  19  26
ATOM     26  O   UNL     1       0.693   5.682 -12.187  0.00  0.00    -0.365 OA
BRANCH  26  27
ATOM     27  C   UNL     1       0.232   4.464 -12.732  0.00  0.00    +0.351 C 
BRANCH  27  28
ATOM     28  C   UNL     1       0.708   4.312 -14.142  0.00  0.00    +0.411 C 
ATOM     29  O   UNL     1       0.583   5.434 -14.963  0.00  0.00    -0.241 OA
ATOM     30  O   UNL     1       1.576   3.435 -14.365  0.00  0.00    -0.241 OA
ENDBRANCH  27  28
ENDBRANCH  26  27
ENDBRANCH  19  26
ENDBRANCH   2  18
TORSDOF 8
ENDMDL
