MODEL 1
REMARK VINA RESULT:      -7.4      0.000      0.000
REMARK  Name = 
REMARK  2 active torsions:
REMARK  status: ('A' for Active; 'I' for Inactive)
REMARK    1  A    between atoms: N_11  and  C_12
REMARK    2  A    between atoms: C_14  and  C_15
REMARK                            x       y       z     vdW  Elec       q    Type
REMARK                         _______ _______ _______ _____ _____    ______ ____
ROOT
ATOM      1  N   UNL     1      -2.543   5.027  -1.856  0.00  0.00    -0.105 NA
ATOM      2  C   UNL     1      -1.972   5.627  -2.862  0.00  0.00    +0.193 A 
ATOM      3  C   UNL     1      -0.634   5.326  -3.128  0.00  0.00    +0.152 A 
ATOM      4  N   UNL     1       0.414   4.944  -2.344  0.00  0.00    -0.219 NA
ATOM      5  C   UNL     1       1.514   5.069  -3.137  0.00  0.00    +0.182 A 
ATOM      6  N   UNL     1       1.059   5.471  -4.368  0.00  0.00    -0.269 N 
ATOM      7  C   UNL     1      -0.022   6.077  -4.138  0.00  0.00    +0.170 A 
ATOM      8  N   UNL     1      -0.464   7.292  -4.476  0.00  0.00    -0.198 NA
ATOM      9  C   UNL     1      -1.803   7.489  -4.306  0.00  0.00    +0.227 A 
ATOM     10 CL   UNL     1      -2.187   9.212  -4.423  0.00  0.00    -0.041 Cl
ATOM     11  N   UNL     1      -2.565   6.635  -3.564  0.00  0.00    -0.197 NA
ENDROOT
BRANCH   6  12
ATOM     12  C   UNL     1       2.255   5.663  -5.359  0.00  0.00    +0.243 C 
ATOM     13  C   UNL     1       2.184   4.139  -6.181  0.00  0.00    +0.243 C 
ATOM     14  F   UNL     1       0.740   3.868  -6.067  0.00  0.00    -0.230 F 
ATOM     15  C   UNL     1       1.948   4.826  -7.726  0.00  0.00    +0.218 C 
ATOM     16  O   UNL     1       3.125   4.093  -8.291  0.00  0.00    -0.217 OA
ATOM     17  C   UNL     1       2.882   6.137  -7.168  0.00  0.00    +0.183 C 
ATOM     18  O   UNL     1       1.564   6.444  -6.464  0.00  0.00    -0.330 OA
BRANCH  17  19
ATOM     19  C   UNL     1       2.565   7.070  -8.478  0.00  0.00    +0.214 C 
ATOM     20  O   UNL     1       2.194   8.269  -7.850  0.00  0.00    -0.218 OA
ENDBRANCH  17  19
ENDBRANCH   6  12
TORSDOF 2
ENDMDL
MODEL 2
REMARK VINA RESULT:      -7.0      1.636      1.818
REMARK  Name = 
REMARK  2 active torsions:
REMARK  status: ('A' for Active; 'I' for Inactive)
REMARK    1  A    between atoms: N_11  and  C_12
REMARK    2  A    between atoms: C_14  and  C_15
REMARK                            x       y       z     vdW  Elec       q    Type
REMARK                         _______ _______ _______ _____ _____    ______ ____
ROOT
ATOM      1  N   UNL     1      -0.303   5.032  -1.521  0.00  0.00    -0.105 NA
ATOM      2  C   UNL     1      -0.248   5.423  -2.762  0.00  0.00    +0.193 A 
ATOM      3  C   UNL     1       0.983   5.861  -3.255  0.00  0.00    +0.152 A 
ATOM      4  N   UNL     1       2.061   6.466  -2.680  0.00  0.00    -0.219 NA
ATOM      5  C   UNL     1       2.829   6.887  -3.723  0.00  0.00    +0.182 A 
ATOM      6  N   UNL     1       2.194   6.467  -4.865  0.00  0.00    -0.269 N 
ATOM      7  C   UNL     1       0.976   6.386  -4.553  0.00  0.00    +0.170 A 
ATOM      8  N   UNL     1      -0.131   6.903  -5.096  0.00  0.00    -0.198 NA
ATOM      9  C   UNL     1      -1.301   6.352  -4.662  0.00  0.00    +0.227 A 
ATOM     10 CL   UNL     1      -2.670   7.358  -5.155  0.00  0.00    -0.041 Cl
ATOM     11  N   UNL     1      -1.355   5.568  -3.548  0.00  0.00    -0.197 NA
ENDROOT
BRANCH   6  12
ATOM     12  C   UNL     1       2.992   6.919  -6.133  0.00  0.00    +0.243 C 
ATOM     13  C   UNL     1       4.127   5.613  -6.229  0.00  0.00    +0.243 C 
ATOM     14  F   UNL     1       3.314   4.539  -5.631  0.00  0.00    -0.230 F 
ATOM     15  C   UNL     1       3.647   5.126  -7.793  0.00  0.00    +0.218 C 
ATOM     16  O   UNL     1       5.046   5.234  -8.315  0.00  0.00    -0.217 OA
ATOM     17  C   UNL     1       3.288   6.766  -8.078  0.00  0.00    +0.183 C 
ATOM     18  O   UNL     1       2.081   6.384  -7.226  0.00  0.00    -0.330 OA
BRANCH  17  19
ATOM     19  C   UNL     1       2.549   6.476  -9.512  0.00  0.00    +0.214 C 
ATOM     20  O   UNL     1       1.375   7.226  -9.347  0.00  0.00    -0.218 OA
ENDBRANCH  17  19
ENDBRANCH   6  12
TORSDOF 2
ENDMDL
MODEL 3
REMARK VINA RESULT:      -6.9      5.358      7.750
REMARK  Name = 
REMARK  2 active torsions:
REMARK  status: ('A' for Active; 'I' for Inactive)
REMARK    1  A    between atoms: N_11  and  C_12
REMARK    2  A    between atoms: C_14  and  C_15
REMARK                            x       y       z     vdW  Elec       q    Type
REMARK                         _______ _______ _______ _____ _____    ______ ____
ROOT
ATOM      1  N   UNL     1       5.066   4.818 -13.586  0.00  0.00    -0.105 NA
ATOM      2  C   UNL     1       5.162   5.175 -12.337  0.00  0.00    +0.193 A 
ATOM      3  C   UNL     1       3.982   5.465 -11.648  0.00  0.00    +0.152 A 
ATOM      4  N   UNL     1       2.770   5.958 -12.030  0.00  0.00    -0.219 NA
ATOM      5  C   UNL     1       2.131   6.270 -10.869  0.00  0.00    +0.182 A 
ATOM      6  N   UNL     1       2.976   5.900  -9.852  0.00  0.00    -0.269 N 
ATOM      7  C   UNL     1       4.133   5.959 -10.347  0.00  0.00    +0.170 A 
ATOM      8  N   UNL     1       5.249   6.585  -9.958  0.00  0.00    -0.198 NA
ATOM      9  C   UNL     1       6.390   6.176 -10.584  0.00  0.00    +0.227 A 
ATOM     10 CL   UNL     1       7.704   7.316 -10.265  0.00  0.00    -0.041 Cl
ATOM     11  N   UNL     1       6.354   5.425 -11.722  0.00  0.00    -0.197 NA
ENDROOT
BRANCH   6  12
ATOM     12  C   UNL     1       2.339   6.234  -8.462  0.00  0.00    +0.243 C 
ATOM     13  C   UNL     1       1.628   4.695  -8.103  0.00  0.00    +0.243 C 
ATOM     14  F   UNL     1       2.568   3.818  -8.823  0.00  0.00    -0.230 F 
ATOM     15  C   UNL     1       2.504   4.471  -6.655  0.00  0.00    +0.218 C 
ATOM     16  O   UNL     1       1.250   4.262  -5.865  0.00  0.00    -0.217 OA
ATOM     17  C   UNL     1       2.464   6.166  -6.494  0.00  0.00    +0.183 C 
ATOM     18  O   UNL     1       3.547   6.036  -7.561  0.00  0.00    -0.330 OA
BRANCH  17  19
ATOM     19  C   UNL     1       3.508   6.187  -5.231  0.00  0.00    +0.214 C 
ATOM     20  O   UNL     1       3.953   7.517  -5.293  0.00  0.00    -0.218 OA
ENDBRANCH  17  19
ENDBRANCH   6  12
TORSDOF 2
ENDMDL
MODEL 4
REMARK VINA RESULT:      -6.9      3.278      4.576
REMARK  Name = 
REMARK  2 active torsions:
REMARK  status: ('A' for Active; 'I' for Inactive)
REMARK    1  A    between atoms: N_11  and  C_12
REMARK    2  A    between atoms: C_14  and  C_15
REMARK                            x       y       z     vdW  Elec       q    Type
REMARK                         _______ _______ _______ _____ _____    ______ ____
ROOT
ATOM      1  N   UNL     1       0.969   6.332  -3.567  0.00  0.00    -0.105 NA
ATOM      2  C   UNL     1       1.977   6.458  -4.383  0.00  0.00    +0.193 A 
ATOM      3  C   UNL     1       2.037   5.598  -5.483  0.00  0.00    +0.152 A 
ATOM      4  N   UNL     1       1.603   4.325  -5.702  0.00  0.00    -0.219 NA
ATOM      5  C   UNL     1       2.196   3.943  -6.867  0.00  0.00    +0.182 A 
ATOM      6  N   UNL     1       2.914   5.026  -7.307  0.00  0.00    -0.269 N 
ATOM      7  C   UNL     1       3.193   5.682  -6.268  0.00  0.00    +0.170 A 
ATOM      8  N   UNL     1       4.348   6.139  -5.773  0.00  0.00    -0.198 NA
ATOM      9  C   UNL     1       4.225   7.066  -4.780  0.00  0.00    +0.227 A 
ATOM     10 CL   UNL     1       5.778   7.301  -3.967  0.00  0.00    -0.041 Cl
ATOM     11  N   UNL     1       3.041   7.274  -4.134  0.00  0.00    -0.197 NA
ENDROOT
BRANCH   6  12
ATOM     12  C   UNL     1       3.656   4.686  -8.643  0.00  0.00    +0.243 C 
ATOM     13  C   UNL     1       2.558   5.418  -9.767  0.00  0.00    +0.243 C 
ATOM     14  F   UNL     1       2.030   6.502  -8.920  0.00  0.00    -0.230 F 
ATOM     15  C   UNL     1       3.722   6.479 -10.425  0.00  0.00    +0.218 C 
ATOM     16  O   UNL     1       3.458   5.993 -11.816  0.00  0.00    -0.217 OA
ATOM     17  C   UNL     1       4.866   5.263 -10.090  0.00  0.00    +0.183 C 
ATOM     18  O   UNL     1       4.666   5.821  -8.684  0.00  0.00    -0.330 OA
BRANCH  17  19
ATOM     19  C   UNL     1       6.153   6.215 -10.440  0.00  0.00    +0.214 C 
ATOM     20  O   UNL     1       7.041   5.821  -9.428  0.00  0.00    -0.218 OA
ENDBRANCH  17  19
ENDBRANCH   6  12
TORSDOF 2
ENDMDL
MODEL 5
REMARK VINA RESULT:      -6.8      3.129      4.254
REMARK  Name = 
REMARK  2 active torsions:
REMARK  status: ('A' for Active; 'I' for Inactive)
REMARK    1  A    between atoms: N_11  and  C_12
REMARK    2  A    between atoms: C_14  and  C_15
REMARK                            x       y       z     vdW  Elec       q    Type
REMARK                         _______ _______ _______ _____ _____    ______ ____
ROOT
ATOM      1  N   UNL     1      -2.086   5.637  -6.701  0.00  0.00    -0.105 NA
ATOM      2  C   UNL     1      -1.396   5.785  -5.606  0.00  0.00    +0.193 A 
ATOM      3  C   UNL     1      -0.061   5.372  -5.615  0.00  0.00    +0.152 A 
ATOM      4  N   UNL     1       0.615   4.403  -6.293  0.00  0.00    -0.219 NA
ATOM      5  C   UNL     1       1.824   4.315  -5.672  0.00  0.00    +0.182 A 
ATOM      6  N   UNL     1       1.824   5.271  -4.688  0.00  0.00    -0.269 N 
ATOM      7  C   UNL     1       0.611   5.435  -4.389  0.00  0.00    +0.170 A 
ATOM      8  N   UNL     1      -0.045   5.393  -3.224  0.00  0.00    -0.198 NA
ATOM      9  C   UNL     1      -1.304   5.918  -3.250  0.00  0.00    +0.227 A 
ATOM     10 CL   UNL     1      -2.184   5.467  -1.783  0.00  0.00    -0.041 Cl
ATOM     11  N   UNL     1      -1.951   6.175  -4.422  0.00  0.00    -0.197 NA
ENDROOT
BRANCH   6  12
ATOM     12  C   UNL     1       3.173   5.242  -3.895  0.00  0.00    +0.243 C 
ATOM     13  C   UNL     1       4.041   6.456  -4.776  0.00  0.00    +0.243 C 
ATOM     14  F   UNL     1       2.910   7.297  -5.208  0.00  0.00    -0.230 F 
ATOM     15  C   UNL     1       4.287   7.461  -3.418  0.00  0.00    +0.218 C 
ATOM     16  O   UNL     1       5.769   7.480  -3.634  0.00  0.00    -0.217 OA
ATOM     17  C   UNL     1       4.320   6.029  -2.497  0.00  0.00    +0.183 C 
ATOM     18  O   UNL     1       2.817   6.150  -2.729  0.00  0.00    -0.330 OA
BRANCH  17  19
ATOM     19  C   UNL     1       4.306   6.816  -1.059  0.00  0.00    +0.214 C 
ATOM     20  O   UNL     1       3.889   5.781  -0.209  0.00  0.00    -0.218 OA
ENDBRANCH  17  19
ENDBRANCH   6  12
TORSDOF 2
ENDMDL
MODEL 6
REMARK VINA RESULT:      -6.4      3.614      5.842
REMARK  Name = 
REMARK  2 active torsions:
REMARK  status: ('A' for Active; 'I' for Inactive)
REMARK    1  A    between atoms: N_11  and  C_12
REMARK    2  A    between atoms: C_14  and  C_15
REMARK                            x       y       z     vdW  Elec       q    Type
REMARK                         _______ _______ _______ _____ _____    ______ ____
ROOT
ATOM      1  N   UNL     1       4.175   5.332 -10.524  0.00  0.00    -0.105 NA
ATOM      2  C   UNL     1       3.062   5.701  -9.957  0.00  0.00    +0.193 A 
ATOM      3  C   UNL     1       2.701   5.077  -8.760  0.00  0.00    +0.152 A 
ATOM      4  N   UNL     1       2.928   3.836  -8.244  0.00  0.00    -0.219 NA
ATOM      5  C   UNL     1       2.095   3.740  -7.172  0.00  0.00    +0.182 A 
ATOM      6  N   UNL     1       1.449   4.947  -7.074  0.00  0.00    -0.269 N 
ATOM      7  C   UNL     1       1.443   5.412  -8.245  0.00  0.00    +0.170 A 
ATOM      8  N   UNL     1       0.460   5.867  -9.030  0.00  0.00    -0.198 NA
ATOM      9  C   UNL     1       0.872   6.571 -10.123  0.00  0.00    +0.227 A 
ATOM     10 CL   UNL     1      -0.471   6.782 -11.255  0.00  0.00    -0.041 Cl
ATOM     11  N   UNL     1       2.167   6.545 -10.548  0.00  0.00    -0.197 NA
ENDROOT
BRANCH   6  12
ATOM     12  C   UNL     1       0.445   4.936  -5.874  0.00  0.00    +0.243 C 
ATOM     13  C   UNL     1       1.551   5.271  -4.582  0.00  0.00    +0.243 C 
ATOM     14  F   UNL     1       2.548   6.069  -5.317  0.00  0.00    -0.230 F 
ATOM     15  C   UNL     1       0.755   6.697  -4.085  0.00  0.00    +0.218 C 
ATOM     16  O   UNL     1       0.619   6.197  -2.680  0.00  0.00    -0.217 OA
ATOM     17  C   UNL     1      -0.683   5.953  -4.614  0.00  0.00    +0.183 C 
ATOM     18  O   UNL     1      -0.092   6.355  -5.962  0.00  0.00    -0.330 OA
BRANCH  17  19
ATOM     19  C   UNL     1      -1.586   7.309  -4.443  0.00  0.00    +0.214 C 
ATOM     20  O   UNL     1      -2.586   7.069  -5.398  0.00  0.00    -0.218 OA
ENDBRANCH  17  19
ENDBRANCH   6  12
TORSDOF 2
ENDMDL
MODEL 7
REMARK VINA RESULT:      -6.4      5.954      8.057
REMARK  Name = 
REMARK  2 active torsions:
REMARK  status: ('A' for Active; 'I' for Inactive)
REMARK    1  A    between atoms: N_11  and  C_12
REMARK    2  A    between atoms: C_14  and  C_15
REMARK                            x       y       z     vdW  Elec       q    Type
REMARK                         _______ _______ _______ _____ _____    ______ ____
ROOT
ATOM      1  N   UNL     1       0.611   5.120 -14.995  0.00  0.00    -0.105 NA
ATOM      2  C   UNL     1       1.551   5.177 -14.095  0.00  0.00    +0.193 A 
ATOM      3  C   UNL     1       1.221   5.687 -12.837  0.00  0.00    +0.152 A 
ATOM      4  N   UNL     1       0.310   6.605 -12.408  0.00  0.00    -0.219 NA
ATOM      5  C   UNL     1       0.655   6.871 -11.118  0.00  0.00    +0.182 A 
ATOM      6  N   UNL     1       1.724   6.061 -10.829  0.00  0.00    -0.269 N 
ATOM      7  C   UNL     1       2.283   5.844 -11.938  0.00  0.00    +0.170 A 
ATOM      8  N   UNL     1       3.543   5.993 -12.358  0.00  0.00    -0.198 NA
ATOM      9  C   UNL     1       3.838   5.373 -13.536  0.00  0.00    +0.227 A 
ATOM     10 CL   UNL     1       5.390   5.950 -14.159  0.00  0.00    -0.041 Cl
ATOM     11  N   UNL     1       2.861   4.909 -14.367  0.00  0.00    -0.197 NA
ENDROOT
BRANCH   6  12
ATOM     12  C   UNL     1       2.215   6.303  -9.363  0.00  0.00    +0.243 C 
ATOM     13  C   UNL     1       1.349   5.032  -8.565  0.00  0.00    +0.243 C 
ATOM     14  F   UNL     1       1.272   4.059  -9.669  0.00  0.00    -0.230 F 
ATOM     15  C   UNL     1       2.751   4.264  -7.966  0.00  0.00    +0.218 C 
ATOM     16  O   UNL     1       2.243   4.315  -6.558  0.00  0.00    -0.217 OA
ATOM     17  C   UNL     1       3.445   5.818  -7.898  0.00  0.00    +0.183 C 
ATOM     18  O   UNL     1       3.540   5.560  -9.399  0.00  0.00    -0.330 OA
BRANCH  17  19
ATOM     19  C   UNL     1       4.948   5.259  -7.560  0.00  0.00    +0.214 C 
ATOM     20  O   UNL     1       5.630   5.652  -8.721  0.00  0.00    -0.218 OA
ENDBRANCH  17  19
ENDBRANCH   6  12
TORSDOF 2
ENDMDL
MODEL 8
REMARK VINA RESULT:      -6.2      3.242      4.925
REMARK  Name = 
REMARK  2 active torsions:
REMARK  status: ('A' for Active; 'I' for Inactive)
REMARK    1  A    between atoms: N_11  and  C_12
REMARK    2  A    between atoms: C_14  and  C_15
REMARK                            x       y       z     vdW  Elec       q    Type
REMARK                         _______ _______ _______ _____ _____    ______ ____
ROOT
ATOM      1  N   UNL     1       0.211   5.235  -9.644  0.00  0.00    -0.105 NA
ATOM      2  C   UNL     1       0.192   5.460  -8.361  0.00  0.00    +0.193 A 
ATOM      3  C   UNL     1       1.322   5.109  -7.619  0.00  0.00    +0.152 A 
ATOM      4  N   UNL     1       2.273   4.143  -7.761  0.00  0.00    -0.219 NA
ATOM      5  C   UNL     1       2.950   4.136  -6.579  0.00  0.00    +0.182 A 
ATOM      6  N   UNL     1       2.399   5.132  -5.813  0.00  0.00    -0.269 N 
ATOM      7  C   UNL     1       1.217   5.255  -6.230  0.00  0.00    +0.170 A 
ATOM      8  N   UNL     1       0.033   5.233  -5.609  0.00  0.00    -0.198 NA
ATOM      9  C   UNL     1      -1.016   5.699  -6.345  0.00  0.00    +0.227 A 
ATOM     10 CL   UNL     1      -2.546   5.271  -5.567  0.00  0.00    -0.041 Cl
ATOM     11  N   UNL     1      -0.924   5.875  -7.694  0.00  0.00    -0.197 NA
ENDROOT
BRANCH   6  12
ATOM     12  C   UNL     1       3.100   5.198  -4.414  0.00  0.00    +0.243 C 
ATOM     13  C   UNL     1       4.144   6.554  -4.689  0.00  0.00    +0.243 C 
ATOM     14  F   UNL     1       3.330   7.294  -5.670  0.00  0.00    -0.230 F 
ATOM     15  C   UNL     1       3.492   7.490  -3.419  0.00  0.00    +0.218 C 
ATOM     16  O   UNL     1       4.840   7.682  -2.796  0.00  0.00    -0.217 OA
ATOM     17  C   UNL     1       3.203   6.014  -2.621  0.00  0.00    +0.183 C 
ATOM     18  O   UNL     1       2.061   5.986  -3.633  0.00  0.00    -0.330 OA
BRANCH  17  19
ATOM     19  C   UNL     1       2.318   6.700  -1.425  0.00  0.00    +0.214 C 
ATOM     20  O   UNL     1       2.718   5.916  -0.332  0.00  0.00    -0.218 OA
ENDBRANCH  17  19
ENDBRANCH   6  12
TORSDOF 2
ENDMDL
MODEL 9
REMARK VINA RESULT:      -6.1      4.264      6.552
REMARK  Name = 
REMARK  2 active torsions:
REMARK  status: ('A' for Active; 'I' for Inactive)
REMARK    1  A    between atoms: N_11  and  C_12
REMARK    2  A    between atoms: C_14  and  C_15
REMARK                            x       y       z     vdW  Elec       q    Type
REMARK                         _______ _______ _______ _____ _____    ______ ____
ROOT
ATOM      1  N   UNL     1       2.575   5.758 -11.319  0.00  0.00    -0.105 NA
ATOM      2  C   UNL     1       3.201   5.642 -10.182  0.00  0.00    +0.193 A 
ATOM      3  C   UNL     1       2.674   6.310  -9.074  0.00  0.00    +0.152 A 
ATOM      4  N   UNL     1       1.954   7.458  -8.928  0.00  0.00    -0.219 NA
ATOM      5  C   UNL     1       1.976   7.723  -7.593  0.00  0.00    +0.182 A 
ATOM      6  N   UNL     1       2.666   6.692  -7.006  0.00  0.00    -0.269 N 
ATOM      7  C   UNL     1       3.438   6.260  -7.902  0.00  0.00    +0.170 A 
ATOM      8  N   UNL     1       4.759   6.053  -7.933  0.00  0.00    -0.198 NA
ATOM      9  C   UNL     1       5.202   5.292  -8.976  0.00  0.00    +0.227 A 
ATOM     10 CL   UNL     1       6.961   5.410  -9.113  0.00  0.00    -0.041 Cl
ATOM     11  N   UNL     1       4.415   5.032 -10.059  0.00  0.00    -0.197 NA
ENDROOT
BRANCH   6  12
ATOM     12  C   UNL     1       2.766   6.909  -5.459  0.00  0.00    +0.243 C 
ATOM     13  C   UNL     1       1.178   6.385  -5.001  0.00  0.00    +0.243 C 
ATOM     14  F   UNL     1       0.929   5.402  -6.070  0.00  0.00    -0.230 F 
ATOM     15  C   UNL     1       1.736   5.143  -3.970  0.00  0.00    +0.218 C 
ATOM     16  O   UNL     1       0.949   5.678  -2.813  0.00  0.00    -0.217 OA
ATOM     17  C   UNL     1       3.082   6.142  -3.669  0.00  0.00    +0.183 C 
ATOM     18  O   UNL     1       3.456   5.618  -5.052  0.00  0.00    -0.330 OA
BRANCH  17  19
ATOM     19  C   UNL     1       3.904   4.986  -2.850  0.00  0.00    +0.214 C 
ATOM     20  O   UNL     1       4.276   5.704  -1.703  0.00  0.00    -0.218 OA
ENDBRANCH  17  19
ENDBRANCH   6  12
TORSDOF 2
ENDMDL
