MODEL 1
REMARK VINA RESULT:      -7.5      0.000      0.000
REMARK  Name = 
REMARK  2 active torsions:
REMARK  status: ('A' for Active; 'I' for Inactive)
REMARK    1  A    between atoms: C_3  and  C_4
REMARK    2  A    between atoms: C_11  and  S_12
REMARK                            x       y       z     vdW  Elec       q    Type
REMARK                         _______ _______ _______ _____ _____    ______ ____
ROOT
ATOM      1  C   UNL     1       3.580   6.564  -8.739  0.00  0.00    +0.117 C 
ATOM      2  N   UNL     1       2.682   5.672  -8.270  0.00  0.00    -0.134 NA
ATOM      3  S   UNL     1       2.530   5.958  -6.624  0.00  0.00    +0.066 S 
ATOM      4  O   UNL     1       3.451   4.959  -5.954  0.00  0.00    -0.153 OA
ATOM      5  O   UNL     1       2.816   7.333  -6.150  0.00  0.00    -0.153 OA
ATOM      6  C   UNL     1       0.921   5.554  -6.126  0.00  0.00    +0.138 A 
ATOM      7  C   UNL     1      -0.058   5.705  -7.102  0.00  0.00    +0.086 A 
ATOM      8  C   UNL     1      -1.344   5.878  -6.687  0.00  0.00    +0.030 A 
ATOM      9  C   UNL     1      -1.678   5.965  -5.340  0.00  0.00    +0.078 A 
ATOM     10  C   UNL     1      -0.742   5.453  -4.449  0.00  0.00    +0.137 A 
ATOM     11 CL   UNL     1      -2.881   7.091  -4.733  0.00  0.00    -0.081 Cl
ATOM     12  N   UNL     1       0.386   5.188  -8.350  0.00  0.00    -0.219 NA
ATOM     13  C   UNL     1       0.553   5.178  -4.875  0.00  0.00    +0.042 A 
ATOM     14  C   UNL     1       1.399   6.200  -9.033  0.00  0.00    +0.187 C 
ENDROOT
BRANCH  10  15
ATOM     15  S   UNL     1      -0.968   5.531  -2.707  0.00  0.00    +0.094 S 
ATOM     16  O   UNL     1       0.174   4.726  -2.123  0.00  0.00    -0.150 OA
ATOM     17  O   UNL     1      -0.794   6.976  -2.296  0.00  0.00    -0.150 OA
ATOM     18  N   UNL     1      -2.497   4.921  -2.231  0.00  0.00    +0.039 NA
ENDBRANCH  10  15
BRANCH  14  19
ATOM     19  C   UNL     1       1.667   5.149 -10.287  0.00  0.00    +0.135 C 
ATOM     20 CL   UNL     1       0.076   4.626 -10.855  0.00  0.00    -0.110 Cl
ENDBRANCH  14  19
TORSDOF 2
ENDMDL
MODEL 2
REMARK VINA RESULT:      -7.3      1.755      1.847
REMARK  Name = 
REMARK  2 active torsions:
REMARK  status: ('A' for Active; 'I' for Inactive)
REMARK    1  A    between atoms: C_3  and  C_4
REMARK    2  A    between atoms: C_11  and  S_12
REMARK                            x       y       z     vdW  Elec       q    Type
REMARK                         _______ _______ _______ _____ _____    ______ ____
ROOT
ATOM      1  C   UNL     1       4.663   5.863  -6.910  0.00  0.00    +0.117 C 
ATOM      2  N   UNL     1       3.598   5.067  -6.680  0.00  0.00    -0.134 NA
ATOM      3  S   UNL     1       2.925   5.565  -5.226  0.00  0.00    +0.066 S 
ATOM      4  O   UNL     1       3.493   4.631  -4.178  0.00  0.00    -0.153 OA
ATOM      5  O   UNL     1       3.135   6.979  -4.837  0.00  0.00    -0.153 OA
ATOM      6  C   UNL     1       1.218   5.278  -5.266  0.00  0.00    +0.138 A 
ATOM      7  C   UNL     1       0.635   5.334  -6.528  0.00  0.00    +0.086 A 
ATOM      8  C   UNL     1      -0.699   5.598  -6.598  0.00  0.00    +0.030 A 
ATOM      9  C   UNL     1      -1.458   5.866  -5.464  0.00  0.00    +0.078 A 
ATOM     10  C   UNL     1      -0.914   5.443  -4.257  0.00  0.00    +0.137 A 
ATOM     11 CL   UNL     1      -2.709   7.097  -5.430  0.00  0.00    -0.081 Cl
ATOM     12  N   UNL     1       1.433   4.649  -7.485  0.00  0.00    -0.219 NA
ATOM     13  C   UNL     1       0.425   5.076  -4.183  0.00  0.00    +0.042 A 
ATOM     14  C   UNL     1       2.686   5.534  -7.888  0.00  0.00    +0.187 C 
ENDROOT
BRANCH  10  15
ATOM     15  S   UNL     1      -1.703   5.749  -2.715  0.00  0.00    +0.094 S 
ATOM     16  O   UNL     1      -3.045   5.055  -2.813  0.00  0.00    -0.150 OA
ATOM     17  O   UNL     1      -0.885   5.059  -1.647  0.00  0.00    -0.150 OA
ATOM     18  N   UNL     1      -1.864   7.426  -2.400  0.00  0.00    +0.039 NA
ENDBRANCH  10  15
BRANCH  14  19
ATOM     19  C   UNL     1       3.282   4.323  -8.853  0.00  0.00    +0.135 C 
ATOM     20 CL   UNL     1       3.912   5.104 -10.309  0.00  0.00    -0.110 Cl
ENDBRANCH  14  19
TORSDOF 2
ENDMDL
MODEL 3
REMARK VINA RESULT:      -7.3      4.638      8.097
REMARK  Name = 
REMARK  2 active torsions:
REMARK  status: ('A' for Active; 'I' for Inactive)
REMARK    1  A    between atoms: C_3  and  C_4
REMARK    2  A    between atoms: C_11  and  S_12
REMARK                            x       y       z     vdW  Elec       q    Type
REMARK                         _______ _______ _______ _____ _____    ______ ____
ROOT
ATOM      1  C   UNL     1       0.887   6.147  -7.172  0.00  0.00    +0.117 C 
ATOM      2  N   UNL     1       1.874   5.315  -7.566  0.00  0.00    -0.134 NA
ATOM      3  S   UNL     1       2.173   5.649  -9.182  0.00  0.00    +0.066 S 
ATOM      4  O   UNL     1       1.379   4.621  -9.961  0.00  0.00    -0.153 OA
ATOM      5  O   UNL     1       1.863   7.018  -9.656  0.00  0.00    -0.153 OA
ATOM      6  C   UNL     1       3.843   5.340  -9.524  0.00  0.00    +0.138 A 
ATOM      7  C   UNL     1       4.711   5.517  -8.451  0.00  0.00    +0.086 A 
ATOM      8  C   UNL     1       6.020   5.766  -8.730  0.00  0.00    +0.030 A 
ATOM      9  C   UNL     1       6.482   5.903 -10.035  0.00  0.00    +0.078 A 
ATOM     10  C   UNL     1       5.668   5.366 -11.025  0.00  0.00    +0.137 A 
ATOM     11 CL   UNL     1       7.677   7.104 -10.495  0.00  0.00    -0.081 Cl
ATOM     12  N   UNL     1       4.173   4.948  -7.265  0.00  0.00    -0.219 NA
ATOM     13  C   UNL     1       4.354   5.015 -10.738  0.00  0.00    +0.042 A 
ATOM     14  C   UNL     1       3.044   5.889  -6.667  0.00  0.00    +0.187 C 
ENDROOT
BRANCH  10  15
ATOM     15  S   UNL     1       6.062   5.499 -12.735  0.00  0.00    +0.094 S 
ATOM     16  O   UNL     1       4.971   4.733 -13.453  0.00  0.00    -0.150 OA
ATOM     17  O   UNL     1       5.948   6.959 -13.109  0.00  0.00    -0.150 OA
ATOM     18  N   UNL     1       7.622   4.880 -13.082  0.00  0.00    +0.039 NA
ENDBRANCH  10  15
BRANCH  14  19
ATOM     19  C   UNL     1       2.709   4.795  -5.467  0.00  0.00    +0.135 C 
ATOM     20 CL   UNL     1       4.160   4.688  -4.462  0.00  0.00    -0.110 Cl
ENDBRANCH  14  19
TORSDOF 2
ENDMDL
MODEL 4
REMARK VINA RESULT:      -7.0      3.141      3.806
REMARK  Name = 
REMARK  2 active torsions:
REMARK  status: ('A' for Active; 'I' for Inactive)
REMARK    1  A    between atoms: C_3  and  C_4
REMARK    2  A    between atoms: C_11  and  S_12
REMARK                            x       y       z     vdW  Elec       q    Type
REMARK                         _______ _______ _______ _____ _____    ______ ____
ROOT
ATOM      1  C   UNL     1       2.173   4.533  -8.624  0.00  0.00    +0.117 C 
ATOM      2  N   UNL     1       1.832   5.494  -7.740  0.00  0.00    -0.134 NA
ATOM      3  S   UNL     1       1.355   4.712  -6.335  0.00  0.00    +0.066 S 
ATOM      4  O   UNL     1      -0.156   4.638  -6.407  0.00  0.00    -0.153 OA
ATOM      5  O   UNL     1       1.933   3.371  -6.080  0.00  0.00    -0.153 OA
ATOM      6  C   UNL     1       1.732   5.714  -4.973  0.00  0.00    +0.138 A 
ATOM      7  C   UNL     1       2.829   6.555  -5.140  0.00  0.00    +0.086 A 
ATOM      8  C   UNL     1       3.466   6.992  -4.020  0.00  0.00    +0.030 A 
ATOM      9  C   UNL     1       3.090   6.577  -2.747  0.00  0.00    +0.078 A 
ATOM     10  C   UNL     1       1.806   6.055  -2.636  0.00  0.00    +0.137 A 
ATOM     11 CL   UNL     1       4.255   6.206  -1.488  0.00  0.00    -0.081 Cl
ATOM     12  N   UNL     1       2.800   7.176  -6.418  0.00  0.00    -0.219 NA
ATOM     13  C   UNL     1       1.098   5.689  -3.774  0.00  0.00    +0.042 A 
ATOM     14  C   UNL     1       3.260   6.150  -7.538  0.00  0.00    +0.187 C 
ENDROOT
BRANCH  10  15
ATOM     15  S   UNL     1       1.180   5.425  -1.117  0.00  0.00    +0.094 S 
ATOM     16  O   UNL     1      -0.223   4.954  -1.433  0.00  0.00    -0.150 OA
ATOM     17  O   UNL     1       2.019   4.221  -0.751  0.00  0.00    -0.150 OA
ATOM     18  N   UNL     1       1.202   6.607   0.124  0.00  0.00    +0.039 NA
ENDBRANCH  10  15
BRANCH  14  19
ATOM     19  C   UNL     1       2.960   7.258  -8.735  0.00  0.00    +0.135 C 
ATOM     20 CL   UNL     1       4.224   7.038  -9.952  0.00  0.00    -0.110 Cl
ENDBRANCH  14  19
TORSDOF 2
ENDMDL
MODEL 5
REMARK VINA RESULT:      -6.8      2.422      5.947
REMARK  Name = 
REMARK  2 active torsions:
REMARK  status: ('A' for Active; 'I' for Inactive)
REMARK    1  A    between atoms: C_3  and  C_4
REMARK    2  A    between atoms: C_11  and  S_12
REMARK                            x       y       z     vdW  Elec       q    Type
REMARK                         _______ _______ _______ _____ _____    ______ ____
ROOT
ATOM      1  C   UNL     1       1.302   5.536  -2.928  0.00  0.00    +0.117 C 
ATOM      2  N   UNL     1       1.037   6.312  -4.000  0.00  0.00    -0.134 NA
ATOM      3  S   UNL     1       2.277   6.055  -5.101  0.00  0.00    +0.066 S 
ATOM      4  O   UNL     1       3.256   7.188  -4.877  0.00  0.00    -0.153 OA
ATOM      5  O   UNL     1       2.968   4.746  -5.044  0.00  0.00    -0.153 OA
ATOM      6  C   UNL     1       1.657   6.253  -6.706  0.00  0.00    +0.138 A 
ATOM      7  C   UNL     1       0.310   5.943  -6.865  0.00  0.00    +0.086 A 
ATOM      8  C   UNL     1      -0.120   5.610  -8.114  0.00  0.00    +0.030 A 
ATOM      9  C   UNL     1       0.752   5.518  -9.193  0.00  0.00    +0.078 A 
ATOM     10  C   UNL     1       1.967   6.177  -9.048  0.00  0.00    +0.137 A 
ATOM     11 CL   UNL     1       0.625   4.257 -10.409  0.00  0.00    -0.081 Cl
ATOM     12  N   UNL     1      -0.462   6.478  -5.799  0.00  0.00    -0.219 NA
ATOM     13  C   UNL     1       2.384   6.611  -7.795  0.00  0.00    +0.042 A 
ATOM     14  C   UNL     1      -0.285   5.593  -4.494  0.00  0.00    +0.187 C 
ENDROOT
BRANCH  10  15
ATOM     15  S   UNL     1       3.217   6.119 -10.285  0.00  0.00    +0.094 S 
ATOM     16  O   UNL     1       4.196   7.211  -9.910  0.00  0.00    -0.150 OA
ATOM     17  O   UNL     1       3.915   4.784 -10.156  0.00  0.00    -0.150 OA
ATOM     18  N   UNL     1       2.572   6.342 -11.857  0.00  0.00    +0.039 NA
ENDBRANCH  10  15
BRANCH  14  19
ATOM     19  C   UNL     1      -1.225   6.634  -3.610  0.00  0.00    +0.135 C 
ATOM     20 CL   UNL     1      -1.560   8.021  -4.655  0.00  0.00    -0.110 Cl
ENDBRANCH  14  19
TORSDOF 2
ENDMDL
MODEL 6
REMARK VINA RESULT:      -6.6      3.693      7.339
REMARK  Name = 
REMARK  2 active torsions:
REMARK  status: ('A' for Active; 'I' for Inactive)
REMARK    1  A    between atoms: C_3  and  C_4
REMARK    2  A    between atoms: C_11  and  S_12
REMARK                            x       y       z     vdW  Elec       q    Type
REMARK                         _______ _______ _______ _____ _____    ______ ____
ROOT
ATOM      1  C   UNL     1       1.681   4.309  -6.364  0.00  0.00    +0.117 C 
ATOM      2  N   UNL     1       1.593   5.281  -7.296  0.00  0.00    -0.134 NA
ATOM      3  S   UNL     1       2.758   4.946  -8.456  0.00  0.00    +0.066 S 
ATOM      4  O   UNL     1       3.953   5.799  -8.085  0.00  0.00    -0.153 OA
ATOM      5  O   UNL     1       3.158   3.528  -8.620  0.00  0.00    -0.153 OA
ATOM      6  C   UNL     1       2.205   5.518  -9.994  0.00  0.00    +0.138 A 
ATOM      7  C   UNL     1       0.824   5.526 -10.164  0.00  0.00    +0.086 A 
ATOM      8  C   UNL     1       0.342   5.490 -11.437  0.00  0.00    +0.030 A 
ATOM      9  C   UNL     1       1.182   5.387 -12.540  0.00  0.00    +0.078 A 
ATOM     10  C   UNL     1       2.508   5.746 -12.328  0.00  0.00    +0.137 A 
ATOM     11 CL   UNL     1       0.800   4.388 -13.932  0.00  0.00    -0.081 Cl
ATOM     12  N   UNL     1       0.175   6.038  -9.007  0.00  0.00    -0.219 NA
ATOM     13  C   UNL     1       2.998   5.882 -11.034  0.00  0.00    +0.042 A 
ATOM     14  C   UNL     1       0.153   4.942  -7.860  0.00  0.00    +0.187 C 
ENDROOT
BRANCH  10  15
ATOM     15  S   UNL     1       3.726   5.622 -13.591  0.00  0.00    +0.094 S 
ATOM     16  O   UNL     1       4.944   6.330 -13.037  0.00  0.00    -0.150 OA
ATOM     17  O   UNL     1       4.056   4.156 -13.754  0.00  0.00    -0.150 OA
ATOM     18  N   UNL     1       3.191   6.314 -15.065  0.00  0.00    +0.039 NA
ENDBRANCH  10  15
BRANCH  14  19
ATOM     19  C   UNL     1      -0.552   6.005  -6.801  0.00  0.00    +0.135 C 
ATOM     20 CL   UNL     1      -2.201   5.426  -6.527  0.00  0.00    -0.110 Cl
ENDBRANCH  14  19
TORSDOF 2
ENDMDL
MODEL 7
REMARK VINA RESULT:      -6.6      3.539      4.520
REMARK  Name = 
REMARK  2 active torsions:
REMARK  status: ('A' for Active; 'I' for Inactive)
REMARK    1  A    between atoms: C_3  and  C_4
REMARK    2  A    between atoms: C_11  and  S_12
REMARK                            x       y       z     vdW  Elec       q    Type
REMARK                         _______ _______ _______ _____ _____    ______ ____
ROOT
ATOM      1  C   UNL     1       2.343   5.474 -12.356  0.00  0.00    +0.117 C 
ATOM      2  N   UNL     1       2.717   6.284 -11.343  0.00  0.00    -0.134 NA
ATOM      3  S   UNL     1       1.596   6.072 -10.114  0.00  0.00    +0.066 S 
ATOM      4  O   UNL     1       0.601   7.202 -10.276  0.00  0.00    -0.153 OA
ATOM      5  O   UNL     1       0.899   4.765 -10.055  0.00  0.00    -0.153 OA
ATOM      6  C   UNL     1       2.377   6.320  -8.588  0.00  0.00    +0.138 A 
ATOM      7  C   UNL     1       3.732   6.008  -8.556  0.00  0.00    +0.086 A 
ATOM      8  C   UNL     1       4.286   5.715  -7.347  0.00  0.00    +0.030 A 
ATOM      9  C   UNL     1       3.529   5.665  -6.182  0.00  0.00    +0.078 A 
ATOM     10  C   UNL     1       2.307   6.325  -6.225  0.00  0.00    +0.137 A 
ATOM     11 CL   UNL     1       3.777   4.446  -4.943  0.00  0.00    -0.081 Cl
ATOM     12  N   UNL     1       4.393   6.503  -9.713  0.00  0.00    -0.219 NA
ATOM     13  C   UNL     1       1.765   6.719  -7.443  0.00  0.00    +0.042 A 
ATOM     14  C   UNL     1       4.081   5.575 -10.962  0.00  0.00    +0.187 C 
ENDROOT
BRANCH  10  15
ATOM     15  S   UNL     1       1.189   6.317  -4.866  0.00  0.00    +0.094 S 
ATOM     16  O   UNL     1       0.092   7.286  -5.250  0.00  0.00    -0.150 OA
ATOM     17  O   UNL     1       0.595   4.929  -4.783  0.00  0.00    -0.150 OA
ATOM     18  N   UNL     1       1.960   6.759  -3.401  0.00  0.00    +0.039 NA
ENDBRANCH  10  15
BRANCH  14  19
ATOM     19  C   UNL     1       4.928   6.581 -11.973  0.00  0.00    +0.135 C 
ATOM     20 CL   UNL     1       5.821   7.702 -10.936  0.00  0.00    -0.110 Cl
ENDBRANCH  14  19
TORSDOF 2
ENDMDL
MODEL 8
REMARK VINA RESULT:      -6.4      3.361      4.090
REMARK  Name = 
REMARK  2 active torsions:
REMARK  status: ('A' for Active; 'I' for Inactive)
REMARK    1  A    between atoms: C_3  and  C_4
REMARK    2  A    between atoms: C_11  and  S_12
REMARK                            x       y       z     vdW  Elec       q    Type
REMARK                         _______ _______ _______ _____ _____    ______ ____
ROOT
ATOM      1  C   UNL     1       2.685   4.154  -8.643  0.00  0.00    +0.117 C 
ATOM      2  N   UNL     1       2.755   5.181  -7.770  0.00  0.00    -0.134 NA
ATOM      3  S   UNL     1       1.728   4.806  -6.498  0.00  0.00    +0.066 S 
ATOM      4  O   UNL     1       0.429   5.523  -6.804  0.00  0.00    -0.153 OA
ATOM      5  O   UNL     1       1.482   3.369  -6.232  0.00  0.00    -0.153 OA
ATOM      6  C   UNL     1       2.348   5.512  -5.044  0.00  0.00    +0.138 A 
ATOM      7  C   UNL     1       3.731   5.657  -4.996  0.00  0.00    +0.086 A 
ATOM      8  C   UNL     1       4.317   5.738  -3.770  0.00  0.00    +0.030 A 
ATOM      9  C   UNL     1       3.585   5.621  -2.594  0.00  0.00    +0.078 A 
ATOM     10  C   UNL     1       2.218   5.843  -2.707  0.00  0.00    +0.137 A 
ATOM     11 CL   UNL     1       4.176   4.741  -1.194  0.00  0.00    -0.081 Cl
ATOM     12  N   UNL     1       4.230   6.161  -6.229  0.00  0.00    -0.219 NA
ATOM     13  C   UNL     1       1.612   5.860  -3.958  0.00  0.00    +0.042 A 
ATOM     14  C   UNL     1       4.263   5.009  -7.319  0.00  0.00    +0.187 C 
ENDROOT
BRANCH  10  15
ATOM     15  S   UNL     1       1.126   5.679  -1.337  0.00  0.00    +0.094 S 
ATOM     16  O   UNL     1       0.921   4.188  -1.170  0.00  0.00    -0.150 OA
ATOM     17  O   UNL     1       1.853   6.202  -0.119  0.00  0.00    -0.150 OA
ATOM     18  N   UNL     1      -0.351   6.510  -1.593  0.00  0.00    +0.039 NA
ENDBRANCH  10  15
BRANCH  14  19
ATOM     19  C   UNL     1       4.772   6.071  -8.486  0.00  0.00    +0.135 C 
ATOM     20 CL   UNL     1       6.339   5.481  -9.056  0.00  0.00    -0.110 Cl
ENDBRANCH  14  19
TORSDOF 2
ENDMDL
MODEL 9
REMARK VINA RESULT:      -6.3      2.834      3.202
REMARK  Name = 
REMARK  2 active torsions:
REMARK  status: ('A' for Active; 'I' for Inactive)
REMARK    1  A    between atoms: C_3  and  C_4
REMARK    2  A    between atoms: C_11  and  S_12
REMARK                            x       y       z     vdW  Elec       q    Type
REMARK                         _______ _______ _______ _____ _____    ______ ____
ROOT
ATOM      1  C   UNL     1       4.125   5.848  -5.926  0.00  0.00    +0.117 C 
ATOM      2  N   UNL     1       3.248   5.148  -5.175  0.00  0.00    -0.134 NA
ATOM      3  S   UNL     1       3.009   6.025  -3.765  0.00  0.00    +0.066 S 
ATOM      4  O   UNL     1       3.943   5.409  -2.744  0.00  0.00    -0.153 OA
ATOM      5  O   UNL     1       3.211   7.491  -3.842  0.00  0.00    -0.153 OA
ATOM      6  C   UNL     1       1.400   5.744  -3.191  0.00  0.00    +0.138 A 
ATOM      7  C   UNL     1       0.459   5.457  -4.176  0.00  0.00    +0.086 A 
ATOM      8  C   UNL     1      -0.850   5.698  -3.889  0.00  0.00    +0.030 A 
ATOM      9  C   UNL     1      -1.249   6.267  -2.684  0.00  0.00    +0.078 A 
ATOM     10  C   UNL     1      -0.332   6.185  -1.643  0.00  0.00    +0.137 A 
ATOM     11 CL   UNL     1      -2.527   7.465  -2.580  0.00  0.00    -0.081 Cl
ATOM     12  N   UNL     1       0.983   4.535  -5.122  0.00  0.00    -0.219 NA
ATOM     13  C   UNL     1       0.992   5.848  -1.900  0.00  0.00    +0.042 A 
ATOM     14  C   UNL     1       1.979   5.272  -6.113  0.00  0.00    +0.187 C 
ENDROOT
BRANCH  10  15
ATOM     15  S   UNL     1      -0.639   6.902  -0.067  0.00  0.00    +0.094 S 
ATOM     16  O   UNL     1      -0.992   8.347  -0.350  0.00  0.00    -0.150 OA
ATOM     17  O   UNL     1      -1.858   6.216   0.508  0.00  0.00    -0.150 OA
ATOM     18  N   UNL     1       0.713   6.759   0.976  0.00  0.00    +0.039 NA
ENDBRANCH  10  15
BRANCH  14  19
ATOM     19  C   UNL     1       2.351   3.843  -6.868  0.00  0.00    +0.135 C 
ATOM     20 CL   UNL     1       2.351   4.175  -8.605  0.00  0.00    -0.110 Cl
ENDBRANCH  14  19
TORSDOF 2
ENDMDL
