MODEL 1
REMARK VINA RESULT:      -8.1      0.000      0.000
REMARK  Name = 
REMARK  2 active torsions:
REMARK  status: ('A' for Active; 'I' for Inactive)
REMARK    1  A    between atoms: C_7  and  N_8
REMARK    2  A    between atoms: C_13  and  S_14
REMARK                            x       y       z     vdW  Elec       q    Type
REMARK                         _______ _______ _______ _____ _____    ______ ____
ROOT
ATOM      1  N   UNL     1       1.840   5.684  -7.236  0.00  0.00    -0.239 N 
ATOM      2  C   UNL     1       2.049   4.136  -6.879  0.00  0.00    +0.173 C 
ATOM      3  C   UNL     1       2.865   3.851  -8.313  0.00  0.00    +0.046 C 
ATOM      4  N   UNL     1       3.420   4.464  -6.111  0.00  0.00    -0.219 NA
ATOM      5  C   UNL     1       3.232   5.304  -4.973  0.00  0.00    +0.072 A 
ATOM      6  C   UNL     1       2.118   6.123  -4.830  0.00  0.00    +0.070 A 
ATOM      7  C   UNL     1       1.563   6.400  -3.584  0.00  0.00    +0.027 A 
ATOM      8  C   UNL     1       2.182   5.839  -2.471  0.00  0.00    +0.136 A 
ATOM      9  C   UNL     1       3.536   5.539  -2.601  0.00  0.00    +0.078 A 
ATOM     10 CL   UNL     1       4.440   5.339  -1.128  0.00  0.00    -0.081 Cl
ATOM     11  C   UNL     1       4.063   5.259  -3.859  0.00  0.00    +0.029 A 
ATOM     12  C   UNL     1       1.407   6.402  -6.082  0.00  0.00    +0.255 C 
ATOM     13  O   UNL     1       0.555   7.309  -6.093  0.00  0.00    -0.269 OA
ENDROOT
BRANCH   1  16
ATOM     14  C   UNL     1       2.893   7.431  -9.069  0.00  0.00    +0.032 C 
ATOM     15  C   UNL     1       2.047   6.499  -9.458  0.00  0.00    -0.008 A 
ATOM     16  C   UNL     1       1.233   5.938  -8.478  0.00  0.00    +0.052 A 
ATOM     17  C   UNL     1       0.080   5.300  -8.923  0.00  0.00    +0.015 A 
ATOM     18  C   UNL     1      -0.085   4.942 -10.258  0.00  0.00    +0.001 A 
ATOM     19  C   UNL     1       0.843   5.362 -11.200  0.00  0.00    -0.000 A 
ATOM     20  C   UNL     1       1.775   6.312 -10.807  0.00  0.00    -0.003 A 
ENDBRANCH   1  16
BRANCH   8  21
ATOM     21  S   UNL     1       1.269   5.234  -1.094  0.00  0.00    +0.094 S 
ATOM     22  O   UNL     1       1.824   3.909  -0.619  0.00  0.00    -0.150 OA
ATOM     23  O   UNL     1       1.317   6.211   0.039  0.00  0.00    -0.150 OA
ATOM     24  N   UNL     1      -0.406   5.007  -1.497  0.00  0.00    +0.039 NA
ENDBRANCH   8  21
TORSDOF 2
ENDMDL
MODEL 2
REMARK VINA RESULT:      -8.0      2.723      3.293
REMARK  Name = 
REMARK  2 active torsions:
REMARK  status: ('A' for Active; 'I' for Inactive)
REMARK    1  A    between atoms: C_7  and  N_8
REMARK    2  A    between atoms: C_13  and  S_14
REMARK                            x       y       z     vdW  Elec       q    Type
REMARK                         _______ _______ _______ _____ _____    ______ ____
ROOT
ATOM      1  N   UNL     1       2.583   5.884  -8.094  0.00  0.00    -0.239 N 
ATOM      2  C   UNL     1       1.624   4.600  -8.129  0.00  0.00    +0.173 C 
ATOM      3  C   UNL     1       2.842   3.629  -8.744  0.00  0.00    +0.046 C 
ATOM      4  N   UNL     1       2.021   4.221  -6.621  0.00  0.00    -0.219 NA
ATOM      5  C   UNL     1       1.629   5.215  -5.676  0.00  0.00    +0.072 A 
ATOM      6  C   UNL     1       1.389   6.535  -6.043  0.00  0.00    +0.070 A 
ATOM      7  C   UNL     1       0.428   7.314  -5.404  0.00  0.00    +0.027 A 
ATOM      8  C   UNL     1      -0.278   6.725  -4.359  0.00  0.00    +0.136 A 
ATOM      9  C   UNL     1       0.360   5.684  -3.690  0.00  0.00    +0.078 A 
ATOM     10 CL   UNL     1      -0.237   5.287  -2.104  0.00  0.00    -0.081 Cl
ATOM     11  C   UNL     1       1.312   4.916  -4.355  0.00  0.00    +0.029 A 
ATOM     12  C   UNL     1       1.985   6.925  -7.324  0.00  0.00    +0.255 C 
ATOM     13  O   UNL     1       2.033   8.134  -7.615  0.00  0.00    -0.269 OA
ENDROOT
BRANCH   1  16
ATOM     14  C   UNL     1       5.310   6.019  -8.355  0.00  0.00    +0.032 C 
ATOM     15  C   UNL     1       4.555   5.835  -9.419  0.00  0.00    -0.008 A 
ATOM     16  C   UNL     1       3.214   6.196  -9.310  0.00  0.00    +0.052 A 
ATOM     17  C   UNL     1       2.535   6.414 -10.504  0.00  0.00    +0.015 A 
ATOM     18  C   UNL     1       3.044   5.975 -11.723  0.00  0.00    +0.001 A 
ATOM     19  C   UNL     1       4.326   5.447 -11.779  0.00  0.00    -0.000 A 
ATOM     20  C   UNL     1       5.131   5.587 -10.658  0.00  0.00    -0.003 A 
ENDBRANCH   1  16
BRANCH   8  21
ATOM     21  S   UNL     1      -1.990   7.033  -4.091  0.00  0.00    +0.094 S 
ATOM     22  O   UNL     1      -2.204   7.816  -2.815  0.00  0.00    -0.150 OA
ATOM     23  O   UNL     1      -2.569   7.807  -5.234  0.00  0.00    -0.150 OA
ATOM     24  N   UNL     1      -2.888   5.550  -3.976  0.00  0.00    +0.039 NA
ENDBRANCH   8  21
TORSDOF 2
ENDMDL
MODEL 3
REMARK VINA RESULT:      -7.8      2.636      3.665
REMARK  Name = 
REMARK  2 active torsions:
REMARK  status: ('A' for Active; 'I' for Inactive)
REMARK    1  A    between atoms: C_7  and  N_8
REMARK    2  A    between atoms: C_13  and  S_14
REMARK                            x       y       z     vdW  Elec       q    Type
REMARK                         _______ _______ _______ _____ _____    ______ ____
ROOT
ATOM      1  N   UNL     1       2.302   5.655  -7.289  0.00  0.00    -0.239 N 
ATOM      2  C   UNL     1       2.632   7.071  -6.613  0.00  0.00    +0.173 C 
ATOM      3  C   UNL     1       2.885   7.794  -8.102  0.00  0.00    +0.046 C 
ATOM      4  N   UNL     1       1.079   7.477  -6.629  0.00  0.00    -0.219 NA
ATOM      5  C   UNL     1       0.272   6.620  -5.822  0.00  0.00    +0.072 A 
ATOM      6  C   UNL     1       0.672   5.335  -5.473  0.00  0.00    +0.070 A 
ATOM      7  C   UNL     1       0.325   4.762  -4.253  0.00  0.00    +0.027 A 
ATOM      8  C   UNL     1      -0.464   5.521  -3.393  0.00  0.00    +0.136 A 
ATOM      9  C   UNL     1      -1.272   6.488  -3.986  0.00  0.00    +0.078 A 
ATOM     10 CL   UNL     1      -2.612   7.075  -3.045  0.00  0.00    -0.081 Cl
ATOM     11  C   UNL     1      -0.897   7.050  -5.204  0.00  0.00    +0.029 A 
ATOM     12  C   UNL     1       1.722   4.775  -6.329  0.00  0.00    +0.255 C 
ATOM     13  O   UNL     1       1.968   3.557  -6.249  0.00  0.00    -0.269 OA
ENDROOT
BRANCH   1  16
ATOM     14  C   UNL     1       1.707   4.775  -9.816  0.00  0.00    +0.032 C 
ATOM     15  C   UNL     1       2.936   5.147  -9.522  0.00  0.00    -0.008 A 
ATOM     16  C   UNL     1       3.281   5.170  -8.173  0.00  0.00    +0.052 A 
ATOM     17  C   UNL     1       4.640   5.134  -7.883  0.00  0.00    +0.015 A 
ATOM     18  C   UNL     1       5.600   5.403  -8.855  0.00  0.00    +0.001 A 
ATOM     19  C   UNL     1       5.211   5.560 -10.177  0.00  0.00    -0.000 A 
ATOM     20  C   UNL     1       3.908   5.216 -10.511  0.00  0.00    -0.003 A 
ENDBRANCH   1  16
BRANCH   8  21
ATOM     21  S   UNL     1      -0.232   5.509  -1.649  0.00  0.00    +0.094 S 
ATOM     22  O   UNL     1      -1.544   5.280  -0.932  0.00  0.00    -0.150 OA
ATOM     23  O   UNL     1       0.728   4.430  -1.254  0.00  0.00    -0.150 OA
ATOM     24  N   UNL     1       0.438   7.012  -1.089  0.00  0.00    +0.039 NA
ENDBRANCH   8  21
TORSDOF 2
ENDMDL
MODEL 4
REMARK VINA RESULT:      -7.5      4.736      7.492
REMARK  Name = 
REMARK  2 active torsions:
REMARK  status: ('A' for Active; 'I' for Inactive)
REMARK    1  A    between atoms: C_7  and  N_8
REMARK    2  A    between atoms: C_13  and  S_14
REMARK                            x       y       z     vdW  Elec       q    Type
REMARK                         _______ _______ _______ _____ _____    ______ ____
ROOT
ATOM      1  N   UNL     1       2.149   6.004  -7.274  0.00  0.00    -0.239 N 
ATOM      2  C   UNL     1       3.222   4.819  -7.158  0.00  0.00    +0.173 C 
ATOM      3  C   UNL     1       2.123   3.814  -6.392  0.00  0.00    +0.046 C 
ATOM      4  N   UNL     1       2.803   4.253  -8.600  0.00  0.00    -0.219 NA
ATOM      5  C   UNL     1       3.065   5.176  -9.657  0.00  0.00    +0.072 A 
ATOM      6  C   UNL     1       3.198   6.542  -9.435  0.00  0.00    +0.070 A 
ATOM      7  C   UNL     1       4.058   7.331 -10.192  0.00  0.00    +0.027 A 
ATOM      8  C   UNL     1       4.774   6.702 -11.207  0.00  0.00    +0.136 A 
ATOM      9  C   UNL     1       4.208   5.546 -11.739  0.00  0.00    +0.078 A 
ATOM     10 CL   UNL     1       4.776   5.042 -13.304  0.00  0.00    -0.081 Cl
ATOM     11  C   UNL     1       3.356   4.771 -10.955  0.00  0.00    +0.029 A 
ATOM     12  C   UNL     1       2.619   7.008  -8.170  0.00  0.00    +0.255 C 
ATOM     13  O   UNL     1       2.473   8.232  -7.999  0.00  0.00    -0.269 OA
ENDROOT
BRANCH   1  16
ATOM     14  C   UNL     1      -0.569   5.985  -6.917  0.00  0.00    +0.032 C 
ATOM     15  C   UNL     1       0.232   5.948  -5.871  0.00  0.00    -0.008 A 
ATOM     16  C   UNL     1       1.541   6.383  -6.065  0.00  0.00    +0.052 A 
ATOM     17  C   UNL     1       2.244   6.752  -4.924  0.00  0.00    +0.015 A 
ATOM     18  C   UNL     1       1.807   6.394  -3.651  0.00  0.00    +0.001 A 
ATOM     19  C   UNL     1       0.568   5.791  -3.497  0.00  0.00    -0.000 A 
ATOM     20  C   UNL     1      -0.283   5.776  -4.593  0.00  0.00    -0.003 A 
ENDBRANCH   1  16
BRANCH   8  21
ATOM     21  S   UNL     1       6.439   7.128 -11.585  0.00  0.00    +0.094 S 
ATOM     22  O   UNL     1       6.565   7.585 -13.022  0.00  0.00    -0.150 OA
ATOM     23  O   UNL     1       6.918   8.225 -10.686  0.00  0.00    -0.150 OA
ATOM     24  N   UNL     1       7.506   5.777 -11.350  0.00  0.00    +0.039 NA
ENDBRANCH   8  21
TORSDOF 2
ENDMDL
MODEL 5
REMARK VINA RESULT:      -7.5      5.381      8.269
REMARK  Name = 
REMARK  2 active torsions:
REMARK  status: ('A' for Active; 'I' for Inactive)
REMARK    1  A    between atoms: C_7  and  N_8
REMARK    2  A    between atoms: C_13  and  S_14
REMARK                            x       y       z     vdW  Elec       q    Type
REMARK                         _______ _______ _______ _____ _____    ______ ____
ROOT
ATOM      1  N   UNL     1       1.378   5.637  -8.435  0.00  0.00    -0.239 N 
ATOM      2  C   UNL     1       1.853   7.155  -8.639  0.00  0.00    +0.173 C 
ATOM      3  C   UNL     1       2.559   7.203  -7.122  0.00  0.00    +0.046 C 
ATOM      4  N   UNL     1       3.226   6.669  -9.312  0.00  0.00    -0.219 NA
ATOM      5  C   UNL     1       3.026   5.952 -10.530  0.00  0.00    +0.072 A 
ATOM      6  C   UNL     1       1.819   5.333 -10.837  0.00  0.00    +0.070 A 
ATOM      7  C   UNL     1       1.353   5.237 -12.145  0.00  0.00    +0.027 A 
ATOM      8  C   UNL     1       2.156   5.771 -13.149  0.00  0.00    +0.136 A 
ATOM      9  C   UNL     1       3.520   5.842 -12.879  0.00  0.00    +0.078 A 
ATOM     10 CL   UNL     1       4.583   6.001 -14.247  0.00  0.00    -0.081 Cl
ATOM     11  C   UNL     1       3.959   5.945 -11.561  0.00  0.00    +0.029 A 
ATOM     12  C   UNL     1       0.956   5.082  -9.679  0.00  0.00    +0.255 C 
ATOM     13  O   UNL     1      -0.020   4.323  -9.818  0.00  0.00    -0.269 OA
ENDROOT
BRANCH   1  16
ATOM     14  C   UNL     1       2.062   3.725  -6.594  0.00  0.00    +0.032 C 
ATOM     15  C   UNL     1       1.270   4.719  -6.247  0.00  0.00    -0.008 A 
ATOM     16  C   UNL     1       0.621   5.396  -7.276  0.00  0.00    +0.052 A 
ATOM     17  C   UNL     1      -0.508   6.125  -6.919  0.00  0.00    +0.015 A 
ATOM     18  C   UNL     1      -0.780   6.444  -5.592  0.00  0.00    +0.001 A 
ATOM     19  C   UNL     1      -0.000   5.898  -4.582  0.00  0.00    -0.000 A 
ATOM     20  C   UNL     1       0.876   4.878  -4.924  0.00  0.00    -0.003 A 
ENDBRANCH   1  16
BRANCH   8  21
ATOM     21  S   UNL     1       1.483   6.610 -14.542  0.00  0.00    +0.094 S 
ATOM     22  O   UNL     1       2.573   6.994 -15.518  0.00  0.00    -0.150 OA
ATOM     23  O   UNL     1       0.488   5.742 -15.248  0.00  0.00    -0.150 OA
ATOM     24  N   UNL     1       0.647   8.056 -14.065  0.00  0.00    +0.039 NA
ENDBRANCH   8  21
TORSDOF 2
ENDMDL
MODEL 6
REMARK VINA RESULT:      -7.4      5.009      8.115
REMARK  Name = 
REMARK  2 active torsions:
REMARK  status: ('A' for Active; 'I' for Inactive)
REMARK    1  A    between atoms: C_7  and  N_8
REMARK    2  A    between atoms: C_13  and  S_14
REMARK                            x       y       z     vdW  Elec       q    Type
REMARK                         _______ _______ _______ _____ _____    ______ ____
ROOT
ATOM      1  N   UNL     1       2.264   5.874  -7.707  0.00  0.00    -0.239 N 
ATOM      2  C   UNL     1       2.789   4.398  -8.043  0.00  0.00    +0.173 C 
ATOM      3  C   UNL     1       2.176   3.786  -6.610  0.00  0.00    +0.046 C 
ATOM      4  N   UNL     1       1.429   4.057  -8.824  0.00  0.00    -0.219 NA
ATOM      5  C   UNL     1       1.226   4.879  -9.973  0.00  0.00    +0.072 A 
ATOM      6  C   UNL     1       1.846   6.115 -10.120  0.00  0.00    +0.070 A 
ATOM      7  C   UNL     1       2.228   6.603 -11.366  0.00  0.00    +0.027 A 
ATOM      8  C   UNL     1       1.947   5.810 -12.475  0.00  0.00    +0.136 A 
ATOM      9  C   UNL     1       0.878   4.927 -12.350  0.00  0.00    +0.078 A 
ATOM     10 CL   UNL     1       0.182   4.321 -13.825  0.00  0.00    -0.081 Cl
ATOM     11  C   UNL     1       0.521   4.448 -11.091  0.00  0.00    +0.029 A 
ATOM     12  C   UNL     1       2.336   6.699  -8.868  0.00  0.00    +0.255 C 
ATOM     13  O   UNL     1       2.679   7.895  -8.864  0.00  0.00    -0.269 OA
ENDROOT
BRANCH   1  16
ATOM     14  C   UNL     1       0.511   6.987  -5.915  0.00  0.00    +0.032 C 
ATOM     15  C   UNL     1       1.679   6.538  -5.501  0.00  0.00    -0.008 A 
ATOM     16  C   UNL     1       2.674   6.389  -6.464  0.00  0.00    +0.052 A 
ATOM     17  C   UNL     1       3.982   6.341  -5.998  0.00  0.00    +0.015 A 
ATOM     18  C   UNL     1       4.270   6.113  -4.655  0.00  0.00    +0.001 A 
ATOM     19  C   UNL     1       3.237   6.084  -3.729  0.00  0.00    -0.000 A 
ATOM     20  C   UNL     1       1.984   6.510  -4.147  0.00  0.00    -0.003 A 
ENDBRANCH   1  16
BRANCH   8  21
ATOM     21  S   UNL     1       3.052   5.675 -13.838  0.00  0.00    +0.094 S 
ATOM     22  O   UNL     1       4.452   6.089 -13.440  0.00  0.00    -0.150 OA
ATOM     23  O   UNL     1       3.091   4.268 -14.345  0.00  0.00    -0.150 OA
ATOM     24  N   UNL     1       2.546   6.678 -15.164  0.00  0.00    +0.039 NA
ENDBRANCH   8  21
TORSDOF 2
ENDMDL
MODEL 7
REMARK VINA RESULT:      -7.3      1.578      2.048
REMARK  Name = 
REMARK  2 active torsions:
REMARK  status: ('A' for Active; 'I' for Inactive)
REMARK    1  A    between atoms: C_7  and  N_8
REMARK    2  A    between atoms: C_13  and  S_14
REMARK                            x       y       z     vdW  Elec       q    Type
REMARK                         _______ _______ _______ _____ _____    ______ ____
ROOT
ATOM      1  N   UNL     1       2.705   6.203  -7.232  0.00  0.00    -0.239 N 
ATOM      2  C   UNL     1       3.926   5.303  -6.715  0.00  0.00    +0.173 C 
ATOM      3  C   UNL     1       4.882   5.742  -8.019  0.00  0.00    +0.046 C 
ATOM      4  N   UNL     1       4.492   6.519  -5.833  0.00  0.00    -0.219 NA
ATOM      5  C   UNL     1       3.591   6.925  -4.803  0.00  0.00    +0.072 A 
ATOM      6  C   UNL     1       2.228   6.654  -4.859  0.00  0.00    +0.070 A 
ATOM      7  C   UNL     1       1.479   6.406  -3.713  0.00  0.00    +0.027 A 
ATOM      8  C   UNL     1       2.145   6.460  -2.492  0.00  0.00    +0.136 A 
ATOM      9  C   UNL     1       3.286   7.257  -2.443  0.00  0.00    +0.078 A 
ATOM     10 CL   UNL     1       3.828   7.757  -0.867  0.00  0.00    -0.081 Cl
ATOM     11  C   UNL     1       4.021   7.483  -3.604  0.00  0.00    +0.029 A 
ATOM     12  C   UNL     1       1.728   6.345  -6.202  0.00  0.00    +0.255 C 
ATOM     13  O   UNL     1       0.498   6.331  -6.390  0.00  0.00    -0.269 OA
ENDROOT
BRANCH   1  16
ATOM     14  C   UNL     1       2.395   3.668  -8.229  0.00  0.00    +0.032 C 
ATOM     15  C   UNL     1       1.782   4.682  -8.806  0.00  0.00    -0.008 A 
ATOM     16  C   UNL     1       2.290   5.953  -8.551  0.00  0.00    +0.052 A 
ATOM     17  C   UNL     1       1.947   6.948  -9.459  0.00  0.00    +0.015 A 
ATOM     18  C   UNL     1       0.901   6.782 -10.363  0.00  0.00    +0.001 A 
ATOM     19  C   UNL     1       0.282   5.545 -10.473  0.00  0.00    -0.000 A 
ATOM     20  C   UNL     1       0.881   4.465  -9.841  0.00  0.00    -0.003 A 
ENDBRANCH   1  16
BRANCH   8  21
ATOM     21  S   UNL     1       1.784   5.349  -1.176  0.00  0.00    +0.094 S 
ATOM     22  O   UNL     1       1.368   6.103   0.068  0.00  0.00    -0.150 OA
ATOM     23  O   UNL     1       0.682   4.414  -1.565  0.00  0.00    -0.150 OA
ATOM     24  N   UNL     1       3.164   4.369  -0.780  0.00  0.00    +0.039 NA
ENDBRANCH   8  21
TORSDOF 2
ENDMDL
MODEL 8
REMARK VINA RESULT:      -7.3      4.062      5.453
REMARK  Name = 
REMARK  2 active torsions:
REMARK  status: ('A' for Active; 'I' for Inactive)
REMARK    1  A    between atoms: C_7  and  N_8
REMARK    2  A    between atoms: C_13  and  S_14
REMARK                            x       y       z     vdW  Elec       q    Type
REMARK                         _______ _______ _______ _____ _____    ______ ____
ROOT
ATOM      1  N   UNL     1       4.939   5.671 -10.749  0.00  0.00    -0.239 N 
ATOM      2  C   UNL     1       3.648   6.616 -10.856  0.00  0.00    +0.173 C 
ATOM      3  C   UNL     1       3.403   6.204 -12.460  0.00  0.00    +0.046 C 
ATOM      4  N   UNL     1       2.694   5.425 -10.357  0.00  0.00    -0.219 NA
ATOM      5  C   UNL     1       2.992   4.993  -9.030  0.00  0.00    +0.072 A 
ATOM      6  C   UNL     1       4.230   5.215  -8.437  0.00  0.00    +0.070 A 
ATOM      7  C   UNL     1       4.361   5.442  -7.070  0.00  0.00    +0.027 A 
ATOM      8  C   UNL     1       3.198   5.418  -6.305  0.00  0.00    +0.136 A 
ATOM      9  C   UNL     1       2.142   4.661  -6.807  0.00  0.00    +0.078 A 
ATOM     10 CL   UNL     1       0.907   4.188  -5.677  0.00  0.00    -0.081 Cl
ATOM     11  C   UNL     1       2.031   4.456  -8.180  0.00  0.00    +0.029 A 
ATOM     12  C   UNL     1       5.312   5.500  -9.384  0.00  0.00    +0.255 C 
ATOM     13  O   UNL     1       6.486   5.469  -8.971  0.00  0.00    -0.269 OA
ENDROOT
BRANCH   1  16
ATOM     14  C   UNL     1       6.151   8.108 -11.076  0.00  0.00    +0.032 C 
ATOM     15  C   UNL     1       6.741   7.016 -11.516  0.00  0.00    -0.008 A 
ATOM     16  C   UNL     1       5.933   5.900 -11.716  0.00  0.00    +0.052 A 
ATOM     17  C   UNL     1       6.436   4.917 -12.561  0.00  0.00    +0.015 A 
ATOM     18  C   UNL     1       7.783   4.876 -12.911  0.00  0.00    +0.001 A 
ATOM     19  C   UNL     1       8.618   5.920 -12.541  0.00  0.00    -0.000 A 
ATOM     20  C   UNL     1       8.029   7.069 -12.034  0.00  0.00    -0.003 A 
ENDBRANCH   1  16
BRANCH   8  21
ATOM     21  S   UNL     1       2.935   6.521  -4.960  0.00  0.00    +0.094 S 
ATOM     22  O   UNL     1       3.912   7.676  -5.011  0.00  0.00    -0.150 OA
ATOM     23  O   UNL     1       1.542   7.067  -4.992  0.00  0.00    -0.150 OA
ATOM     24  N   UNL     1       3.129   5.714  -3.434  0.00  0.00    +0.039 NA
ENDBRANCH   8  21
TORSDOF 2
ENDMDL
MODEL 9
REMARK VINA RESULT:      -7.2      4.052      7.275
REMARK  Name = 
REMARK  2 active torsions:
REMARK  status: ('A' for Active; 'I' for Inactive)
REMARK    1  A    between atoms: C_7  and  N_8
REMARK    2  A    between atoms: C_13  and  S_14
REMARK                            x       y       z     vdW  Elec       q    Type
REMARK                         _______ _______ _______ _____ _____    ______ ____
ROOT
ATOM      1  N   UNL     1       3.025   5.411  -5.577  0.00  0.00    -0.239 N 
ATOM      2  C   UNL     1       2.677   6.931  -5.948  0.00  0.00    +0.173 C 
ATOM      3  C   UNL     1       3.715   7.521  -4.775  0.00  0.00    +0.046 C 
ATOM      4  N   UNL     1       3.838   6.961  -7.056  0.00  0.00    -0.219 NA
ATOM      5  C   UNL     1       3.616   6.036  -8.120  0.00  0.00    +0.072 A 
ATOM      6  C   UNL     1       2.789   4.927  -7.979  0.00  0.00    +0.070 A 
ATOM      7  C   UNL     1       2.038   4.430  -9.040  0.00  0.00    +0.027 A 
ATOM      8  C   UNL     1       2.160   5.077 -10.266  0.00  0.00    +0.136 A 
ATOM      9  C   UNL     1       3.354   5.756 -10.492  0.00  0.00    +0.078 A 
ATOM     10 CL   UNL     1       3.751   6.118 -12.146  0.00  0.00    -0.081 Cl
ATOM     11  C   UNL     1       4.083   6.250  -9.412  0.00  0.00    +0.029 A 
ATOM     12  C   UNL     1       2.537   4.533  -6.589  0.00  0.00    +0.255 C 
ATOM     13  O   UNL     1       2.018   3.423  -6.371  0.00  0.00    -0.269 OA
ENDROOT
BRANCH   1  16
ATOM     14  C   UNL     1       5.030   4.299  -4.074  0.00  0.00    +0.032 C 
ATOM     15  C   UNL     1       4.025   4.910  -3.481  0.00  0.00    -0.008 A 
ATOM     16  C   UNL     1       2.858   5.069  -4.224  0.00  0.00    +0.052 A 
ATOM     17  C   UNL     1       1.693   5.304  -3.502  0.00  0.00    +0.015 A 
ATOM     18  C   UNL     1       1.730   5.695  -2.166  0.00  0.00    +0.001 A 
ATOM     19  C   UNL     1       2.940   5.704  -1.489  0.00  0.00    -0.000 A 
ATOM     20  C   UNL     1       4.030   5.105  -2.106  0.00  0.00    -0.003 A 
ENDBRANCH   1  16
BRANCH   8  21
ATOM     21  S   UNL     1       0.788   5.315 -11.343  0.00  0.00    +0.094 S 
ATOM     22  O   UNL     1       1.114   4.845 -12.743  0.00  0.00    -0.150 OA
ATOM     23  O   UNL     1      -0.406   4.560 -10.847  0.00  0.00    -0.150 OA
ATOM     24  N   UNL     1       0.332   6.989 -11.424  0.00  0.00    +0.039 NA
ENDBRANCH   8  21
TORSDOF 2
ENDMDL
