MODEL 1
REMARK VINA RESULT:      -6.2      0.000      0.000
REMARK  Name = 
REMARK  9 active torsions:
REMARK  status: ('A' for Active; 'I' for Inactive)
REMARK    1  A    between atoms: C_2  and  C_3
REMARK    2  A    between atoms: C_3  and  O_5
REMARK    3  A    between atoms: O_5  and  C_6
REMARK    4  A    between atoms: C_6  and  C_7
REMARK    5  A    between atoms: C_6  and  C_14
REMARK    6  A    between atoms: C_6  and  C_20
REMARK    7  A    between atoms: C_7  and  C_8
REMARK    8  A    between atoms: C_20  and  C_22
REMARK    9  A    between atoms: C_22  and  N_23
REMARK                            x       y       z     vdW  Elec       q    Type
REMARK                         _______ _______ _______ _____ _____    ______ ____
ROOT
ATOM      1  C   UNL     1       2.310   5.927  -4.962  0.00  0.00    +0.160 C 
ENDROOT
BRANCH   1   2
ATOM      2  C   UNL     1       2.914   6.439  -6.185  0.00  0.00    +0.014 A 
ATOM      3  C   UNL     1       4.125   5.972  -6.689  0.00  0.00    -0.001 A 
ATOM      4  C   UNL     1       4.344   5.909  -8.057  0.00  0.00    -0.000 A 
ATOM      5  C   UNL     1       3.451   6.559  -8.897  0.00  0.00    -0.000 A 
ATOM      6  C   UNL     1       2.548   7.440  -8.316  0.00  0.00    -0.000 A 
ATOM      7  C   UNL     1       2.440   7.511  -6.931  0.00  0.00    -0.001 A 
ENDBRANCH   1   2
BRANCH   1   8
ATOM      8  C   UNL     1       3.594   5.726  -3.953  0.00  0.00    +0.057 C 
ATOM      9  C   UNL     1       2.698   4.994  -2.781  0.00  0.00    +0.005 C 
BRANCH   8  10
ATOM     10  C   UNL     1       3.390   7.221  -3.297  0.00  0.00    +0.076 C 
BRANCH  10  11
ATOM     11  N   UNL     1       4.643   7.641  -2.804  0.00  0.00    -0.270 NA
ATOM     12  C   UNL     1       5.767   7.462  -3.650  0.00  0.00    +0.090 C 
ATOM     13  C   UNL     1       4.867   7.555  -1.407  0.00  0.00    +0.090 C 
ENDBRANCH  10  11
ENDBRANCH   8  10
ENDBRANCH   1   8
BRANCH   1  14
ATOM     14  O   UNL     1       1.719   4.661  -5.065  0.00  0.00    -0.451 OA
BRANCH  14  15
ATOM     15  C   UNL     1       1.277   4.247  -6.316  0.00  0.00    +0.317 C 
ATOM     16  O   UNL     1       1.965   3.257  -6.716  0.00  0.00    -0.250 OA
BRANCH  15  18
ATOM     17  C   UNL     1      -0.327   5.311  -7.745  0.00  0.00    +0.012 C 
ATOM     18  C   UNL     1      -0.150   4.421  -6.733  0.00  0.00    +0.110 C 
ENDBRANCH  15  18
ENDBRANCH  14  15
ENDBRANCH   1  14
BRANCH   1  19
ATOM     19  C   UNL     1       1.496   6.888  -4.173  0.00  0.00    +0.071 C 
BRANCH  19  20
ATOM     20  C   UNL     1       0.036   6.688  -4.214  0.00  0.00    -0.018 A 
ATOM     21  C   UNL     1      -0.733   7.599  -4.931  0.00  0.00    -0.004 A 
ATOM     22  C   UNL     1      -1.943   8.083  -4.450  0.00  0.00    -0.000 A 
ATOM     23  C   UNL     1      -2.561   7.446  -3.402  0.00  0.00    -0.000 A 
ATOM     24  C   UNL     1      -1.833   6.555  -2.661  0.00  0.00    -0.000 A 
ATOM     25  C   UNL     1      -0.542   6.273  -3.018  0.00  0.00    -0.004 A 
ENDBRANCH  19  20
ENDBRANCH   1  19
TORSDOF 9
ENDMDL
MODEL 2
REMARK VINA RESULT:      -5.9      2.127      5.580
REMARK  Name = 
REMARK  9 active torsions:
REMARK  status: ('A' for Active; 'I' for Inactive)
REMARK    1  A    between atoms: C_2  and  C_3
REMARK    2  A    between atoms: C_3  and  O_5
REMARK    3  A    between atoms: O_5  and  C_6
REMARK    4  A    between atoms: C_6  and  C_7
REMARK    5  A    between atoms: C_6  and  C_14
REMARK    6  A    between atoms: C_6  and  C_20
REMARK    7  A    between atoms: C_7  and  C_8
REMARK    8  A    between atoms: C_20  and  C_22
REMARK    9  A    between atoms: C_22  and  N_23
REMARK                            x       y       z     vdW  Elec       q    Type
REMARK                         _______ _______ _______ _____ _____    ______ ____
ROOT
ATOM      1  C   UNL     1       0.829   5.645  -5.362  0.00  0.00    +0.160 C 
ENDROOT
BRANCH   1   2
ATOM      2  C   UNL     1      -0.368   6.468  -5.478  0.00  0.00    +0.014 A 
ATOM      3  C   UNL     1      -1.505   6.063  -6.174  0.00  0.00    -0.001 A 
ATOM      4  C   UNL     1      -2.767   6.443  -5.743  0.00  0.00    -0.000 A 
ATOM      5  C   UNL     1      -2.864   7.436  -4.779  0.00  0.00    -0.000 A 
ATOM      6  C   UNL     1      -1.717   8.166  -4.492  0.00  0.00    -0.000 A 
ATOM      7  C   UNL     1      -0.494   7.776  -5.026  0.00  0.00    -0.001 A 
ENDBRANCH   1   2
BRANCH   1   8
ATOM      8  C   UNL     1       0.750   4.662  -6.679  0.00  0.00    +0.057 C 
ATOM      9  C   UNL     1       2.024   3.735  -6.199  0.00  0.00    +0.005 C 
BRANCH   8  10
ATOM     10  C   UNL     1       1.705   5.670  -7.563  0.00  0.00    +0.076 C 
BRANCH  10  11
ATOM     11  N   UNL     1       1.496   5.364  -8.924  0.00  0.00    -0.270 NA
ATOM     12  C   UNL     1       2.605   5.500  -9.798  0.00  0.00    +0.090 C 
ATOM     13  C   UNL     1       0.211   5.615  -9.469  0.00  0.00    +0.090 C 
ENDBRANCH  10  11
ENDBRANCH   8  10
ENDBRANCH   1   8
BRANCH   1  14
ATOM     14  O   UNL     1       0.862   4.782  -4.259  0.00  0.00    -0.451 OA
BRANCH  14  15
ATOM     15  C   UNL     1       0.237   5.195  -3.088  0.00  0.00    +0.317 C 
ATOM     16  O   UNL     1      -0.978   4.826  -3.089  0.00  0.00    -0.250 OA
BRANCH  15  18
ATOM     17  C   UNL     1       0.459   6.239  -0.941  0.00  0.00    +0.012 C 
ATOM     18  C   UNL     1       1.002   5.346  -1.810  0.00  0.00    +0.110 C 
ENDBRANCH  15  18
ENDBRANCH  14  15
ENDBRANCH   1  14
BRANCH   1  19
ATOM     19  C   UNL     1       2.127   6.325  -5.611  0.00  0.00    +0.071 C 
BRANCH  19  20
ATOM     20  C   UNL     1       3.070   6.355  -4.479  0.00  0.00    -0.018 A 
ATOM     21  C   UNL     1       3.010   7.432  -3.601  0.00  0.00    -0.004 A 
ATOM     22  C   UNL     1       4.154   8.053  -3.113  0.00  0.00    -0.000 A 
ATOM     23  C   UNL     1       5.371   7.428  -3.238  0.00  0.00    -0.000 A 
ATOM     24  C   UNL     1       5.475   6.374  -4.106  0.00  0.00    -0.000 A 
ATOM     25  C   UNL     1       4.364   5.930  -4.769  0.00  0.00    -0.004 A 
ENDBRANCH  19  20
ENDBRANCH   1  19
TORSDOF 9
ENDMDL
MODEL 3
REMARK VINA RESULT:      -5.6      1.966      5.064
REMARK  Name = 
REMARK  9 active torsions:
REMARK  status: ('A' for Active; 'I' for Inactive)
REMARK    1  A    between atoms: C_2  and  C_3
REMARK    2  A    between atoms: C_3  and  O_5
REMARK    3  A    between atoms: O_5  and  C_6
REMARK    4  A    between atoms: C_6  and  C_7
REMARK    5  A    between atoms: C_6  and  C_14
REMARK    6  A    between atoms: C_6  and  C_20
REMARK    7  A    between atoms: C_7  and  C_8
REMARK    8  A    between atoms: C_20  and  C_22
REMARK    9  A    between atoms: C_22  and  N_23
REMARK                            x       y       z     vdW  Elec       q    Type
REMARK                         _______ _______ _______ _____ _____    ______ ____
ROOT
ATOM      1  C   UNL     1       1.751   6.259  -5.729  0.00  0.00    +0.160 C 
ENDROOT
BRANCH   1   2
ATOM      2  C   UNL     1       0.318   6.366  -5.968  0.00  0.00    +0.014 A 
ATOM      3  C   UNL     1      -0.362   5.567  -6.883  0.00  0.00    -0.001 A 
ATOM      4  C   UNL     1      -1.669   5.173  -6.641  0.00  0.00    -0.000 A 
ATOM      5  C   UNL     1      -2.366   5.797  -5.616  0.00  0.00    -0.000 A 
ATOM      6  C   UNL     1      -1.810   6.947  -5.068  0.00  0.00    -0.000 A 
ATOM      7  C   UNL     1      -0.521   7.330  -5.421  0.00  0.00    -0.001 A 
ENDBRANCH   1   2
BRANCH   1   8
ATOM      8  C   UNL     1       1.951   6.966  -4.257  0.00  0.00    +0.057 C 
ATOM      9  C   UNL     1       3.566   7.208  -4.470  0.00  0.00    +0.005 C 
BRANCH   8  10
ATOM     10  C   UNL     1       2.178   5.512  -3.522  0.00  0.00    +0.076 C 
BRANCH  10  11
ATOM     11  N   UNL     1       1.539   5.569  -2.266  0.00  0.00    -0.270 NA
ATOM     12  C   UNL     1       2.269   5.100  -1.144  0.00  0.00    +0.090 C 
ATOM     13  C   UNL     1       0.130   5.409  -2.232  0.00  0.00    +0.090 C 
ENDBRANCH  10  11
ENDBRANCH   8  10
ENDBRANCH   1   8
BRANCH   1  14
ATOM     14  O   UNL     1       2.564   6.991  -6.604  0.00  0.00    -0.451 OA
BRANCH  14  15
ATOM     15  C   UNL     1       1.970   7.566  -7.721  0.00  0.00    +0.317 C 
ATOM     16  O   UNL     1       1.859   8.821  -7.558  0.00  0.00    -0.250 OA
BRANCH  15  18
ATOM     17  C   UNL     1       0.971   6.777  -9.753  0.00  0.00    +0.012 C 
ATOM     18  C   UNL     1       2.139   6.972  -9.085  0.00  0.00    +0.110 C 
ENDBRANCH  15  18
ENDBRANCH  14  15
ENDBRANCH   1  14
BRANCH   1  19
ATOM     19  C   UNL     1       2.276   4.897  -5.446  0.00  0.00    +0.071 C 
BRANCH  19  20
ATOM     20  C   UNL     1       3.164   4.319  -6.471  0.00  0.00    -0.018 A 
ATOM     21  C   UNL     1       4.385   4.941  -6.711  0.00  0.00    -0.004 A 
ATOM     22  C   UNL     1       4.880   5.125  -7.996  0.00  0.00    -0.000 A 
ATOM     23  C   UNL     1       4.329   4.426  -9.043  0.00  0.00    -0.000 A 
ATOM     24  C   UNL     1       3.120   3.814  -8.852  0.00  0.00    -0.000 A 
ATOM     25  C   UNL     1       2.527   3.855  -7.619  0.00  0.00    -0.004 A 
ENDBRANCH  19  20
ENDBRANCH   1  19
TORSDOF 9
ENDMDL
MODEL 4
REMARK VINA RESULT:      -5.5      2.239      4.891
REMARK  Name = 
REMARK  9 active torsions:
REMARK  status: ('A' for Active; 'I' for Inactive)
REMARK    1  A    between atoms: C_2  and  C_3
REMARK    2  A    between atoms: C_3  and  O_5
REMARK    3  A    between atoms: O_5  and  C_6
REMARK    4  A    between atoms: C_6  and  C_7
REMARK    5  A    between atoms: C_6  and  C_14
REMARK    6  A    between atoms: C_6  and  C_20
REMARK    7  A    between atoms: C_7  and  C_8
REMARK    8  A    between atoms: C_20  and  C_22
REMARK    9  A    between atoms: C_22  and  N_23
REMARK                            x       y       z     vdW  Elec       q    Type
REMARK                         _______ _______ _______ _____ _____    ______ ____
ROOT
ATOM      1  C   UNL     1       0.833   5.850  -5.531  0.00  0.00    +0.160 C 
ENDROOT
BRANCH   1   2
ATOM      2  C   UNL     1       0.972   5.029  -6.727  0.00  0.00    +0.014 A 
ATOM      3  C   UNL     1       0.194   5.210  -7.867  0.00  0.00    -0.001 A 
ATOM      4  C   UNL     1       0.723   4.975  -9.127  0.00  0.00    -0.000 A 
ATOM      5  C   UNL     1       1.938   4.310  -9.217  0.00  0.00    -0.000 A 
ATOM      6  C   UNL     1       2.422   3.697  -8.068  0.00  0.00    -0.000 A 
ATOM      7  C   UNL     1       1.790   3.912  -6.848  0.00  0.00    -0.001 A 
ENDBRANCH   1   2
BRANCH   1   8
ATOM      8  C   UNL     1      -0.792   6.072  -5.401  0.00  0.00    +0.057 C 
ATOM      9  C   UNL     1      -0.645   7.597  -4.796  0.00  0.00    +0.005 C 
BRANCH   8  10
ATOM     10  C   UNL     1      -0.827   5.389  -3.905  0.00  0.00    +0.076 C 
BRANCH  10  11
ATOM     11  N   UNL     1      -2.088   5.673  -3.340  0.00  0.00    -0.270 NA
ATOM     12  C   UNL     1      -2.157   5.785  -1.928  0.00  0.00    +0.090 C 
ATOM     13  C   UNL     1      -3.238   5.176  -4.005  0.00  0.00    +0.090 C 
ENDBRANCH  10  11
ENDBRANCH   8  10
ENDBRANCH   1   8
BRANCH   1  14
ATOM     14  O   UNL     1       1.377   7.138  -5.617  0.00  0.00    -0.451 OA
BRANCH  14  15
ATOM     15  C   UNL     1       2.429   7.344  -6.502  0.00  0.00    +0.317 C 
ATOM     16  O   UNL     1       2.086   8.172  -7.401  0.00  0.00    -0.250 OA
BRANCH  15  18
ATOM     17  C   UNL     1       4.501   6.139  -6.551  0.00  0.00    +0.012 C 
ATOM     18  C   UNL     1       3.854   7.227  -6.056  0.00  0.00    +0.110 C 
ENDBRANCH  15  18
ENDBRANCH  14  15
ENDBRANCH   1  14
BRANCH   1  19
ATOM     19  C   UNL     1       1.117   5.182  -4.233  0.00  0.00    +0.071 C 
BRANCH  19  20
ATOM     20  C   UNL     1       2.270   5.701  -3.476  0.00  0.00    -0.018 A 
ATOM     21  C   UNL     1       3.401   4.899  -3.367  0.00  0.00    -0.004 A 
ATOM     22  C   UNL     1       4.107   4.773  -2.177  0.00  0.00    -0.000 A 
ATOM     23  C   UNL     1       3.891   5.674  -1.162  0.00  0.00    -0.000 A 
ATOM     24  C   UNL     1       2.780   6.470  -1.224  0.00  0.00    -0.000 A 
ATOM     25  C   UNL     1       1.955   6.399  -2.313  0.00  0.00    -0.004 A 
ENDBRANCH  19  20
ENDBRANCH   1  19
TORSDOF 9
ENDMDL
MODEL 5
REMARK VINA RESULT:      -4.9      2.072      5.038
REMARK  Name = 
REMARK  9 active torsions:
REMARK  status: ('A' for Active; 'I' for Inactive)
REMARK    1  A    between atoms: C_2  and  C_3
REMARK    2  A    between atoms: C_3  and  O_5
REMARK    3  A    between atoms: O_5  and  C_6
REMARK    4  A    between atoms: C_6  and  C_7
REMARK    5  A    between atoms: C_6  and  C_14
REMARK    6  A    between atoms: C_6  and  C_20
REMARK    7  A    between atoms: C_7  and  C_8
REMARK    8  A    between atoms: C_20  and  C_22
REMARK    9  A    between atoms: C_22  and  N_23
REMARK                            x       y       z     vdW  Elec       q    Type
REMARK                         _______ _______ _______ _____ _____    ______ ____
ROOT
ATOM      1  C   UNL     1       2.425   6.174  -4.461  0.00  0.00    +0.160 C 
ENDROOT
BRANCH   1   2
ATOM      2  C   UNL     1       2.919   5.274  -3.428  0.00  0.00    +0.014 A 
ATOM      3  C   UNL     1       4.170   4.665  -3.485  0.00  0.00    -0.001 A 
ATOM      4  C   UNL     1       4.890   4.423  -2.324  0.00  0.00    -0.000 A 
ATOM      5  C   UNL     1       4.239   4.552  -1.106  0.00  0.00    -0.000 A 
ATOM      6  C   UNL     1       2.854   4.662  -1.126  0.00  0.00    -0.000 A 
ATOM      7  C   UNL     1       2.188   4.820  -2.337  0.00  0.00    -0.001 A 
ENDBRANCH   1   2
BRANCH   1   8
ATOM      8  C   UNL     1       3.189   5.655  -5.822  0.00  0.00    +0.057 C 
ATOM      9  C   UNL     1       2.927   7.062  -6.638  0.00  0.00    +0.005 C 
BRANCH   8  10
ATOM     10  C   UNL     1       1.815   4.961  -6.403  0.00  0.00    +0.076 C 
BRANCH  10  11
ATOM     11  N   UNL     1       1.940   4.883  -7.805  0.00  0.00    -0.270 NA
ATOM     12  C   UNL     1       0.834   5.311  -8.582  0.00  0.00    +0.090 C 
ATOM     13  C   UNL     1       2.740   3.841  -8.341  0.00  0.00    +0.090 C 
ENDBRANCH  10  11
ENDBRANCH   8  10
ENDBRANCH   1   8
BRANCH   1  14
ATOM     14  O   UNL     1       2.795   7.517  -4.318  0.00  0.00    -0.451 OA
BRANCH  14  15
ATOM     15  C   UNL     1       3.769   7.830  -3.377  0.00  0.00    +0.317 C 
ATOM     16  O   UNL     1       4.862   8.113  -3.958  0.00  0.00    -0.250 OA
BRANCH  15  18
ATOM     17  C   UNL     1       4.229   8.081  -1.037  0.00  0.00    +0.012 C 
ATOM     18  C   UNL     1       3.408   8.442  -2.059  0.00  0.00    +0.110 C 
ENDBRANCH  15  18
ENDBRANCH  14  15
ENDBRANCH   1  14
BRANCH   1  19
ATOM     19  C   UNL     1       1.005   6.000  -4.868  0.00  0.00    +0.071 C 
BRANCH  19  20
ATOM     20  C   UNL     1       0.021   6.837  -4.158  0.00  0.00    -0.018 A 
ATOM     21  C   UNL     1      -0.633   6.293  -3.057  0.00  0.00    -0.004 A 
ATOM     22  C   UNL     1      -1.992   6.480  -2.838  0.00  0.00    -0.000 A 
ATOM     23  C   UNL     1      -2.663   7.459  -3.531  0.00  0.00    -0.000 A 
ATOM     24  C   UNL     1      -2.060   8.007  -4.631  0.00  0.00    -0.000 A 
ATOM     25  C   UNL     1      -0.792   7.621  -4.972  0.00  0.00    -0.004 A 
ENDBRANCH  19  20
ENDBRANCH   1  19
TORSDOF 9
ENDMDL
MODEL 6
REMARK VINA RESULT:      -4.9      1.988      4.707
REMARK  Name = 
REMARK  9 active torsions:
REMARK  status: ('A' for Active; 'I' for Inactive)
REMARK    1  A    between atoms: C_2  and  C_3
REMARK    2  A    between atoms: C_3  and  O_5
REMARK    3  A    between atoms: O_5  and  C_6
REMARK    4  A    between atoms: C_6  and  C_7
REMARK    5  A    between atoms: C_6  and  C_14
REMARK    6  A    between atoms: C_6  and  C_20
REMARK    7  A    between atoms: C_7  and  C_8
REMARK    8  A    between atoms: C_20  and  C_22
REMARK    9  A    between atoms: C_22  and  N_23
REMARK                            x       y       z     vdW  Elec       q    Type
REMARK                         _______ _______ _______ _____ _____    ______ ____
ROOT
ATOM      1  C   UNL     1       1.387   6.235  -4.919  0.00  0.00    +0.160 C 
ENDROOT
BRANCH   1   2
ATOM      2  C   UNL     1       2.608   6.914  -4.505  0.00  0.00    +0.014 A 
ATOM      3  C   UNL     1       2.811   7.394  -3.214  0.00  0.00    -0.001 A 
ATOM      4  C   UNL     1       4.078   7.384  -2.648  0.00  0.00    -0.000 A 
ATOM      5  C   UNL     1       5.166   7.140  -3.474  0.00  0.00    -0.000 A 
ATOM      6  C   UNL     1       4.952   7.177  -4.847  0.00  0.00    -0.000 A 
ATOM      7  C   UNL     1       3.657   7.271  -5.345  0.00  0.00    -0.001 A 
ENDBRANCH   1   2
BRANCH   1   8
ATOM      8  C   UNL     1       0.342   6.535  -3.685  0.00  0.00    +0.057 C 
ATOM      9  C   UNL     1       0.730   5.155  -2.875  0.00  0.00    +0.005 C 
BRANCH   8  10
ATOM     10  C   UNL     1      -0.904   5.819  -4.486  0.00  0.00    +0.076 C 
BRANCH  10  11
ATOM     11  N   UNL     1      -2.102   6.256  -3.883  0.00  0.00    -0.270 NA
ATOM     12  C   UNL     1      -2.093   7.538  -3.276  0.00  0.00    +0.090 C 
ATOM     13  C   UNL     1      -2.950   5.276  -3.308  0.00  0.00    +0.090 C 
ENDBRANCH  10  11
ENDBRANCH   8  10
ENDBRANCH   1   8
BRANCH   1  14
ATOM     14  O   UNL     1       1.472   4.840  -5.001  0.00  0.00    -0.451 OA
BRANCH  14  15
ATOM     15  C   UNL     1       2.569   4.289  -5.653  0.00  0.00    +0.317 C 
ATOM     16  O   UNL     1       3.471   3.989  -4.812  0.00  0.00    -0.250 OA
BRANCH  15  18
ATOM     17  C   UNL     1       3.179   3.981  -7.951  0.00  0.00    +0.012 C 
ATOM     18  C   UNL     1       2.410   3.521  -6.929  0.00  0.00    +0.110 C 
ENDBRANCH  15  18
ENDBRANCH  14  15
ENDBRANCH   1  14
BRANCH   1  19
ATOM     19  C   UNL     1       0.644   6.842  -6.054  0.00  0.00    +0.071 C 
BRANCH  19  20
ATOM     20  C   UNL     1       0.901   6.259  -7.384  0.00  0.00    -0.018 A 
ATOM     21  C   UNL     1       1.680   6.982  -8.280  0.00  0.00    -0.004 A 
ATOM     22  C   UNL     1       1.357   7.081  -9.628  0.00  0.00    -0.000 A 
ATOM     23  C   UNL     1       0.436   6.216 -10.170  0.00  0.00    -0.000 A 
ATOM     24  C   UNL     1      -0.362   5.499  -9.320  0.00  0.00    -0.000 A 
ATOM     25  C   UNL     1      -0.181   5.607  -7.968  0.00  0.00    -0.004 A 
ENDBRANCH  19  20
ENDBRANCH   1  19
TORSDOF 9
ENDMDL
MODEL 7
REMARK VINA RESULT:      -4.9      2.034      3.328
REMARK  Name = 
REMARK  9 active torsions:
REMARK  status: ('A' for Active; 'I' for Inactive)
REMARK    1  A    between atoms: C_2  and  C_3
REMARK    2  A    between atoms: C_3  and  O_5
REMARK    3  A    between atoms: O_5  and  C_6
REMARK    4  A    between atoms: C_6  and  C_7
REMARK    5  A    between atoms: C_6  and  C_14
REMARK    6  A    between atoms: C_6  and  C_20
REMARK    7  A    between atoms: C_7  and  C_8
REMARK    8  A    between atoms: C_20  and  C_22
REMARK    9  A    between atoms: C_22  and  N_23
REMARK                            x       y       z     vdW  Elec       q    Type
REMARK                         _______ _______ _______ _____ _____    ______ ____
ROOT
ATOM      1  C   UNL     1       2.070   5.953  -2.749  0.00  0.00    +0.160 C 
ENDROOT
BRANCH   1   2
ATOM      2  C   UNL     1       3.194   6.806  -3.114  0.00  0.00    +0.014 A 
ATOM      3  C   UNL     1       4.258   7.068  -2.255  0.00  0.00    -0.001 A 
ATOM      4  C   UNL     1       5.540   7.245  -2.755  0.00  0.00    -0.000 A 
ATOM      5  C   UNL     1       5.696   7.419  -4.123  0.00  0.00    -0.000 A 
ATOM      6  C   UNL     1       4.552   7.662  -4.874  0.00  0.00    -0.000 A 
ATOM      7  C   UNL     1       3.297   7.546  -4.285  0.00  0.00    -0.001 A 
ENDBRANCH   1   2
BRANCH   1   8
ATOM      8  C   UNL     1       2.333   5.627  -1.159  0.00  0.00    +0.057 C 
ATOM      9  C   UNL     1       1.373   4.289  -1.161  0.00  0.00    +0.005 C 
BRANCH   8  10
ATOM     10  C   UNL     1       1.102   6.614  -0.691  0.00  0.00    +0.076 C 
BRANCH  10  11
ATOM     11  N   UNL     1       1.375   7.034   0.628  0.00  0.00    -0.270 NA
ATOM     12  C   UNL     1       0.265   7.268   1.479  0.00  0.00    +0.090 C 
ATOM     13  C   UNL     1       2.532   7.827   0.844  0.00  0.00    +0.090 C 
ENDBRANCH  10  11
ENDBRANCH   8  10
ENDBRANCH   1   8
BRANCH   1  14
ATOM     14  O   UNL     1       2.031   4.704  -3.382  0.00  0.00    -0.451 OA
BRANCH  14  15
ATOM     15  C   UNL     1       2.697   4.565  -4.593  0.00  0.00    +0.317 C 
ATOM     16  O   UNL     1       3.874   4.132  -4.397  0.00  0.00    -0.250 OA
BRANCH  15  18
ATOM     17  C   UNL     1       1.890   5.292  -6.731  0.00  0.00    +0.012 C 
ATOM     18  C   UNL     1       1.956   4.253  -5.857  0.00  0.00    +0.110 C 
ENDBRANCH  15  18
ENDBRANCH  14  15
ENDBRANCH   1  14
BRANCH   1  19
ATOM     19  C   UNL     1       0.738   6.610  -2.673  0.00  0.00    +0.071 C 
BRANCH  19  20
ATOM     20  C   UNL     1      -0.196   6.311  -3.773  0.00  0.00    -0.018 A 
ATOM     21  C   UNL     1      -0.471   7.317  -4.694  0.00  0.00    -0.004 A 
ATOM     22  C   UNL     1      -1.756   7.554  -5.167  0.00  0.00    -0.000 A 
ATOM     23  C   UNL     1      -2.735   6.608  -4.977  0.00  0.00    -0.000 A 
ATOM     24  C   UNL     1      -2.509   5.612  -4.066  0.00  0.00    -0.000 A 
ATOM     25  C   UNL     1      -1.303   5.542  -3.424  0.00  0.00    -0.004 A 
ENDBRANCH  19  20
ENDBRANCH   1  19
TORSDOF 9
ENDMDL
MODEL 8
REMARK VINA RESULT:      -4.8      1.553      2.278
REMARK  Name = 
REMARK  9 active torsions:
REMARK  status: ('A' for Active; 'I' for Inactive)
REMARK    1  A    between atoms: C_2  and  C_3
REMARK    2  A    between atoms: C_3  and  O_5
REMARK    3  A    between atoms: O_5  and  C_6
REMARK    4  A    between atoms: C_6  and  C_7
REMARK    5  A    between atoms: C_6  and  C_14
REMARK    6  A    between atoms: C_6  and  C_20
REMARK    7  A    between atoms: C_7  and  C_8
REMARK    8  A    between atoms: C_20  and  C_22
REMARK    9  A    between atoms: C_22  and  N_23
REMARK                            x       y       z     vdW  Elec       q    Type
REMARK                         _______ _______ _______ _____ _____    ______ ____
ROOT
ATOM      1  C   UNL     1       2.481   5.814  -7.043  0.00  0.00    +0.160 C 
ENDROOT
BRANCH   1   2
ATOM      2  C   UNL     1       3.476   6.268  -8.005  0.00  0.00    +0.014 A 
ATOM      3  C   UNL     1       4.802   5.843  -7.986  0.00  0.00    -0.001 A 
ATOM      4  C   UNL     1       5.511   5.689  -9.169  0.00  0.00    -0.000 A 
ATOM      5  C   UNL     1       4.970   6.213 -10.334  0.00  0.00    -0.000 A 
ATOM      6  C   UNL     1       3.888   7.077 -10.208  0.00  0.00    -0.000 A 
ATOM      7  C   UNL     1       3.276   7.247  -8.971  0.00  0.00    -0.001 A 
ENDBRANCH   1   2
BRANCH   1   8
ATOM      8  C   UNL     1       3.372   5.457  -5.706  0.00  0.00    +0.057 C 
ATOM      9  C   UNL     1       2.119   4.717  -4.935  0.00  0.00    +0.005 C 
BRANCH   8  10
ATOM     10  C   UNL     1       3.043   6.918  -5.024  0.00  0.00    +0.076 C 
BRANCH  10  11
ATOM     11  N   UNL     1       3.975   7.117  -3.983  0.00  0.00    -0.270 NA
ATOM     12  C   UNL     1       3.463   7.500  -2.717  0.00  0.00    +0.090 C 
ATOM     13  C   UNL     1       5.263   7.599  -4.331  0.00  0.00    +0.090 C 
ENDBRANCH  10  11
ENDBRANCH   8  10
ENDBRANCH   1   8
BRANCH   1  14
ATOM     14  O   UNL     1       1.820   4.625  -7.375  0.00  0.00    -0.451 OA
BRANCH  14  15
ATOM     15  C   UNL     1       1.972   4.131  -8.665  0.00  0.00    +0.317 C 
ATOM     16  O   UNL     1       2.815   3.181  -8.672  0.00  0.00    -0.250 OA
BRANCH  15  18
ATOM     17  C   UNL     1       0.544   5.434 -10.083  0.00  0.00    +0.012 C 
ATOM     18  C   UNL     1       0.849   4.181  -9.654  0.00  0.00    +0.110 C 
ENDBRANCH  15  18
ENDBRANCH  14  15
ENDBRANCH   1  14
BRANCH   1  19
ATOM     19  C   UNL     1       1.572   6.853  -6.490  0.00  0.00    +0.071 C 
BRANCH  19  20
ATOM     20  C   UNL     1       0.303   6.366  -5.919  0.00  0.00    -0.018 A 
ATOM     21  C   UNL     1      -0.569   5.671  -6.751  0.00  0.00    -0.004 A 
ATOM     22  C   UNL     1      -1.941   5.887  -6.727  0.00  0.00    -0.000 A 
ATOM     23  C   UNL     1      -2.504   6.563  -5.671  0.00  0.00    -0.000 A 
ATOM     24  C   UNL     1      -1.681   7.273  -4.840  0.00  0.00    -0.000 A 
ATOM     25  C   UNL     1      -0.327   7.238  -5.036  0.00  0.00    -0.004 A 
ENDBRANCH  19  20
ENDBRANCH   1  19
TORSDOF 9
ENDMDL
MODEL 9
REMARK VINA RESULT:      -4.6      2.748      6.777
REMARK  Name = 
REMARK  9 active torsions:
REMARK  status: ('A' for Active; 'I' for Inactive)
REMARK    1  A    between atoms: C_2  and  C_3
REMARK    2  A    between atoms: C_3  and  O_5
REMARK    3  A    between atoms: O_5  and  C_6
REMARK    4  A    between atoms: C_6  and  C_7
REMARK    5  A    between atoms: C_6  and  C_14
REMARK    6  A    between atoms: C_6  and  C_20
REMARK    7  A    between atoms: C_7  and  C_8
REMARK    8  A    between atoms: C_20  and  C_22
REMARK    9  A    between atoms: C_22  and  N_23
REMARK                            x       y       z     vdW  Elec       q    Type
REMARK                         _______ _______ _______ _____ _____    ______ ____
ROOT
ATOM      1  C   UNL     1       2.970   5.422  -7.952  0.00  0.00    +0.160 C 
ENDROOT
BRANCH   1   2
ATOM      2  C   UNL     1       3.567   5.969  -6.741  0.00  0.00    +0.014 A 
ATOM      3  C   UNL     1       3.174   7.182  -6.181  0.00  0.00    -0.001 A 
ATOM      4  C   UNL     1       3.190   7.362  -4.805  0.00  0.00    -0.000 A 
ATOM      5  C   UNL     1       3.846   6.420  -4.025  0.00  0.00    -0.000 A 
ATOM      6  C   UNL     1       4.661   5.502  -4.676  0.00  0.00    -0.000 A 
ATOM      7  C   UNL     1       4.657   5.432  -6.065  0.00  0.00    -0.001 A 
ENDBRANCH   1   2
BRANCH   1   8
ATOM      8  C   UNL     1       2.648   6.756  -8.859  0.00  0.00    +0.057 C 
ATOM      9  C   UNL     1       1.520   7.334  -7.807  0.00  0.00    +0.005 C 
BRANCH   8  10
ATOM     10  C   UNL     1       1.526   5.950  -9.754  0.00  0.00    +0.076 C 
BRANCH  10  11
ATOM     11  N   UNL     1       1.267   6.724 -10.904  0.00  0.00    -0.270 NA
ATOM     12  C   UNL     1      -0.065   7.167 -11.103  0.00  0.00    +0.090 C 
ATOM     13  C   UNL     1       2.041   6.465 -12.064  0.00  0.00    +0.090 C 
ENDBRANCH  10  11
ENDBRANCH   8  10
ENDBRANCH   1   8
BRANCH   1  14
ATOM     14  O   UNL     1       1.735   4.784  -7.780  0.00  0.00    -0.451 OA
BRANCH  14  15
ATOM     15  C   UNL     1       1.533   4.057  -6.613  0.00  0.00    +0.317 C 
ATOM     16  O   UNL     1       2.438   3.176  -6.486  0.00  0.00    -0.250 OA
BRANCH  15  18
ATOM     17  C   UNL     1      -0.336   5.233  -5.680  0.00  0.00    +0.012 C 
ATOM     18  C   UNL     1       0.874   4.673  -5.418  0.00  0.00    +0.110 C 
ENDBRANCH  15  18
ENDBRANCH  14  15
ENDBRANCH   1  14
BRANCH   1  19
ATOM     19  C   UNL     1       3.884   4.689  -8.867  0.00  0.00    +0.071 C 
BRANCH  19  20
ATOM     20  C   UNL     1       4.934   5.494  -9.517  0.00  0.00    -0.018 A 
ATOM     21  C   UNL     1       4.998   5.494 -10.907  0.00  0.00    -0.004 A 
ATOM     22  C   UNL     1       6.205   5.417 -11.591  0.00  0.00    -0.000 A 
ATOM     23  C   UNL     1       7.381   5.651 -10.920  0.00  0.00    -0.000 A 
ATOM     24  C   UNL     1       7.363   5.642  -9.552  0.00  0.00    -0.000 A 
ATOM     25  C   UNL     1       6.177   5.470  -8.891  0.00  0.00    -0.004 A 
ENDBRANCH  19  20
ENDBRANCH   1  19
TORSDOF 9
ENDMDL
