MODEL 1
REMARK VINA RESULT:      -8.9      0.000      0.000
REMARK  Name = 
REMARK  6 active torsions:
REMARK  status: ('A' for Active; 'I' for Inactive)
REMARK    1  A    between atoms: C_2  and  O_3
REMARK    2  A    between atoms: O_3  and  C_4
REMARK    3  A    between atoms: N_6  and  C_7
REMARK    4  A    between atoms: C_20  and  C_21
REMARK    5  A    between atoms: C_22  and  C_23
REMARK    6  A    between atoms: C_26  and  C_27
REMARK                            x       y       z     vdW  Elec       q    Type
REMARK                         _______ _______ _______ _____ _____    ______ ____
ROOT
ATOM      1  C   UNL     1       2.689   5.708  -0.859  0.00  0.00    +0.099 C 
ATOM      2  C   UNL     1       1.060   5.635  -0.715  0.00  0.00    +0.022 C 
ATOM      3  C   UNL     1       0.478   4.999  -2.071  0.00  0.00    +0.003 C 
ATOM      4  C   UNL     1      -1.005   5.580  -1.764  0.00  0.00    +0.011 C 
ATOM      5  C   UNL     1      -1.874   5.011  -3.012  0.00  0.00    +0.103 C 
ATOM      6  C   UNL     1      -1.446   6.118  -4.200  0.00  0.00    +0.055 C 
ATOM      7  C   UNL     1       0.151   5.668  -4.366  0.00  0.00    +0.026 C 
ATOM      8  C   UNL     1      -1.284   7.378  -3.109  0.00  0.00    +0.170 C 
ATOM      9  C   UNL     1      -1.646   8.479  -4.273  0.00  0.00    +0.047 C 
ATOM     10  O   UNL     1      -2.742   7.231  -2.696  0.00  0.00    -0.452 OA
ATOM     11  C   UNL     1      -3.117   5.954  -2.663  0.00  0.00    +0.316 C 
ATOM     12  O   UNL     1      -4.182   5.557  -3.236  0.00  0.00    -0.250 OA
ATOM     13  C   UNL     1       0.790   6.375  -2.986  0.00  0.00    +0.004 C 
ATOM     14  C   UNL     1       2.267   5.890  -3.371  0.00  0.00    +0.002 C 
ATOM     15  C   UNL     1       2.847   5.056  -2.355  0.00  0.00    +0.022 C 
ENDROOT
BRANCH   1  17
ATOM     16  C   UNL     1       3.413   8.166  -0.775  0.00  0.00    +0.421 C 
ATOM     17  N   UNL     1       2.600   7.200  -1.341  0.00  0.00    -0.170 NA
ATOM     18  O   UNL     1       4.462   7.850  -0.192  0.00  0.00    -0.225 OA
BRANCH  16  19
ATOM     19  O   UNL     1       3.388   9.428  -1.384  0.00  0.00    -0.434 OA
BRANCH  19  21
ATOM     20  C   UNL     1       2.904  10.945   0.102  0.00  0.00    +0.051 C 
ATOM     21  C   UNL     1       3.567  10.643  -0.691  0.00  0.00    +0.210 C 
ENDBRANCH  19  21
ENDBRANCH  16  19
ENDBRANCH   1  17
BRANCH   7  22
ATOM     22  C   UNL     1       0.492   6.970  -5.223  0.00  0.00    -0.025 C 
ATOM     23  C   UNL     1       1.483   6.689  -6.032  0.00  0.00    +0.015 C 
BRANCH  23  24
ATOM     24  C   UNL     1       1.147   5.723  -7.061  0.00  0.00    +0.081 A 
ATOM     25  N   UNL     1      -0.005   5.754  -7.773  0.00  0.00    -0.244 NA
ATOM     26  C   UNL     1       0.023   5.355  -9.069  0.00  0.00    +0.099 A 
ATOM     27  C   UNL     1       1.202   4.922  -9.667  0.00  0.00    +0.019 A 
ATOM     28  C   UNL     1       2.094   4.331  -8.780  0.00  0.00    +0.003 A 
ATOM     29  C   UNL     1       2.016   4.706  -7.442  0.00  0.00    +0.019 A 
BRANCH  27  30
ATOM     30  C   UNL     1       1.611   5.374 -10.999  0.00  0.00    +0.004 A 
ATOM     31  C   UNL     1       2.914   5.787 -11.242  0.00  0.00    +0.030 A 
ATOM     32  C   UNL     1       3.419   5.683 -12.532  0.00  0.00    +0.140 A 
ATOM     33  F   UNL     1       4.530   6.423 -12.780  0.00  0.00    -0.204 F 
ATOM     34  C   UNL     1       2.476   5.669 -13.540  0.00  0.00    +0.030 A 
ATOM     35  C   UNL     1       1.172   5.276 -13.301  0.00  0.00    +0.002 A 
ATOM     36  C   UNL     1       0.689   5.438 -12.008  0.00  0.00    +0.000 A 
ENDBRANCH  27  30
ENDBRANCH  23  24
ENDBRANCH   7  22
TORSDOF 6
ENDMDL
MODEL 2
REMARK VINA RESULT:      -8.5      1.827      2.370
REMARK  Name = 
REMARK  6 active torsions:
REMARK  status: ('A' for Active; 'I' for Inactive)
REMARK    1  A    between atoms: C_2  and  O_3
REMARK    2  A    between atoms: O_3  and  C_4
REMARK    3  A    between atoms: N_6  and  C_7
REMARK    4  A    between atoms: C_20  and  C_21
REMARK    5  A    between atoms: C_22  and  C_23
REMARK    6  A    between atoms: C_26  and  C_27
REMARK                            x       y       z     vdW  Elec       q    Type
REMARK                         _______ _______ _______ _____ _____    ______ ____
ROOT
ATOM      1  C   UNL     1       2.826   5.680  -0.988  0.00  0.00    +0.099 C 
ATOM      2  C   UNL     1       1.211   5.417  -0.998  0.00  0.00    +0.022 C 
ATOM      3  C   UNL     1       0.804   4.931  -2.474  0.00  0.00    +0.003 C 
ATOM      4  C   UNL     1      -0.754   5.302  -2.220  0.00  0.00    +0.011 C 
ATOM      5  C   UNL     1      -1.460   4.837  -3.606  0.00  0.00    +0.103 C 
ATOM      6  C   UNL     1      -1.080   6.146  -4.587  0.00  0.00    +0.055 C 
ATOM      7  C   UNL     1       0.566   5.894  -4.675  0.00  0.00    +0.026 C 
ATOM      8  C   UNL     1      -1.143   7.240  -3.321  0.00  0.00    +0.170 C 
ATOM      9  C   UNL     1      -1.546   8.458  -4.348  0.00  0.00    +0.047 C 
ATOM     10  O   UNL     1      -2.600   6.883  -3.061  0.00  0.00    -0.452 OA
ATOM     11  C   UNL     1      -2.826   5.583  -3.239  0.00  0.00    +0.316 C 
ATOM     12  O   UNL     1      -3.795   5.166  -3.952  0.00  0.00    -0.250 OA
ATOM     13  C   UNL     1       1.019   6.452  -3.159  0.00  0.00    +0.004 C 
ATOM     14  C   UNL     1       2.566   6.185  -3.478  0.00  0.00    +0.002 C 
ATOM     15  C   UNL     1       3.164   5.275  -2.541  0.00  0.00    +0.022 C 
ENDROOT
BRANCH   1  17
ATOM     16  C   UNL     1       3.423   8.154  -0.678  0.00  0.00    +0.421 C 
ATOM     17  N   UNL     1       2.600   7.209  -1.264  0.00  0.00    -0.170 NA
ATOM     18  O   UNL     1       4.551   7.842  -0.264  0.00  0.00    -0.225 OA
BRANCH  16  19
ATOM     19  O   UNL     1       3.257   9.475  -1.115  0.00  0.00    -0.434 OA
BRANCH  19  21
ATOM     20  C   UNL     1       3.601  11.549  -0.548  0.00  0.00    +0.051 C 
ATOM     21  C   UNL     1       3.207  10.591  -0.255  0.00  0.00    +0.210 C 
ENDBRANCH  19  21
ENDBRANCH  16  19
ENDBRANCH   1  17
BRANCH   7  22
ATOM     22  C   UNL     1       0.814   7.336  -5.309  0.00  0.00    -0.025 C 
ATOM     23  C   UNL     1       2.037   7.383  -5.775  0.00  0.00    +0.015 C 
BRANCH  23  24
ATOM     24  C   UNL     1       2.268   6.505  -6.908  0.00  0.00    +0.081 A 
ATOM     25  N   UNL     1       1.867   6.786  -8.170  0.00  0.00    -0.244 NA
ATOM     26  C   UNL     1       2.644   6.375  -9.204  0.00  0.00    +0.099 A 
ATOM     27  C   UNL     1       3.830   5.681  -8.986  0.00  0.00    +0.019 A 
ATOM     28  C   UNL     1       3.823   4.914  -7.826  0.00  0.00    +0.003 A 
ATOM     29  C   UNL     1       2.978   5.313  -6.795  0.00  0.00    +0.019 A 
BRANCH  27  30
ATOM     30  C   UNL     1       5.068   6.013  -9.694  0.00  0.00    +0.004 A 
ATOM     31  C   UNL     1       5.067   6.926 -10.740  0.00  0.00    +0.030 A 
ATOM     32  C   UNL     1       6.236   7.622 -11.021  0.00  0.00    +0.140 A 
ATOM     33  F   UNL     1       6.282   8.205 -12.246  0.00  0.00    -0.204 F 
ATOM     34  C   UNL     1       7.404   7.016 -10.605  0.00  0.00    +0.030 A 
ATOM     35  C   UNL     1       7.409   6.093  -9.575  0.00  0.00    +0.002 A 
ATOM     36  C   UNL     1       6.234   5.384  -9.356  0.00  0.00    +0.000 A 
ENDBRANCH  27  30
ENDBRANCH  23  24
ENDBRANCH   7  22
TORSDOF 6
ENDMDL
MODEL 3
REMARK VINA RESULT:      -8.2      5.639     10.848
REMARK  Name = 
REMARK  6 active torsions:
REMARK  status: ('A' for Active; 'I' for Inactive)
REMARK    1  A    between atoms: C_2  and  O_3
REMARK    2  A    between atoms: O_3  and  C_4
REMARK    3  A    between atoms: N_6  and  C_7
REMARK    4  A    between atoms: C_20  and  C_21
REMARK    5  A    between atoms: C_22  and  C_23
REMARK    6  A    between atoms: C_26  and  C_27
REMARK                            x       y       z     vdW  Elec       q    Type
REMARK                         _______ _______ _______ _____ _____    ______ ____
ROOT
ATOM      1  C   UNL     1       1.155   5.572 -14.237  0.00  0.00    +0.099 C 
ATOM      2  C   UNL     1       2.759   5.383 -14.507  0.00  0.00    +0.022 C 
ATOM      3  C   UNL     1       3.412   4.786 -13.166  0.00  0.00    +0.003 C 
ATOM      4  C   UNL     1       4.897   5.250 -13.626  0.00  0.00    +0.011 C 
ATOM      5  C   UNL     1       5.832   4.695 -12.419  0.00  0.00    +0.103 C 
ATOM      6  C   UNL     1       5.574   5.892 -11.270  0.00  0.00    +0.055 C 
ATOM      7  C   UNL     1       3.972   5.558 -10.949  0.00  0.00    +0.026 C 
ATOM      8  C   UNL     1       5.398   7.097 -12.419  0.00  0.00    +0.170 C 
ATOM      9  C   UNL     1       5.924   8.235 -11.357  0.00  0.00    +0.047 C 
ATOM     10  O   UNL     1       6.805   6.832 -12.939  0.00  0.00    -0.452 OA
ATOM     11  C   UNL     1       7.097   5.532 -12.923  0.00  0.00    +0.316 C 
ATOM     12  O   UNL     1       8.180   5.098 -12.415  0.00  0.00    -0.250 OA
ATOM     13  C   UNL     1       3.264   6.228 -12.314  0.00  0.00    +0.004 C 
ATOM     14  C   UNL     1       1.798   5.864 -11.782  0.00  0.00    +0.002 C 
ATOM     15  C   UNL     1       1.084   5.015 -12.697  0.00  0.00    +0.022 C 
ENDROOT
BRANCH   1  17
ATOM     16  C   UNL     1       0.927   8.085 -14.693  0.00  0.00    +0.421 C 
ATOM     17  N   UNL     1       1.376   7.079 -13.855  0.00  0.00    -0.170 NA
ATOM     18  O   UNL     1       0.031   7.864 -15.524  0.00  0.00    -0.225 OA
BRANCH  16  19
ATOM     19  O   UNL     1       1.012   9.390 -14.192  0.00  0.00    -0.434 OA
BRANCH  19  21
ATOM     20  C   UNL     1       1.467  11.077 -15.493  0.00  0.00    +0.051 C 
ATOM     21  C   UNL     1       0.710  10.545 -14.943  0.00  0.00    +0.210 C 
ENDBRANCH  19  21
ENDBRANCH  16  19
ENDBRANCH   1  17
BRANCH   7  22
ATOM     22  C   UNL     1       3.785   6.925 -10.148  0.00  0.00    -0.025 C 
ATOM     23  C   UNL     1       2.905   6.735  -9.198  0.00  0.00    +0.015 C 
BRANCH  23  24
ATOM     24  C   UNL     1       3.350   5.827  -8.157  0.00  0.00    +0.081 A 
ATOM     25  N   UNL     1       4.617   5.793  -7.681  0.00  0.00    -0.244 NA
ATOM     26  C   UNL     1       4.810   5.509  -6.368  0.00  0.00    +0.099 A 
ATOM     27  C   UNL     1       3.738   5.255  -5.519  0.00  0.00    +0.019 A 
ATOM     28  C   UNL     1       2.639   4.692  -6.158  0.00  0.00    +0.003 A 
ATOM     29  C   UNL     1       2.485   4.944  -7.517  0.00  0.00    +0.019 A 
BRANCH  27  30
ATOM     30  C   UNL     1       3.641   5.858  -4.187  0.00  0.00    +0.004 A 
ATOM     31  C   UNL     1       3.794   5.086  -3.044  0.00  0.00    +0.030 A 
ATOM     32  C   UNL     1       4.237   5.698  -1.878  0.00  0.00    +0.140 A 
ATOM     33  F   UNL     1       4.018   4.996  -0.736  0.00  0.00    -0.204 F 
ATOM     34  C   UNL     1       4.008   7.056  -1.796  0.00  0.00    +0.030 A 
ATOM     35  C   UNL     1       3.837   7.828  -2.930  0.00  0.00    +0.002 A 
ATOM     36  C   UNL     1       3.348   7.188  -4.062  0.00  0.00    +0.000 A 
ENDBRANCH  27  30
ENDBRANCH  23  24
ENDBRANCH   7  22
TORSDOF 6
ENDMDL
MODEL 4
REMARK VINA RESULT:      -8.1      5.238     10.837
REMARK  Name = 
REMARK  6 active torsions:
REMARK  status: ('A' for Active; 'I' for Inactive)
REMARK    1  A    between atoms: C_2  and  O_3
REMARK    2  A    between atoms: O_3  and  C_4
REMARK    3  A    between atoms: N_6  and  C_7
REMARK    4  A    between atoms: C_20  and  C_21
REMARK    5  A    between atoms: C_22  and  C_23
REMARK    6  A    between atoms: C_26  and  C_27
REMARK                            x       y       z     vdW  Elec       q    Type
REMARK                         _______ _______ _______ _____ _____    ______ ____
ROOT
ATOM      1  C   UNL     1       1.599   5.393 -14.298  0.00  0.00    +0.099 C 
ATOM      2  C   UNL     1       3.214   5.314 -14.555  0.00  0.00    +0.022 C 
ATOM      3  C   UNL     1       3.896   4.761 -13.210  0.00  0.00    +0.003 C 
ATOM      4  C   UNL     1       5.349   5.326 -13.657  0.00  0.00    +0.011 C 
ATOM      5  C   UNL     1       6.309   4.834 -12.443  0.00  0.00    +0.103 C 
ATOM      6  C   UNL     1       5.961   6.009 -11.294  0.00  0.00    +0.055 C 
ATOM      7  C   UNL     1       4.383   5.567 -10.987  0.00  0.00    +0.026 C 
ATOM      8  C   UNL     1       5.713   7.201 -12.444  0.00  0.00    +0.170 C 
ATOM      9  C   UNL     1       6.151   8.371 -11.376  0.00  0.00    +0.047 C 
ATOM     10  O   UNL     1       7.139   7.033 -12.952  0.00  0.00    -0.452 OA
ATOM     11  C   UNL     1       7.519   5.756 -12.935  0.00  0.00    +0.316 C 
ATOM     12  O   UNL     1       8.624   5.397 -12.418  0.00  0.00    -0.250 OA
ATOM     13  C   UNL     1       3.642   6.189 -12.358  0.00  0.00    +0.004 C 
ATOM     14  C   UNL     1       2.200   5.725 -11.839  0.00  0.00    +0.002 C 
ATOM     15  C   UNL     1       1.554   4.831 -12.759  0.00  0.00    +0.022 C 
ENDROOT
BRANCH   1  17
ATOM     16  C   UNL     1       0.995   7.865 -14.612  0.00  0.00    +0.421 C 
ATOM     17  N   UNL     1       1.714   6.912 -13.914  0.00  0.00    -0.170 NA
ATOM     18  O   UNL     1      -0.015   7.548 -15.262  0.00  0.00    -0.225 OA
BRANCH  16  19
ATOM     19  O   UNL     1       1.024   9.165 -14.092  0.00  0.00    -0.434 OA
BRANCH  19  21
ATOM     20  C   UNL     1       1.419  10.764 -15.518  0.00  0.00    +0.051 C 
ATOM     21  C   UNL     1       0.712  10.322 -14.837  0.00  0.00    +0.210 C 
ENDBRANCH  19  21
ENDBRANCH  16  19
ENDBRANCH   1  17
BRANCH   7  22
ATOM     22  C   UNL     1       4.097   6.917 -10.187  0.00  0.00    -0.025 C 
ATOM     23  C   UNL     1       3.108   6.707  -9.354  0.00  0.00    +0.015 C 
BRANCH  23  24
ATOM     24  C   UNL     1       3.427   5.777  -8.286  0.00  0.00    +0.081 A 
ATOM     25  N   UNL     1       4.461   5.946  -7.428  0.00  0.00    -0.244 NA
ATOM     26  C   UNL     1       4.314   5.529  -6.145  0.00  0.00    +0.099 A 
ATOM     27  C   UNL     1       3.131   4.941  -5.707  0.00  0.00    +0.019 A 
ATOM     28  C   UNL     1       2.447   4.253  -6.703  0.00  0.00    +0.003 A 
ATOM     29  C   UNL     1       2.652   4.652  -8.019  0.00  0.00    +0.019 A 
BRANCH  27  30
ATOM     30  C   UNL     1       2.496   5.319  -4.443  0.00  0.00    +0.004 A 
ATOM     31  C   UNL     1       1.117   5.454  -4.352  0.00  0.00    +0.030 A 
ATOM     32  C   UNL     1       0.507   5.269  -3.117  0.00  0.00    +0.140 A 
ATOM     33  F   UNL     1      -0.753   5.763  -3.014  0.00  0.00    -0.204 F 
ATOM     34  C   UNL     1       1.317   5.468  -2.018  0.00  0.00    +0.030 A 
ATOM     35  C   UNL     1       2.692   5.353  -2.106  0.00  0.00    +0.002 A 
ATOM     36  C   UNL     1       3.268   5.592  -3.348  0.00  0.00    +0.000 A 
ENDBRANCH  27  30
ENDBRANCH  23  24
ENDBRANCH   7  22
TORSDOF 6
ENDMDL
MODEL 5
REMARK VINA RESULT:      -8.0      3.572      5.762
REMARK  Name = 
REMARK  6 active torsions:
REMARK  status: ('A' for Active; 'I' for Inactive)
REMARK    1  A    between atoms: C_2  and  O_3
REMARK    2  A    between atoms: O_3  and  C_4
REMARK    3  A    between atoms: N_6  and  C_7
REMARK    4  A    between atoms: C_20  and  C_21
REMARK    5  A    between atoms: C_22  and  C_23
REMARK    6  A    between atoms: C_26  and  C_27
REMARK                            x       y       z     vdW  Elec       q    Type
REMARK                         _______ _______ _______ _____ _____    ______ ____
ROOT
ATOM      1  C   UNL     1       3.965   9.722   0.673  0.00  0.00    +0.099 C 
ATOM      2  C   UNL     1       4.512   8.724  -0.503  0.00  0.00    +0.022 C 
ATOM      3  C   UNL     1       3.287   8.426  -1.499  0.00  0.00    +0.003 C 
ATOM      4  C   UNL     1       4.028   7.111  -2.094  0.00  0.00    +0.011 C 
ATOM      5  C   UNL     1       2.987   6.603  -3.233  0.00  0.00    +0.103 C 
ATOM      6  C   UNL     1       1.863   5.806  -2.272  0.00  0.00    +0.055 C 
ATOM      7  C   UNL     1       1.244   7.142  -1.490  0.00  0.00    +0.026 C 
ATOM      8  C   UNL     1       3.013   5.320  -1.156  0.00  0.00    +0.170 C 
ATOM      9  C   UNL     1       2.114   4.006  -0.750  0.00  0.00    +0.047 C 
ATOM     10  O   UNL     1       3.766   4.557  -2.237  0.00  0.00    -0.452 OA
ATOM     11  C   UNL     1       3.748   5.207  -3.400  0.00  0.00    +0.316 C 
ATOM     12  O   UNL     1       3.425   4.623  -4.484  0.00  0.00    -0.250 OA
ATOM     13  C   UNL     1       2.486   7.435  -0.402  0.00  0.00    +0.004 C 
ATOM     14  C   UNL     1       1.683   8.658   0.249  0.00  0.00    +0.002 C 
ATOM     15  C   UNL     1       2.415   9.892   0.169  0.00  0.00    +0.022 C 
ENDROOT
BRANCH   1  17
ATOM     16  C   UNL     1       3.745   8.647   2.991  0.00  0.00    +0.421 C 
ATOM     17  N   UNL     1       3.696   8.495   1.617  0.00  0.00    -0.170 NA
ATOM     18  O   UNL     1       3.609   9.767   3.510  0.00  0.00    -0.225 OA
BRANCH  16  19
ATOM     19  O   UNL     1       3.323   7.548   3.750  0.00  0.00    -0.434 OA
BRANCH  19  21
ATOM     20  C   UNL     1       1.151   7.701   3.728  0.00  0.00    +0.051 C 
ATOM     21  C   UNL     1       2.005   7.046   3.750  0.00  0.00    +0.210 C 
ENDBRANCH  19  21
ENDBRANCH  16  19
ENDBRANCH   1  17
BRANCH   7  22
ATOM     22  C   UNL     1       0.482   6.237  -0.419  0.00  0.00    -0.025 C 
ATOM     23  C   UNL     1      -0.701   6.754  -0.203  0.00  0.00    +0.015 C 
BRANCH  23  24
ATOM     24  C   UNL     1      -1.590   6.688  -1.349  0.00  0.00    +0.081 A 
ATOM     25  N   UNL     1      -2.004   7.776  -2.042  0.00  0.00    -0.244 NA
ATOM     26  C   UNL     1      -2.195   7.658  -3.380  0.00  0.00    +0.099 A 
ATOM     27  C   UNL     1      -1.975   6.452  -4.038  0.00  0.00    +0.019 A 
ATOM     28  C   UNL     1      -2.194   5.333  -3.243  0.00  0.00    +0.003 A 
ATOM     29  C   UNL     1      -2.052   5.482  -1.867  0.00  0.00    +0.019 A 
BRANCH  27  30
ATOM     30  C   UNL     1      -1.237   6.379  -5.301  0.00  0.00    +0.004 A 
ATOM     31  C   UNL     1       0.024   6.946  -5.423  0.00  0.00    +0.030 A 
ATOM     32  C   UNL     1       0.902   6.428  -6.367  0.00  0.00    +0.140 A 
ATOM     33  F   UNL     1       1.947   7.233  -6.689  0.00  0.00    -0.204 F 
ATOM     34  C   UNL     1       0.314   5.763  -7.424  0.00  0.00    +0.030 A 
ATOM     35  C   UNL     1      -0.949   5.210  -7.315  0.00  0.00    +0.002 A 
ATOM     36  C   UNL     1      -1.813   5.787  -6.392  0.00  0.00    +0.000 A 
ENDBRANCH  27  30
ENDBRANCH  23  24
ENDBRANCH   7  22
TORSDOF 6
ENDMDL
MODEL 6
REMARK VINA RESULT:      -7.6      2.054      2.766
REMARK  Name = 
REMARK  6 active torsions:
REMARK  status: ('A' for Active; 'I' for Inactive)
REMARK    1  A    between atoms: C_2  and  O_3
REMARK    2  A    between atoms: O_3  and  C_4
REMARK    3  A    between atoms: N_6  and  C_7
REMARK    4  A    between atoms: C_20  and  C_21
REMARK    5  A    between atoms: C_22  and  C_23
REMARK    6  A    between atoms: C_26  and  C_27
REMARK                            x       y       z     vdW  Elec       q    Type
REMARK                         _______ _______ _______ _____ _____    ______ ____
ROOT
ATOM      1  C   UNL     1       2.888   5.556  -0.992  0.00  0.00    +0.099 C 
ATOM      2  C   UNL     1       1.509   5.466  -1.869  0.00  0.00    +0.022 C 
ATOM      3  C   UNL     1       1.853   4.710  -3.245  0.00  0.00    +0.003 C 
ATOM      4  C   UNL     1       0.514   5.288  -3.954  0.00  0.00    +0.011 C 
ATOM      5  C   UNL     1       0.567   4.603  -5.425  0.00  0.00    +0.103 C 
ATOM      6  C   UNL     1       1.672   5.616  -6.184  0.00  0.00    +0.055 C 
ATOM      7  C   UNL     1       3.020   5.182  -5.304  0.00  0.00    +0.026 C 
ATOM      8  C   UNL     1       1.180   6.964  -5.321  0.00  0.00    +0.170 C 
ATOM      9  C   UNL     1       1.644   7.959  -6.543  0.00  0.00    +0.047 C 
ATOM     10  O   UNL     1      -0.231   6.826  -5.876  0.00  0.00    -0.452 OA
ATOM     11  C   UNL     1      -0.595   5.549  -5.983  0.00  0.00    +0.316 C 
ATOM     12  O   UNL     1      -1.102   5.088  -7.055  0.00  0.00    -0.250 OA
ATOM     13  C   UNL     1       2.709   6.012  -3.879  0.00  0.00    +0.004 C 
ATOM     14  C   UNL     1       4.094   5.522  -3.243  0.00  0.00    +0.002 C 
ATOM     15  C   UNL     1       3.902   4.785  -2.024  0.00  0.00    +0.022 C 
ENDROOT
BRANCH   1  17
ATOM     16  C   UNL     1       3.054   8.098  -0.704  0.00  0.00    +0.421 C 
ATOM     17  N   UNL     1       3.166   7.002  -1.540  0.00  0.00    -0.170 NA
ATOM     18  O   UNL     1       3.123   7.966   0.528  0.00  0.00    -0.225 OA
BRANCH  16  19
ATOM     19  O   UNL     1       3.486   9.323  -1.230  0.00  0.00    -0.434 OA
BRANCH  19  21
ATOM     20  C   UNL     1       3.739  11.472  -0.984  0.00  0.00    +0.051 C 
ATOM     21  C   UNL     1       3.443  10.544  -0.526  0.00  0.00    +0.210 C 
ENDBRANCH  19  21
ENDBRANCH  16  19
ENDBRANCH   1  17
BRANCH   7  22
ATOM     22  C   UNL     1       3.861   6.414  -5.869  0.00  0.00    -0.025 C 
ATOM     23  C   UNL     1       4.845   5.949  -6.598  0.00  0.00    +0.015 C 
BRANCH  23  24
ATOM     24  C   UNL     1       4.414   5.286  -7.815  0.00  0.00    +0.081 A 
ATOM     25  N   UNL     1       3.323   4.488  -7.888  0.00  0.00    -0.244 NA
ATOM     26  C   UNL     1       2.598   4.484  -9.035  0.00  0.00    +0.099 A 
ATOM     27  C   UNL     1       2.956   5.279 -10.120  0.00  0.00    +0.019 A 
ATOM     28  C   UNL     1       4.323   5.521 -10.207  0.00  0.00    +0.003 A 
ATOM     29  C   UNL     1       5.064   5.464  -9.032  0.00  0.00    +0.019 A 
BRANCH  27  30
ATOM     30  C   UNL     1       1.975   6.075 -10.860  0.00  0.00    +0.004 A 
ATOM     31  C   UNL     1       2.125   6.305 -12.220  0.00  0.00    +0.030 A 
ATOM     32  C   UNL     1       0.992   6.556 -12.985  0.00  0.00    +0.140 A 
ATOM     33  F   UNL     1       1.225   7.123 -14.196  0.00  0.00    -0.204 F 
ATOM     34  C   UNL     1      -0.093   7.054 -12.293  0.00  0.00    +0.030 A 
ATOM     35  C   UNL     1      -0.240   6.844 -10.934  0.00  0.00    +0.002 A 
ATOM     36  C   UNL     1       0.921   6.642 -10.197  0.00  0.00    +0.000 A 
ENDBRANCH  27  30
ENDBRANCH  23  24
ENDBRANCH   7  22
TORSDOF 6
ENDMDL
MODEL 7
REMARK VINA RESULT:      -7.4      5.578     10.692
REMARK  Name = 
REMARK  6 active torsions:
REMARK  status: ('A' for Active; 'I' for Inactive)
REMARK    1  A    between atoms: C_2  and  O_3
REMARK    2  A    between atoms: O_3  and  C_4
REMARK    3  A    between atoms: N_6  and  C_7
REMARK    4  A    between atoms: C_20  and  C_21
REMARK    5  A    between atoms: C_22  and  C_23
REMARK    6  A    between atoms: C_26  and  C_27
REMARK                            x       y       z     vdW  Elec       q    Type
REMARK                         _______ _______ _______ _____ _____    ______ ____
ROOT
ATOM      1  C   UNL     1       2.237   5.005 -14.289  0.00  0.00    +0.099 C 
ATOM      2  C   UNL     1       3.870   4.888 -14.265  0.00  0.00    +0.022 C 
ATOM      3  C   UNL     1       4.321   4.671 -12.738  0.00  0.00    +0.003 C 
ATOM      4  C   UNL     1       5.840   5.134 -13.071  0.00  0.00    +0.011 C 
ATOM      5  C   UNL     1       6.588   4.949 -11.641  0.00  0.00    +0.103 C 
ATOM      6  C   UNL     1       6.095   6.355 -10.865  0.00  0.00    +0.055 C 
ATOM      7  C   UNL     1       4.478   5.977 -10.714  0.00  0.00    +0.026 C 
ATOM      8  C   UNL     1       6.058   7.244 -12.283  0.00  0.00    +0.170 C 
ATOM      9  C   UNL     1       6.355   8.635 -11.460  0.00  0.00    +0.047 C 
ATOM     10  O   UNL     1       7.541   6.979 -12.509  0.00  0.00    -0.452 OA
ATOM     11  C   UNL     1       7.882   5.746 -12.139  0.00  0.00    +0.316 C 
ATOM     12  O   UNL     1       8.885   5.530 -11.386  0.00  0.00    -0.250 OA
ATOM     13  C   UNL     1       3.974   6.255 -12.290  0.00  0.00    +0.004 C 
ATOM     14  C   UNL     1       2.458   5.907 -11.910  0.00  0.00    +0.002 C 
ATOM     15  C   UNL     1       1.940   4.815 -12.688  0.00  0.00    +0.022 C 
ENDROOT
BRANCH   1  17
ATOM     16  C   UNL     1       1.816   7.326 -15.294  0.00  0.00    +0.421 C 
ATOM     17  N   UNL     1       2.329   6.573 -14.253  0.00  0.00    -0.170 NA
ATOM     18  O   UNL     1       0.957   6.853 -16.055  0.00  0.00    -0.225 OA
BRANCH  16  19
ATOM     19  O   UNL     1       1.786   8.713 -15.097  0.00  0.00    -0.434 OA
BRANCH  19  21
ATOM     20  C   UNL     1       0.955  10.174 -16.482  0.00  0.00    +0.051 C 
ATOM     21  C   UNL     1       0.785   9.562 -15.613  0.00  0.00    +0.210 C 
ENDBRANCH  19  21
ENDBRANCH  16  19
ENDBRANCH   1  17
BRANCH   7  22
ATOM     22  C   UNL     1       4.105   7.473 -10.303  0.00  0.00    -0.025 C 
ATOM     23  C   UNL     1       2.882   7.484  -9.836  0.00  0.00    +0.015 C 
BRANCH  23  24
ATOM     24  C   UNL     1       2.724   6.771  -8.582  0.00  0.00    +0.081 A 
ATOM     25  N   UNL     1       2.967   7.323  -7.369  0.00  0.00    -0.244 NA
ATOM     26  C   UNL     1       2.198   6.943  -6.318  0.00  0.00    +0.099 A 
ATOM     27  C   UNL     1       1.178   6.009  -6.468  0.00  0.00    +0.019 A 
ATOM     28  C   UNL     1       1.414   5.082  -7.477  0.00  0.00    +0.003 A 
ATOM     29  C   UNL     1       2.252   5.464  -8.520  0.00  0.00    +0.019 A 
BRANCH  27  30
ATOM     30  C   UNL     1      -0.152   6.208  -5.888  0.00  0.00    +0.004 A 
ATOM     31  C   UNL     1      -0.366   7.174  -4.914  0.00  0.00    +0.030 A 
ATOM     32  C   UNL     1      -1.638   7.716  -4.779  0.00  0.00    +0.140 A 
ATOM     33  F   UNL     1      -1.871   8.361  -3.607  0.00  0.00    -0.204 F 
ATOM     34  C   UNL     1      -2.672   6.929  -5.242  0.00  0.00    +0.030 A 
ATOM     35  C   UNL     1      -2.463   5.953  -6.199  0.00  0.00    +0.002 A 
ATOM     36  C   UNL     1      -1.188   5.403  -6.272  0.00  0.00    +0.000 A 
ENDBRANCH  27  30
ENDBRANCH  23  24
ENDBRANCH   7  22
TORSDOF 6
ENDMDL
MODEL 8
REMARK VINA RESULT:      -7.4      3.887      6.263
REMARK  Name = 
REMARK  6 active torsions:
REMARK  status: ('A' for Active; 'I' for Inactive)
REMARK    1  A    between atoms: C_2  and  O_3
REMARK    2  A    between atoms: O_3  and  C_4
REMARK    3  A    between atoms: N_6  and  C_7
REMARK    4  A    between atoms: C_20  and  C_21
REMARK    5  A    between atoms: C_22  and  C_23
REMARK    6  A    between atoms: C_26  and  C_27
REMARK                            x       y       z     vdW  Elec       q    Type
REMARK                         _______ _______ _______ _____ _____    ______ ____
ROOT
ATOM      1  C   UNL     1       3.585  10.558   1.134  0.00  0.00    +0.099 C 
ATOM      2  C   UNL     1       4.275   9.831  -0.160  0.00  0.00    +0.022 C 
ATOM      3  C   UNL     1       3.094   9.345  -1.135  0.00  0.00    +0.003 C 
ATOM      4  C   UNL     1       4.082   8.304  -1.891  0.00  0.00    +0.011 C 
ATOM      5  C   UNL     1       3.120   7.671  -3.036  0.00  0.00    +0.103 C 
ATOM      6  C   UNL     1       2.271   6.546  -2.123  0.00  0.00    +0.055 C 
ATOM      7  C   UNL     1       1.408   7.620  -1.183  0.00  0.00    +0.026 C 
ATOM      8  C   UNL     1       3.567   6.244  -1.107  0.00  0.00    +0.170 C 
ATOM      9  C   UNL     1       3.023   4.723  -0.807  0.00  0.00    +0.047 C 
ATOM     10  O   UNL     1       4.410   5.784  -2.289  0.00  0.00    -0.452 OA
ATOM     11  C   UNL     1       4.171   6.516  -3.377  0.00  0.00    +0.316 C 
ATOM     12  O   UNL     1       3.927   5.976  -4.503  0.00  0.00    -0.250 OA
ATOM     13  C   UNL     1       2.612   8.096  -0.117  0.00  0.00    +0.004 C 
ATOM     14  C   UNL     1       1.589   9.029   0.686  0.00  0.00    +0.002 C 
ATOM     15  C   UNL     1       2.009  10.403   0.708  0.00  0.00    +0.022 C 
ENDROOT
BRANCH   1  17
ATOM     16  C   UNL     1       4.610   9.068   2.952  0.00  0.00    +0.421 C 
ATOM     17  N   UNL     1       3.664   9.221   1.954  0.00  0.00    -0.170 NA
ATOM     18  O   UNL     1       5.134  10.060   3.485  0.00  0.00    -0.225 OA
BRANCH  16  19
ATOM     19  O   UNL     1       4.495   7.918   3.742  0.00  0.00    -0.434 OA
BRANCH  19  21
ATOM     20  C   UNL     1       6.349   6.920   3.184  0.00  0.00    +0.051 C 
ATOM     21  C   UNL     1       5.431   6.862   3.742  0.00  0.00    +0.210 C 
ENDBRANCH  19  21
ENDBRANCH  16  19
ENDBRANCH   1  17
BRANCH   7  22
ATOM     22  C   UNL     1       0.943   6.466  -0.185  0.00  0.00    -0.025 C 
ATOM     23  C   UNL     1      -0.248   6.763   0.271  0.00  0.00    +0.015 C 
BRANCH  23  24
ATOM     24  C   UNL     1      -1.289   6.734  -0.740  0.00  0.00    +0.081 A 
ATOM     25  N   UNL     1      -1.682   7.820  -1.446  0.00  0.00    -0.244 NA
ATOM     26  C   UNL     1      -2.068   7.652  -2.735  0.00  0.00    +0.099 A 
ATOM     27  C   UNL     1      -2.066   6.395  -3.332  0.00  0.00    +0.019 A 
ATOM     28  C   UNL     1      -2.286   5.352  -2.438  0.00  0.00    +0.003 A 
ATOM     29  C   UNL     1      -1.939   5.559  -1.107  0.00  0.00    +0.019 A 
BRANCH  27  30
ATOM     30  C   UNL     1      -1.522   6.171  -4.673  0.00  0.00    +0.004 A 
ATOM     31  C   UNL     1      -0.190   5.825  -4.853  0.00  0.00    +0.030 A 
ATOM     32  C   UNL     1       0.167   5.108  -5.988  0.00  0.00    +0.140 A 
ATOM     33  F   UNL     1       1.492   5.121  -6.288  0.00  0.00    -0.204 F 
ATOM     34  C   UNL     1      -0.688   5.233  -7.064  0.00  0.00    +0.030 A 
ATOM     35  C   UNL     1      -2.012   5.594  -6.893  0.00  0.00    +0.002 A 
ATOM     36  C   UNL     1      -2.321   6.350  -5.769  0.00  0.00    +0.000 A 
ENDBRANCH  27  30
ENDBRANCH  23  24
ENDBRANCH   7  22
TORSDOF 6
ENDMDL
MODEL 9
REMARK VINA RESULT:      -6.2      4.879      9.978
REMARK  Name = 
REMARK  6 active torsions:
REMARK  status: ('A' for Active; 'I' for Inactive)
REMARK    1  A    between atoms: C_2  and  O_3
REMARK    2  A    between atoms: O_3  and  C_4
REMARK    3  A    between atoms: N_6  and  C_7
REMARK    4  A    between atoms: C_20  and  C_21
REMARK    5  A    between atoms: C_22  and  C_23
REMARK    6  A    between atoms: C_26  and  C_27
REMARK                            x       y       z     vdW  Elec       q    Type
REMARK                         _______ _______ _______ _____ _____    ______ ____
ROOT
ATOM      1  C   UNL     1       1.854   5.941 -14.908  0.00  0.00    +0.099 C 
ATOM      2  C   UNL     1       3.277   5.847 -14.104  0.00  0.00    +0.022 C 
ATOM      3  C   UNL     1       3.017   5.026 -12.747  0.00  0.00    +0.003 C 
ATOM      4  C   UNL     1       4.377   5.606 -12.080  0.00  0.00    +0.011 C 
ATOM      5  C   UNL     1       4.411   4.859 -10.638  0.00  0.00    +0.103 C 
ATOM      6  C   UNL     1       3.323   5.812  -9.784  0.00  0.00    +0.055 C 
ATOM      7  C   UNL     1       1.943   5.383 -10.616  0.00  0.00    +0.026 C 
ATOM      8  C   UNL     1       3.743   7.206 -10.611  0.00  0.00    +0.170 C 
ATOM      9  C   UNL     1       3.317   8.138  -9.326  0.00  0.00    +0.047 C 
ATOM     10  O   UNL     1       5.182   7.080 -10.132  0.00  0.00    -0.452 OA
ATOM     11  C   UNL     1       5.578   5.808 -10.097  0.00  0.00    +0.316 C 
ATOM     12  O   UNL     1       6.148   5.315  -9.072  0.00  0.00    -0.250 OA
ATOM     13  C   UNL     1       2.166   6.279 -12.017  0.00  0.00    +0.004 C 
ATOM     14  C   UNL     1       0.761   5.784 -12.605  0.00  0.00    +0.002 C 
ATOM     15  C   UNL     1       0.909   5.103 -13.863  0.00  0.00    +0.022 C 
ENDROOT
BRANCH   1  17
ATOM     16  C   UNL     1       1.208   8.415 -15.098  0.00  0.00    +0.421 C 
ATOM     17  N   UNL     1       1.572   7.355 -14.286  0.00  0.00    -0.170 NA
ATOM     18  O   UNL     1       0.723   8.214 -16.223  0.00  0.00    -0.225 OA
BRANCH  16  19
ATOM     19  O   UNL     1       0.810   9.587 -14.442  0.00  0.00    -0.434 OA
BRANCH  19  21
ATOM     20  C   UNL     1       1.069  11.725 -14.767  0.00  0.00    +0.051 C 
ATOM     21  C   UNL     1       0.587  10.819 -15.092  0.00  0.00    +0.210 C 
ENDBRANCH  19  21
ENDBRANCH  16  19
ENDBRANCH   1  17
BRANCH   7  22
ATOM     22  C   UNL     1       1.105   6.571  -9.958  0.00  0.00    -0.025 C 
ATOM     23  C   UNL     1       0.065   6.059  -9.348  0.00  0.00    +0.015 C 
BRANCH  23  24
ATOM     24  C   UNL     1       0.401   5.244  -8.195  0.00  0.00    +0.081 A 
ATOM     25  N   UNL     1       1.445   4.382  -8.164  0.00  0.00    -0.244 NA
ATOM     26  C   UNL     1       2.111   4.212  -6.994  0.00  0.00    +0.099 A 
ATOM     27  C   UNL     1       1.740   4.903  -5.844  0.00  0.00    +0.019 A 
ATOM     28  C   UNL     1       0.384   5.209  -5.790  0.00  0.00    +0.003 A 
ATOM     29  C   UNL     1      -0.300   5.323  -6.996  0.00  0.00    +0.019 A 
BRANCH  27  30
ATOM     30  C   UNL     1       2.722   5.557  -4.977  0.00  0.00    +0.004 A 
ATOM     31  C   UNL     1       2.556   5.576  -3.599  0.00  0.00    +0.030 A 
ATOM     32  C   UNL     1       3.680   5.686  -2.791  0.00  0.00    +0.140 A 
ATOM     33  F   UNL     1       3.437   6.063  -1.510  0.00  0.00    -0.204 F 
ATOM     34  C   UNL     1       4.784   6.264  -3.384  0.00  0.00    +0.030 A 
ATOM     35  C   UNL     1       4.948   6.264  -4.757  0.00  0.00    +0.002 A 
ATOM     36  C   UNL     1       3.795   6.200  -5.531  0.00  0.00    +0.000 A 
ENDBRANCH  27  30
ENDBRANCH  23  24
ENDBRANCH   7  22
TORSDOF 6
ENDMDL
