MODEL 1
REMARK VINA RESULT:      -8.9      0.000      0.000
REMARK  Name = 
REMARK  8 active torsions:
REMARK  status: ('A' for Active; 'I' for Inactive)
REMARK    1  A    between atoms: C_2  and  C_3
REMARK    2  A    between atoms: C_3  and  O_4
REMARK    3  A    between atoms: O_4  and  C_5
REMARK    4  A    between atoms: C_8  and  C_9
REMARK    5  A    between atoms: C_9  and  C_20
REMARK    6  A    between atoms: C_10  and  C_11
REMARK    7  A    between atoms: C_10  and  C_14
REMARK    8  A    between atoms: C_11  and  C_12
REMARK                            x       y       z     vdW  Elec       q    Type
REMARK                         _______ _______ _______ _____ _____    ______ ____
ROOT
ATOM      1  C   UNL     1       2.741   5.598  -8.502  0.00  0.00    -0.004 C 
ATOM      2  C   UNL     1       2.449   5.798  -7.216  0.00  0.00    -0.021 C 
ENDROOT
BRANCH   2   3
ATOM      3  C   UNL     1       3.523   5.976  -6.230  0.00  0.00    -0.004 A 
ATOM      4  C   UNL     1       3.791   7.234  -5.709  0.00  0.00    -0.000 A 
ATOM      5  C   UNL     1       4.461   7.407  -4.509  0.00  0.00    -0.000 A 
ATOM      6  C   UNL     1       5.027   6.271  -3.946  0.00  0.00    -0.000 A 
ATOM      7  C   UNL     1       4.434   5.046  -4.179  0.00  0.00    -0.000 A 
ATOM      8  C   UNL     1       3.795   4.897  -5.398  0.00  0.00    -0.000 A 
ENDBRANCH   2   3
BRANCH   1   9
ATOM      9  C   UNL     1       1.661   5.599  -9.490  0.00  0.00    -0.000 A 
ATOM     10  C   UNL     1       0.922   6.759  -9.684  0.00  0.00    -0.000 A 
ATOM     11  C   UNL     1       0.249   6.845 -10.895  0.00  0.00    -0.000 A 
ATOM     12  C   UNL     1      -0.047   5.685 -11.583  0.00  0.00    -0.000 A 
ATOM     13  C   UNL     1       0.251   4.469 -10.991  0.00  0.00    -0.000 A 
ATOM     14  C   UNL     1       1.009   4.421  -9.827  0.00  0.00    -0.000 A 
ENDBRANCH   1   9
BRANCH   1  18
ATOM     15  C   UNL     1       6.509   6.279 -10.305  0.00  0.00    +0.139 A 
ATOM     16  C   UNL     1       6.444   5.521  -9.144  0.00  0.00    +0.037 A 
ATOM     17  C   UNL     1       5.207   5.212  -8.594  0.00  0.00    +0.003 A 
ATOM     18  C   UNL     1       4.084   5.903  -8.977  0.00  0.00    -0.000 A 
ATOM     19  C   UNL     1       4.288   7.047  -9.737  0.00  0.00    +0.003 A 
ATOM     20  C   UNL     1       5.403   7.085 -10.547  0.00  0.00    +0.037 A 
BRANCH  15  21
ATOM     21  O   UNL     1       7.736   6.647 -10.856  0.00  0.00    -0.473 OA
BRANCH  21  22
ATOM     22  C   UNL     1       8.452   5.753 -11.675  0.00  0.00    +0.241 C 
BRANCH  22  24
ATOM     23  O   UNL     1       7.296   4.765 -13.541  0.00  0.00    -0.216 OA
ATOM     24  C   UNL     1       8.062   5.862 -13.136  0.00  0.00    +0.229 C 
ENDBRANCH  22  24
ENDBRANCH  21  22
ENDBRANCH  15  21
ENDBRANCH   1  18
BRANCH   2  25
ATOM     25  C   UNL     1       1.099   6.297  -6.811  0.00  0.00    +0.044 C 
BRANCH  25  26
ATOM     26  C   UNL     1       0.323   5.116  -6.242  0.00  0.00    +0.100 C 
ATOM     27 CL   UNL     1      -1.293   5.054  -7.007  0.00  0.00    -0.113 Cl
ENDBRANCH  25  26
ENDBRANCH   2  25
TORSDOF 8
ENDMDL
MODEL 2
REMARK VINA RESULT:      -8.8      4.221      6.833
REMARK  Name = 
REMARK  8 active torsions:
REMARK  status: ('A' for Active; 'I' for Inactive)
REMARK    1  A    between atoms: C_2  and  C_3
REMARK    2  A    between atoms: C_3  and  O_4
REMARK    3  A    between atoms: O_4  and  C_5
REMARK    4  A    between atoms: C_8  and  C_9
REMARK    5  A    between atoms: C_9  and  C_20
REMARK    6  A    between atoms: C_10  and  C_11
REMARK    7  A    between atoms: C_10  and  C_14
REMARK    8  A    between atoms: C_11  and  C_12
REMARK                            x       y       z     vdW  Elec       q    Type
REMARK                         _______ _______ _______ _____ _____    ______ ____
ROOT
ATOM      1  C   UNL     1       1.356   6.065  -7.952  0.00  0.00    -0.004 C 
ATOM      2  C   UNL     1       2.598   5.692  -7.639  0.00  0.00    -0.021 C 
ENDROOT
BRANCH   2   3
ATOM      3  C   UNL     1       3.063   5.753  -6.247  0.00  0.00    -0.004 A 
ATOM      4  C   UNL     1       3.244   4.585  -5.520  0.00  0.00    -0.000 A 
ATOM      5  C   UNL     1       4.059   4.533  -4.400  0.00  0.00    -0.000 A 
ATOM      6  C   UNL     1       4.532   5.747  -3.921  0.00  0.00    -0.000 A 
ATOM      7  C   UNL     1       4.731   6.783  -4.814  0.00  0.00    -0.000 A 
ATOM      8  C   UNL     1       3.884   6.820  -5.907  0.00  0.00    -0.000 A 
ENDBRANCH   2   3
BRANCH   1   9
ATOM      9  C   UNL     1       0.858   5.831  -9.308  0.00  0.00    -0.000 A 
ATOM     10  C   UNL     1       0.654   6.916 -10.152  0.00  0.00    -0.000 A 
ATOM     11  C   UNL     1       0.623   6.623 -11.508  0.00  0.00    -0.000 A 
ATOM     12  C   UNL     1       0.323   5.337 -11.911  0.00  0.00    -0.000 A 
ATOM     13  C   UNL     1      -0.036   4.407 -10.949  0.00  0.00    -0.000 A 
ATOM     14  C   UNL     1       0.098   4.707  -9.598  0.00  0.00    -0.000 A 
ENDBRANCH   1   9
BRANCH   1  18
ATOM     15  C   UNL     1      -1.815   6.617  -5.203  0.00  0.00    +0.139 A 
ATOM     16  C   UNL     1      -0.605   7.259  -4.975  0.00  0.00    +0.037 A 
ATOM     17  C   UNL     1       0.412   7.162  -5.917  0.00  0.00    +0.003 A 
ATOM     18  C   UNL     1       0.368   6.193  -6.889  0.00  0.00    -0.000 A 
ATOM     19  C   UNL     1      -0.591   5.202  -6.735  0.00  0.00    +0.003 A 
ATOM     20  C   UNL     1      -1.755   5.537  -6.075  0.00  0.00    +0.037 A 
BRANCH  15  21
ATOM     21  O   UNL     1      -2.839   6.655  -4.257  0.00  0.00    -0.473 OA
BRANCH  21  22
ATOM     22  C   UNL     1      -2.569   7.007  -2.921  0.00  0.00    +0.241 C 
BRANCH  22  24
ATOM     23  O   UNL     1      -2.837   4.628  -2.673  0.00  0.00    -0.216 OA
ATOM     24  C   UNL     1      -2.461   5.800  -2.011  0.00  0.00    +0.229 C 
ENDBRANCH  22  24
ENDBRANCH  21  22
ENDBRANCH  15  21
ENDBRANCH   1  18
BRANCH   2  25
ATOM     25  C   UNL     1       3.377   4.799  -8.552  0.00  0.00    +0.044 C 
BRANCH  25  26
ATOM     26  C   UNL     1       4.411   5.659  -9.267  0.00  0.00    +0.100 C 
ATOM     27 CL   UNL     1       6.029   5.321  -8.583  0.00  0.00    -0.113 Cl
ENDBRANCH  25  26
ENDBRANCH   2  25
TORSDOF 8
ENDMDL
MODEL 3
REMARK VINA RESULT:      -8.7      0.724      4.724
REMARK  Name = 
REMARK  8 active torsions:
REMARK  status: ('A' for Active; 'I' for Inactive)
REMARK    1  A    between atoms: C_2  and  C_3
REMARK    2  A    between atoms: C_3  and  O_4
REMARK    3  A    between atoms: O_4  and  C_5
REMARK    4  A    between atoms: C_8  and  C_9
REMARK    5  A    between atoms: C_9  and  C_20
REMARK    6  A    between atoms: C_10  and  C_11
REMARK    7  A    between atoms: C_10  and  C_14
REMARK    8  A    between atoms: C_11  and  C_12
REMARK                            x       y       z     vdW  Elec       q    Type
REMARK                         _______ _______ _______ _____ _____    ______ ____
ROOT
ATOM      1  C   UNL     1       3.167   6.184  -7.543  0.00  0.00    -0.004 C 
ATOM      2  C   UNL     1       1.935   5.743  -7.801  0.00  0.00    -0.021 C 
ENDROOT
BRANCH   2   3
ATOM      3  C   UNL     1       1.454   5.648  -9.185  0.00  0.00    -0.004 A 
ATOM      4  C   UNL     1       1.149   4.411  -9.735  0.00  0.00    -0.000 A 
ATOM      5  C   UNL     1       0.315   4.279 -10.834  0.00  0.00    -0.000 A 
ATOM      6  C   UNL     1      -0.047   5.452 -11.482  0.00  0.00    -0.000 A 
ATOM      7  C   UNL     1      -0.130   6.619 -10.749  0.00  0.00    -0.000 A 
ATOM      8  C   UNL     1       0.735   6.731  -9.675  0.00  0.00    -0.000 A 
ENDBRANCH   2   3
BRANCH   1   9
ATOM      9  C   UNL     1       3.685   6.104  -6.177  0.00  0.00    -0.000 A 
ATOM     10  C   UNL     1       3.852   7.274  -5.446  0.00  0.00    -0.000 A 
ATOM     11  C   UNL     1       3.905   7.116  -4.068  0.00  0.00    -0.000 A 
ATOM     12  C   UNL     1       4.262   5.889  -3.545  0.00  0.00    -0.000 A 
ATOM     13  C   UNL     1       4.651   4.885  -4.416  0.00  0.00    -0.000 A 
ATOM     14  C   UNL     1       4.494   5.046  -5.788  0.00  0.00    -0.000 A 
ENDBRANCH   1   9
BRANCH   1  18
ATOM     15  C   UNL     1       6.291   6.553 -10.376  0.00  0.00    +0.139 A 
ATOM     16  C   UNL     1       5.058   7.127 -10.653  0.00  0.00    +0.037 A 
ATOM     17  C   UNL     1       4.053   7.094  -9.694  0.00  0.00    +0.003 A 
ATOM     18  C   UNL     1       4.140   6.234  -8.626  0.00  0.00    -0.000 A 
ATOM     19  C   UNL     1       5.133   5.266  -8.689  0.00  0.00    +0.003 A 
ATOM     20  C   UNL     1       6.278   5.569  -9.395  0.00  0.00    +0.037 A 
BRANCH  15  21
ATOM     21  O   UNL     1       7.304   6.528 -11.333  0.00  0.00    -0.473 OA
BRANCH  21  22
ATOM     22  C   UNL     1       7.037   6.876 -12.671  0.00  0.00    +0.241 C 
BRANCH  22  24
ATOM     23  O   UNL     1       7.693   4.591 -13.043  0.00  0.00    -0.216 OA
ATOM     24  C   UNL     1       6.996   5.672 -13.590  0.00  0.00    +0.229 C 
ENDBRANCH  22  24
ENDBRANCH  21  22
ENDBRANCH  15  21
ENDBRANCH   1  18
BRANCH   2  25
ATOM     25  C   UNL     1       1.194   4.924  -6.793  0.00  0.00    +0.044 C 
BRANCH  25  26
ATOM     26  C   UNL     1       0.082   5.793  -6.219  0.00  0.00    +0.100 C 
ATOM     27 CL   UNL     1      -1.468   5.351  -6.995  0.00  0.00    -0.113 Cl
ENDBRANCH  25  26
ENDBRANCH   2  25
TORSDOF 8
ENDMDL
MODEL 4
REMARK VINA RESULT:      -8.5      4.199      8.167
REMARK  Name = 
REMARK  8 active torsions:
REMARK  status: ('A' for Active; 'I' for Inactive)
REMARK    1  A    between atoms: C_2  and  C_3
REMARK    2  A    between atoms: C_3  and  O_4
REMARK    3  A    between atoms: O_4  and  C_5
REMARK    4  A    between atoms: C_8  and  C_9
REMARK    5  A    between atoms: C_9  and  C_20
REMARK    6  A    between atoms: C_10  and  C_11
REMARK    7  A    between atoms: C_10  and  C_14
REMARK    8  A    between atoms: C_11  and  C_12
REMARK                            x       y       z     vdW  Elec       q    Type
REMARK                         _______ _______ _______ _____ _____    ______ ____
ROOT
ATOM      1  C   UNL     1       2.083   5.688  -6.795  0.00  0.00    -0.004 C 
ATOM      2  C   UNL     1       2.345   5.781  -8.100  0.00  0.00    -0.021 C 
ENDROOT
BRANCH   2   3
ATOM      3  C   UNL     1       1.250   5.779  -9.078  0.00  0.00    -0.004 A 
ATOM      4  C   UNL     1       0.925   6.941  -9.765  0.00  0.00    -0.000 A 
ATOM      5  C   UNL     1       0.230   6.919 -10.963  0.00  0.00    -0.000 A 
ATOM      6  C   UNL     1      -0.301   5.695 -11.349  0.00  0.00    -0.000 A 
ATOM      7  C   UNL     1       0.343   4.537 -10.959  0.00  0.00    -0.000 A 
ATOM      8  C   UNL     1       1.006   4.585  -9.745  0.00  0.00    -0.000 A 
ENDBRANCH   2   3
BRANCH   1   9
ATOM      9  C   UNL     1       3.171   5.868  -5.832  0.00  0.00    -0.000 A 
ATOM     10  C   UNL     1       3.484   4.832  -4.961  0.00  0.00    -0.000 A 
ATOM     11  C   UNL     1       4.756   4.877  -4.409  0.00  0.00    -0.000 A 
ATOM     12  C   UNL     1       5.422   6.085  -4.352  0.00  0.00    -0.000 A 
ATOM     13  C   UNL     1       4.755   7.229  -4.757  0.00  0.00    -0.000 A 
ATOM     14  C   UNL     1       3.521   7.136  -5.390  0.00  0.00    -0.000 A 
ENDBRANCH   1   9
BRANCH   1  18
ATOM     15  C   UNL     1      -1.691   6.322  -4.987  0.00  0.00    +0.139 A 
ATOM     16  C   UNL     1      -1.566   5.341  -5.961  0.00  0.00    +0.037 A 
ATOM     17  C   UNL     1      -0.315   5.059  -6.496  0.00  0.00    +0.003 A 
ATOM     18  C   UNL     1       0.727   5.938  -6.327  0.00  0.00    -0.000 A 
ATOM     19  C   UNL     1       0.406   7.189  -5.819  0.00  0.00    +0.003 A 
ATOM     20  C   UNL     1      -0.684   7.278  -4.979  0.00  0.00    +0.037 A 
BRANCH  15  21
ATOM     21  O   UNL     1      -2.938   6.662  -4.464  0.00  0.00    -0.473 OA
BRANCH  21  22
ATOM     22  C   UNL     1      -3.080   6.990  -3.102  0.00  0.00    +0.241 C 
BRANCH  22  24
ATOM     23  O   UNL     1      -2.890   4.618  -2.739  0.00  0.00    -0.216 OA
ATOM     24  C   UNL     1      -2.628   5.873  -2.183  0.00  0.00    +0.229 C 
ENDBRANCH  22  24
ENDBRANCH  21  22
ENDBRANCH  15  21
ENDBRANCH   1  18
BRANCH   2  25
ATOM     25  C   UNL     1       3.649   6.336  -8.577  0.00  0.00    +0.044 C 
BRANCH  25  26
ATOM     26  C   UNL     1       4.440   5.190  -9.193  0.00  0.00    +0.100 C 
ATOM     27 CL   UNL     1       5.961   4.969  -8.279  0.00  0.00    -0.113 Cl
ENDBRANCH  25  26
ENDBRANCH   2  25
TORSDOF 8
ENDMDL
MODEL 5
REMARK VINA RESULT:      -8.0      3.689      6.753
REMARK  Name = 
REMARK  8 active torsions:
REMARK  status: ('A' for Active; 'I' for Inactive)
REMARK    1  A    between atoms: C_2  and  C_3
REMARK    2  A    between atoms: C_3  and  O_4
REMARK    3  A    between atoms: O_4  and  C_5
REMARK    4  A    between atoms: C_8  and  C_9
REMARK    5  A    between atoms: C_9  and  C_20
REMARK    6  A    between atoms: C_10  and  C_11
REMARK    7  A    between atoms: C_10  and  C_14
REMARK    8  A    between atoms: C_11  and  C_12
REMARK                            x       y       z     vdW  Elec       q    Type
REMARK                         _______ _______ _______ _____ _____    ______ ____
ROOT
ATOM      1  C   UNL     1       1.018   6.526  -6.447  0.00  0.00    -0.004 C 
ATOM      2  C   UNL     1       1.247   6.143  -7.704  0.00  0.00    -0.021 C 
ENDROOT
BRANCH   2   3
ATOM      3  C   UNL     1       2.619   5.890  -8.165  0.00  0.00    -0.004 A 
ATOM      4  C   UNL     1       3.054   4.590  -8.382  0.00  0.00    -0.000 A 
ATOM      5  C   UNL     1       4.138   4.303  -9.195  0.00  0.00    -0.000 A 
ATOM      6  C   UNL     1       4.893   5.385  -9.628  0.00  0.00    -0.000 A 
ATOM      7  C   UNL     1       4.270   6.606  -9.796  0.00  0.00    -0.000 A 
ATOM      8  C   UNL     1       3.208   6.873  -8.950  0.00  0.00    -0.000 A 
ENDBRANCH   2   3
BRANCH   1   9
ATOM      9  C   UNL     1      -0.361   6.601  -5.962  0.00  0.00    -0.000 A 
ATOM     10  C   UNL     1      -0.674   7.491  -4.943  0.00  0.00    -0.000 A 
ATOM     11  C   UNL     1      -2.013   7.838  -4.840  0.00  0.00    -0.000 A 
ATOM     12  C   UNL     1      -2.969   6.994  -5.370  0.00  0.00    -0.000 A 
ATOM     13  C   UNL     1      -2.561   5.780  -5.898  0.00  0.00    -0.000 A 
ATOM     14  C   UNL     1      -1.209   5.507  -6.070  0.00  0.00    -0.000 A 
ENDBRANCH   1   9
BRANCH   1  18
ATOM     15  C   UNL     1       3.750   6.189  -3.232  0.00  0.00    +0.139 A 
ATOM     16  C   UNL     1       4.074   7.000  -4.310  0.00  0.00    +0.037 A 
ATOM     17  C   UNL     1       3.148   7.193  -5.327  0.00  0.00    +0.003 A 
ATOM     18  C   UNL     1       2.069   6.354  -5.453  0.00  0.00    -0.000 A 
ATOM     19  C   UNL     1       2.087   5.200  -4.682  0.00  0.00    +0.003 A 
ATOM     20  C   UNL     1       2.759   5.246  -3.478  0.00  0.00    +0.037 A 
BRANCH  15  21
ATOM     21  O   UNL     1       4.673   5.937  -2.218  0.00  0.00    -0.473 OA
BRANCH  21  22
ATOM     22  C   UNL     1       4.241   5.668  -0.905  0.00  0.00    +0.241 C 
BRANCH  22  24
ATOM     23  O   UNL     1       4.064   6.794   1.215  0.00  0.00    -0.216 OA
ATOM     24  C   UNL     1       3.831   6.921  -0.157  0.00  0.00    +0.229 C 
ENDBRANCH  22  24
ENDBRANCH  21  22
ENDBRANCH  15  21
ENDBRANCH   1  18
BRANCH   2  25
ATOM     25  C   UNL     1       0.158   5.528  -8.523  0.00  0.00    +0.044 C 
BRANCH  25  26
ATOM     26  C   UNL     1       0.171   6.203  -9.889  0.00  0.00    +0.100 C 
ATOM     27 CL   UNL     1       0.562   4.987 -11.141  0.00  0.00    -0.113 Cl
ENDBRANCH  25  26
ENDBRANCH   2  25
TORSDOF 8
ENDMDL
MODEL 6
REMARK VINA RESULT:      -7.9      4.272      7.252
REMARK  Name = 
REMARK  8 active torsions:
REMARK  status: ('A' for Active; 'I' for Inactive)
REMARK    1  A    between atoms: C_2  and  C_3
REMARK    2  A    between atoms: C_3  and  O_4
REMARK    3  A    between atoms: O_4  and  C_5
REMARK    4  A    between atoms: C_8  and  C_9
REMARK    5  A    between atoms: C_9  and  C_20
REMARK    6  A    between atoms: C_10  and  C_11
REMARK    7  A    between atoms: C_10  and  C_14
REMARK    8  A    between atoms: C_11  and  C_12
REMARK                            x       y       z     vdW  Elec       q    Type
REMARK                         _______ _______ _______ _____ _____    ______ ____
ROOT
ATOM      1  C   UNL     1       1.884   5.474  -5.397  0.00  0.00    -0.004 C 
ATOM      2  C   UNL     1       0.592   5.805  -5.449  0.00  0.00    -0.021 C 
ENDROOT
BRANCH   2   3
ATOM      3  C   UNL     1      -0.094   6.310  -4.253  0.00  0.00    -0.004 A 
ATOM      4  C   UNL     1      -0.865   7.462  -4.325  0.00  0.00    -0.000 A 
ATOM      5  C   UNL     1      -1.851   7.747  -3.394  0.00  0.00    -0.000 A 
ATOM      6  C   UNL     1      -1.901   6.928  -2.273  0.00  0.00    -0.000 A 
ATOM      7  C   UNL     1      -1.488   5.616  -2.389  0.00  0.00    -0.000 A 
ATOM      8  C   UNL     1      -0.484   5.369  -3.309  0.00  0.00    -0.000 A 
ENDBRANCH   2   3
BRANCH   1   9
ATOM      9  C   UNL     1       2.588   5.142  -6.636  0.00  0.00    -0.000 A 
ATOM     10  C   UNL     1       2.448   3.870  -7.175  0.00  0.00    -0.000 A 
ATOM     11  C   UNL     1       2.750   3.754  -8.525  0.00  0.00    -0.000 A 
ATOM     12  C   UNL     1       3.574   4.693  -9.112  0.00  0.00    -0.000 A 
ATOM     13  C   UNL     1       4.153   5.662  -8.309  0.00  0.00    -0.000 A 
ATOM     14  C   UNL     1       3.756   5.805  -6.985  0.00  0.00    -0.000 A 
ENDBRANCH   1   9
BRANCH   1  18
ATOM     15  C   UNL     1       3.832   6.718  -1.852  0.00  0.00    +0.139 A 
ATOM     16  C   UNL     1       3.673   7.627  -2.888  0.00  0.00    +0.037 A 
ATOM     17  C   UNL     1       2.954   7.261  -4.019  0.00  0.00    +0.003 A 
ATOM     18  C   UNL     1       2.686   5.938  -4.274  0.00  0.00    -0.000 A 
ATOM     19  C   UNL     1       3.359   5.008  -3.494  0.00  0.00    +0.003 A 
ATOM     20  C   UNL     1       3.711   5.382  -2.213  0.00  0.00    +0.037 A 
BRANCH  15  21
ATOM     21  O   UNL     1       4.587   7.038  -0.724  0.00  0.00    -0.473 OA
BRANCH  21  22
ATOM     22  C   UNL     1       3.980   7.622   0.404  0.00  0.00    +0.241 C 
BRANCH  22  24
ATOM     23  O   UNL     1       4.389   6.952   2.679  0.00  0.00    -0.216 OA
ATOM     24  C   UNL     1       4.907   7.677   1.602  0.00  0.00    +0.229 C 
ENDBRANCH  22  24
ENDBRANCH  21  22
ENDBRANCH  15  21
ENDBRANCH   1  18
BRANCH   2  25
ATOM     25  C   UNL     1      -0.063   6.112  -6.758  0.00  0.00    +0.044 C 
BRANCH  25  26
ATOM     26  C   UNL     1      -1.101   5.028  -7.020  0.00  0.00    +0.100 C 
ATOM     27 CL   UNL     1      -2.709   5.622  -6.508  0.00  0.00    -0.113 Cl
ENDBRANCH  25  26
ENDBRANCH   2  25
TORSDOF 8
ENDMDL
MODEL 7
REMARK VINA RESULT:      -7.8      2.769      5.726
REMARK  Name = 
REMARK  8 active torsions:
REMARK  status: ('A' for Active; 'I' for Inactive)
REMARK    1  A    between atoms: C_2  and  C_3
REMARK    2  A    between atoms: C_3  and  O_4
REMARK    3  A    between atoms: O_4  and  C_5
REMARK    4  A    between atoms: C_8  and  C_9
REMARK    5  A    between atoms: C_9  and  C_20
REMARK    6  A    between atoms: C_10  and  C_11
REMARK    7  A    between atoms: C_10  and  C_14
REMARK    8  A    between atoms: C_11  and  C_12
REMARK                            x       y       z     vdW  Elec       q    Type
REMARK                         _______ _______ _______ _____ _____    ______ ____
ROOT
ATOM      1  C   UNL     1       2.136   6.690  -5.567  0.00  0.00    -0.004 C 
ATOM      2  C   UNL     1       1.032   6.773  -4.821  0.00  0.00    -0.021 C 
ENDROOT
BRANCH   2   3
ATOM      3  C   UNL     1      -0.292   6.793  -5.455  0.00  0.00    -0.004 A 
ATOM      4  C   UNL     1      -0.811   5.638  -6.024  0.00  0.00    -0.000 A 
ATOM      5  C   UNL     1      -2.169   5.471  -6.243  0.00  0.00    -0.000 A 
ATOM      6  C   UNL     1      -2.971   6.588  -6.049  0.00  0.00    -0.000 A 
ATOM      7  C   UNL     1      -2.581   7.534  -5.121  0.00  0.00    -0.000 A 
ATOM      8  C   UNL     1      -1.218   7.695  -4.946  0.00  0.00    -0.000 A 
ENDBRANCH   2   3
BRANCH   1   9
ATOM      9  C   UNL     1       3.430   6.495  -4.911  0.00  0.00    -0.000 A 
ATOM     10  C   UNL     1       4.377   7.509  -4.966  0.00  0.00    -0.000 A 
ATOM     11  C   UNL     1       5.361   7.463  -3.989  0.00  0.00    -0.000 A 
ATOM     12  C   UNL     1       5.636   6.261  -3.368  0.00  0.00    -0.000 A 
ATOM     13  C   UNL     1       4.987   5.121  -3.813  0.00  0.00    -0.000 A 
ATOM     14  C   UNL     1       3.942   5.218  -4.724  0.00  0.00    -0.000 A 
ENDBRANCH   1   9
BRANCH   1  18
ATOM     15  C   UNL     1       1.316   5.543  -9.558  0.00  0.00    +0.139 A 
ATOM     16  C   UNL     1       1.939   4.637  -8.710  0.00  0.00    +0.037 A 
ATOM     17  C   UNL     1       2.130   4.966  -7.374  0.00  0.00    +0.003 A 
ATOM     18  C   UNL     1       2.019   6.269  -6.957  0.00  0.00    -0.000 A 
ATOM     19  C   UNL     1       1.947   7.235  -7.951  0.00  0.00    +0.003 A 
ATOM     20  C   UNL     1       1.384   6.871  -9.157  0.00  0.00    +0.037 A 
BRANCH  15  21
ATOM     21  O   UNL     1       1.151   5.263 -10.913  0.00  0.00    -0.473 OA
BRANCH  21  22
ATOM     22  C   UNL     1       1.622   6.157 -11.893  0.00  0.00    +0.241 C 
BRANCH  22  24
ATOM     23  O   UNL     1       3.987   6.484 -11.585  0.00  0.00    -0.216 OA
ATOM     24  C   UNL     1       3.026   5.826 -12.358  0.00  0.00    +0.229 C 
ENDBRANCH  22  24
ENDBRANCH  21  22
ENDBRANCH  15  21
ENDBRANCH   1  18
BRANCH   2  25
ATOM     25  C   UNL     1       1.061   6.394  -3.375  0.00  0.00    +0.044 C 
BRANCH  25  26
ATOM     26  C   UNL     1       0.345   5.056  -3.236  0.00  0.00    +0.100 C 
ATOM     27 CL   UNL     1      -1.166   5.295  -2.308  0.00  0.00    -0.113 Cl
ENDBRANCH  25  26
ENDBRANCH   2  25
TORSDOF 8
ENDMDL
MODEL 8
REMARK VINA RESULT:      -7.7      2.821      6.167
REMARK  Name = 
REMARK  8 active torsions:
REMARK  status: ('A' for Active; 'I' for Inactive)
REMARK    1  A    between atoms: C_2  and  C_3
REMARK    2  A    between atoms: C_3  and  O_4
REMARK    3  A    between atoms: O_4  and  C_5
REMARK    4  A    between atoms: C_8  and  C_9
REMARK    5  A    between atoms: C_9  and  C_20
REMARK    6  A    between atoms: C_10  and  C_11
REMARK    7  A    between atoms: C_10  and  C_14
REMARK    8  A    between atoms: C_11  and  C_12
REMARK                            x       y       z     vdW  Elec       q    Type
REMARK                         _______ _______ _______ _____ _____    ______ ____
ROOT
ATOM      1  C   UNL     1       2.118   6.420  -4.020  0.00  0.00    -0.004 C 
ATOM      2  C   UNL     1       0.827   6.137  -3.838  0.00  0.00    -0.021 C 
ENDROOT
BRANCH   2   3
ATOM      3  C   UNL     1      -0.104   6.156  -4.974  0.00  0.00    -0.004 A 
ATOM      4  C   UNL     1      -0.246   5.035  -5.779  0.00  0.00    -0.000 A 
ATOM      5  C   UNL     1      -1.368   4.831  -6.566  0.00  0.00    -0.000 A 
ATOM      6  C   UNL     1      -2.258   5.891  -6.664  0.00  0.00    -0.000 A 
ATOM      7  C   UNL     1      -2.369   6.768  -5.602  0.00  0.00    -0.000 A 
ATOM      8  C   UNL     1      -1.223   6.970  -4.853  0.00  0.00    -0.000 A 
ENDBRANCH   2   3
BRANCH   1   9
ATOM      9  C   UNL     1       3.057   6.224  -2.914  0.00  0.00    -0.000 A 
ATOM     10  C   UNL     1       3.868   7.279  -2.518  0.00  0.00    -0.000 A 
ATOM     11  C   UNL     1       4.384   7.190  -1.233  0.00  0.00    -0.000 A 
ATOM     12  C   UNL     1       4.480   5.950  -0.633  0.00  0.00    -0.000 A 
ATOM     13  C   UNL     1       4.150   4.827  -1.374  0.00  0.00    -0.000 A 
ATOM     14  C   UNL     1       3.548   4.960  -2.619  0.00  0.00    -0.000 A 
ENDBRANCH   1   9
BRANCH   1  18
ATOM     15  C   UNL     1       3.258   6.210  -8.091  0.00  0.00    +0.139 A 
ATOM     16  C   UNL     1       3.957   5.460  -7.155  0.00  0.00    +0.037 A 
ATOM     17  C   UNL     1       3.536   5.447  -5.831  0.00  0.00    +0.003 A 
ATOM     18  C   UNL     1       2.662   6.401  -5.371  0.00  0.00    -0.000 A 
ATOM     19  C   UNL     1       2.423   7.481  -6.211  0.00  0.00    +0.003 A 
ATOM     20  C   UNL     1       2.522   7.267  -7.570  0.00  0.00    +0.037 A 
BRANCH  15  21
ATOM     21  O   UNL     1       3.682   6.283  -9.417  0.00  0.00    -0.473 OA
BRANCH  21  22
ATOM     22  C   UNL     1       4.762   5.500  -9.869  0.00  0.00    +0.241 C 
BRANCH  22  24
ATOM     23  O   UNL     1       5.350   7.625 -10.832  0.00  0.00    -0.216 OA
ATOM     24  C   UNL     1       5.764   6.299 -10.677  0.00  0.00    +0.229 C 
ENDBRANCH  22  24
ENDBRANCH  21  22
ENDBRANCH  15  21
ENDBRANCH   1  18
BRANCH   2  25
ATOM     25  C   UNL     1       0.379   5.369  -2.636  0.00  0.00    +0.044 C 
BRANCH  25  26
ATOM     26  C   UNL     1      -0.224   6.363  -1.652  0.00  0.00    +0.100 C 
ATOM     27 CL   UNL     1       0.781   6.406  -0.173  0.00  0.00    -0.113 Cl
ENDBRANCH  25  26
ENDBRANCH   2  25
TORSDOF 8
ENDMDL
MODEL 9
REMARK VINA RESULT:      -7.7      3.678      7.037
REMARK  Name = 
REMARK  8 active torsions:
REMARK  status: ('A' for Active; 'I' for Inactive)
REMARK    1  A    between atoms: C_2  and  C_3
REMARK    2  A    between atoms: C_3  and  O_4
REMARK    3  A    between atoms: O_4  and  C_5
REMARK    4  A    between atoms: C_8  and  C_9
REMARK    5  A    between atoms: C_9  and  C_20
REMARK    6  A    between atoms: C_10  and  C_11
REMARK    7  A    between atoms: C_10  and  C_14
REMARK    8  A    between atoms: C_11  and  C_12
REMARK                            x       y       z     vdW  Elec       q    Type
REMARK                         _______ _______ _______ _____ _____    ______ ____
ROOT
ATOM      1  C   UNL     1       1.817   6.365  -3.357  0.00  0.00    -0.004 C 
ATOM      2  C   UNL     1       0.552   6.343  -2.933  0.00  0.00    -0.021 C 
ENDROOT
BRANCH   2   3
ATOM      3  C   UNL     1      -0.554   6.319  -3.899  0.00  0.00    -0.004 A 
ATOM      4  C   UNL     1      -1.546   5.353  -3.799  0.00  0.00    -0.000 A 
ATOM      5  C   UNL     1      -2.796   5.519  -4.375  0.00  0.00    -0.000 A 
ATOM      6  C   UNL     1      -2.948   6.608  -5.223  0.00  0.00    -0.000 A 
ATOM      7  C   UNL     1      -2.190   7.740  -4.996  0.00  0.00    -0.000 A 
ATOM      8  C   UNL     1      -0.937   7.537  -4.445  0.00  0.00    -0.000 A 
ENDBRANCH   2   3
BRANCH   1   9
ATOM      9  C   UNL     1       2.901   6.211  -2.386  0.00  0.00    -0.000 A 
ATOM     10  C   UNL     1       3.641   7.327  -2.014  0.00  0.00    -0.000 A 
ATOM     11  C   UNL     1       4.319   7.221  -0.808  0.00  0.00    -0.000 A 
ATOM     12  C   UNL     1       4.617   5.967  -0.312  0.00  0.00    -0.000 A 
ATOM     13  C   UNL     1       4.316   4.859  -1.087  0.00  0.00    -0.000 A 
ATOM     14  C   UNL     1       3.554   4.995  -2.241  0.00  0.00    -0.000 A 
ENDBRANCH   1   9
BRANCH   1  18
ATOM     15  C   UNL     1       2.240   5.581  -7.495  0.00  0.00    +0.139 A 
ATOM     16  C   UNL     1       2.167   4.514  -6.611  0.00  0.00    +0.037 A 
ATOM     17  C   UNL     1       1.934   4.754  -5.262  0.00  0.00    +0.003 A 
ATOM     18  C   UNL     1       2.104   6.013  -4.742  0.00  0.00    -0.000 A 
ATOM     19  C   UNL     1       2.731   6.943  -5.559  0.00  0.00    +0.003 A 
ATOM     20  C   UNL     1       2.579   6.800  -6.923  0.00  0.00    +0.037 A 
BRANCH  15  21
ATOM     21  O   UNL     1       2.518   5.378  -8.846  0.00  0.00    -0.473 OA
BRANCH  21  22
ATOM     22  C   UNL     1       1.557   4.801  -9.698  0.00  0.00    +0.241 C 
BRANCH  22  24
ATOM     23  O   UNL     1       0.617   6.919 -10.347  0.00  0.00    -0.216 OA
ATOM     24  C   UNL     1       0.313   5.655  -9.836  0.00  0.00    +0.229 C 
ENDBRANCH  22  24
ENDBRANCH  21  22
ENDBRANCH  15  21
ENDBRANCH   1  18
BRANCH   2  25
ATOM     25  C   UNL     1       0.222   5.889  -1.547  0.00  0.00    +0.044 C 
BRANCH  25  26
ATOM     26  C   UNL     1      -0.248   7.107  -0.763  0.00  0.00    +0.100 C 
ATOM     27 CL   UNL     1      -2.037   7.135  -0.741  0.00  0.00    -0.113 Cl
ENDBRANCH  25  26
ENDBRANCH   2  25
TORSDOF 8
ENDMDL
