MODEL 1
REMARK VINA RESULT:      -7.0      0.000      0.000
REMARK  Name = 
REMARK  23 active torsions:
REMARK  status: ('A' for Active; 'I' for Inactive)
REMARK    1  A    between atoms: C_2  and  C_3
REMARK    2  A    between atoms: C_3  and  C_4
REMARK    3  A    between atoms: C_4  and  C_5
REMARK    4  A    between atoms: C_5  and  C_6
REMARK    5  A    between atoms: C_6  and  C_7
REMARK    6  A    between atoms: C_7  and  C_8
REMARK    7  A    between atoms: C_8  and  C_9
REMARK    8  A    between atoms: C_9  and  C_10
REMARK    9  A    between atoms: C_10  and  C_11
REMARK   10  A    between atoms: C_11  and  C_12
REMARK   11  A    between atoms: C_12  and  C_13
REMARK   12  A    between atoms: C_12  and  O_25
REMARK   13  A    between atoms: C_13  and  C_14
REMARK   14  A    between atoms: C_18  and  C_19
REMARK   15  A    between atoms: C_19  and  C_20
REMARK   16  A    between atoms: C_20  and  C_21
REMARK   17  A    between atoms: C_21  and  C_22
REMARK   18  A    between atoms: C_22  and  C_23
REMARK   19  A    between atoms: O_25  and  C_26
REMARK   20  A    between atoms: C_26  and  C_28
REMARK   21  A    between atoms: C_28  and  C_29
REMARK   22  A    between atoms: C_28  and  N_33
REMARK   23  A    between atoms: C_29  and  C_30
REMARK                            x       y       z     vdW  Elec       q    Type
REMARK                         _______ _______ _______ _____ _____    ______ ____
ROOT
ATOM      1  C   UNL     1       1.387   6.534  -8.220  0.00  0.00    +0.173 C 
ENDROOT
BRANCH   1   2
ATOM      2  C   UNL     1       0.044   5.583  -8.152  0.00  0.00    +0.044 C 
BRANCH   2   3
ATOM      3  C   UNL     1      -0.351   5.438  -6.722  0.00  0.00    +0.004 C 
BRANCH   3   4
ATOM      4  C   UNL     1      -1.879   5.378  -6.757  0.00  0.00    +0.000 C 
BRANCH   4   5
ATOM      5  C   UNL     1      -2.274   5.780  -5.336  0.00  0.00    +0.000 C 
BRANCH   5   6
ATOM      6  C   UNL     1      -1.475   7.056  -5.089  0.00  0.00    +0.000 C 
BRANCH   6   7
ATOM      7  C   UNL     1      -2.071   7.689  -3.840  0.00  0.00    +0.000 C 
BRANCH   7   8
ATOM      8  C   UNL     1      -2.978   6.741  -3.111  0.00  0.00    +0.000 C 
BRANCH   8   9
ATOM      9  C   UNL     1      -2.612   6.778  -1.638  0.00  0.00    +0.000 C 
BRANCH   9  10
ATOM     10  C   UNL     1      -1.111   6.852  -1.516  0.00  0.00    +0.000 C 
BRANCH  10  12
ATOM     11  C   UNL     1       0.419   5.189  -2.546  0.00  0.00    +0.000 C 
ATOM     12  C   UNL     1      -0.590   5.423  -1.451  0.00  0.00    +0.000 C 
ENDBRANCH  10  12
ENDBRANCH   9  10
ENDBRANCH   8   9
ENDBRANCH   7   8
ENDBRANCH   6   7
ENDBRANCH   5   6
ENDBRANCH   4   5
ENDBRANCH   3   4
ENDBRANCH   2   3
ENDBRANCH   1   2
BRANCH   1  13
ATOM     13  O   UNL     1       2.160   5.518  -9.075  0.00  0.00    -0.451 OA
BRANCH  13  14
ATOM     14  C   UNL     1       2.535   5.870 -10.307  0.00  0.00    +0.337 C 
ATOM     15  O   UNL     1       1.743   6.331 -11.168  0.00  0.00    -0.248 OA
BRANCH  14  16
ATOM     16  C   UNL     1       3.960   5.391 -10.889  0.00  0.00    +0.194 C 
BRANCH  16  17
ATOM     17  N   UNL     1       3.750   6.072 -12.293  0.00  0.00    -0.188 NA
ATOM     18  C   UNL     1       4.305   5.594 -13.441  0.00  0.00    +0.321 C 
ATOM     19  O   UNL     1       4.902   4.505 -13.453  0.00  0.00    -0.263 OA
ENDBRANCH  16  17
BRANCH  16  20
ATOM     20  C   UNL     1       4.780   6.639 -10.189  0.00  0.00    +0.033 C 
BRANCH  20  21
ATOM     21  C   UNL     1       6.206   6.368 -10.579  0.00  0.00    +0.002 C 
ATOM     22  C   UNL     1       6.958   5.799  -9.401  0.00  0.00    +0.000 C 
ATOM     23  C   UNL     1       6.825   7.669 -11.034  0.00  0.00    +0.000 C 
ENDBRANCH  20  21
ENDBRANCH  16  20
ENDBRANCH  14  16
ENDBRANCH  13  14
ENDBRANCH   1  13
BRANCH   1  24
ATOM     24  C   UNL     1       1.982   5.953  -6.802  0.00  0.00    +0.088 C 
BRANCH  24  25
ATOM     25  C   UNL     1       3.169   7.035  -6.457  0.00  0.00    +0.183 C 
ATOM     26  C   UNL     1       3.049   6.757  -4.781  0.00  0.00    +0.139 C 
ATOM     27  C   UNL     1       3.738   5.377  -5.185  0.00  0.00    +0.320 C 
ATOM     28  O   UNL     1       3.900   4.332  -4.546  0.00  0.00    -0.250 OA
ATOM     29  O   UNL     1       4.278   5.986  -6.331  0.00  0.00    -0.451 OA
BRANCH  26  30
ATOM     30  C   UNL     1       4.490   7.449  -4.479  0.00  0.00    +0.015 C 
BRANCH  30  31
ATOM     31  C   UNL     1       4.440   8.110  -3.159  0.00  0.00    +0.001 C 
BRANCH  31  32
ATOM     32  C   UNL     1       5.188   7.169  -2.216  0.00  0.00    +0.000 C 
BRANCH  32  33
ATOM     33  C   UNL     1       4.466   7.226  -0.874  0.00  0.00    +0.000 C 
BRANCH  33  34
ATOM     34  C   UNL     1       3.468   6.119  -0.709  0.00  0.00    +0.000 C 
ATOM     35  C   UNL     1       4.026   4.757  -1.102  0.00  0.00    +0.000 C 
ENDBRANCH  33  34
ENDBRANCH  32  33
ENDBRANCH  31  32
ENDBRANCH  30  31
ENDBRANCH  26  30
ENDBRANCH  24  25
ENDBRANCH   1  24
TORSDOF 23
ENDMDL
MODEL 2
REMARK VINA RESULT:      -6.7      2.062      6.582
REMARK  Name = 
REMARK  23 active torsions:
REMARK  status: ('A' for Active; 'I' for Inactive)
REMARK    1  A    between atoms: C_2  and  C_3
REMARK    2  A    between atoms: C_3  and  C_4
REMARK    3  A    between atoms: C_4  and  C_5
REMARK    4  A    between atoms: C_5  and  C_6
REMARK    5  A    between atoms: C_6  and  C_7
REMARK    6  A    between atoms: C_7  and  C_8
REMARK    7  A    between atoms: C_8  and  C_9
REMARK    8  A    between atoms: C_9  and  C_10
REMARK    9  A    between atoms: C_10  and  C_11
REMARK   10  A    between atoms: C_11  and  C_12
REMARK   11  A    between atoms: C_12  and  C_13
REMARK   12  A    between atoms: C_12  and  O_25
REMARK   13  A    between atoms: C_13  and  C_14
REMARK   14  A    between atoms: C_18  and  C_19
REMARK   15  A    between atoms: C_19  and  C_20
REMARK   16  A    between atoms: C_20  and  C_21
REMARK   17  A    between atoms: C_21  and  C_22
REMARK   18  A    between atoms: C_22  and  C_23
REMARK   19  A    between atoms: O_25  and  C_26
REMARK   20  A    between atoms: C_26  and  C_28
REMARK   21  A    between atoms: C_28  and  C_29
REMARK   22  A    between atoms: C_28  and  N_33
REMARK   23  A    between atoms: C_29  and  C_30
REMARK                            x       y       z     vdW  Elec       q    Type
REMARK                         _______ _______ _______ _____ _____    ______ ____
ROOT
ATOM      1  C   UNL     1       2.361   4.094  -6.339  0.00  0.00    +0.173 C 
ENDROOT
BRANCH   1   2
ATOM      2  C   UNL     1       0.741   4.223  -6.070  0.00  0.00    +0.044 C 
BRANCH   2   3
ATOM      3  C   UNL     1       0.286   5.541  -6.598  0.00  0.00    +0.004 C 
BRANCH   3   4
ATOM      4  C   UNL     1      -1.204   5.340  -6.882  0.00  0.00    +0.000 C 
BRANCH   4   5
ATOM      5  C   UNL     1      -1.862   5.714  -5.554  0.00  0.00    +0.000 C 
BRANCH   5   6
ATOM      6  C   UNL     1      -1.315   7.109  -5.263  0.00  0.00    +0.000 C 
BRANCH   6   7
ATOM      7  C   UNL     1      -2.017   7.578  -3.997  0.00  0.00    +0.000 C 
BRANCH   7   8
ATOM      8  C   UNL     1      -2.961   6.540  -3.462  0.00  0.00    +0.000 C 
BRANCH   8   9
ATOM      9  C   UNL     1      -2.981   6.657  -1.949  0.00  0.00    +0.000 C 
BRANCH   9  10
ATOM     10  C   UNL     1      -1.975   7.700  -1.532  0.00  0.00    +0.000 C 
BRANCH  10  12
ATOM     11  C   UNL     1      -1.262   6.635   0.596  0.00  0.00    +0.000 C 
ATOM     12  C   UNL     1      -2.017   7.789  -0.013  0.00  0.00    +0.000 C 
ENDBRANCH  10  12
ENDBRANCH   9  10
ENDBRANCH   8   9
ENDBRANCH   7   8
ENDBRANCH   6   7
ENDBRANCH   5   6
ENDBRANCH   4   5
ENDBRANCH   3   4
ENDBRANCH   2   3
ENDBRANCH   1   2
BRANCH   1  13
ATOM     13  O   UNL     1       2.675   5.372  -5.546  0.00  0.00    -0.451 OA
BRANCH  13  14
ATOM     14  C   UNL     1       3.572   5.311  -4.560  0.00  0.00    +0.337 C 
ATOM     15  O   UNL     1       4.373   4.354  -4.408  0.00  0.00    -0.248 OA
BRANCH  14  16
ATOM     16  C   UNL     1       3.447   6.293  -3.288  0.00  0.00    +0.194 C 
BRANCH  16  17
ATOM     17  N   UNL     1       3.895   7.576  -4.082  0.00  0.00    -0.188 NA
ATOM     18  C   UNL     1       5.198   7.947  -4.222  0.00  0.00    +0.321 C 
ATOM     19  O   UNL     1       6.115   7.205  -3.834  0.00  0.00    -0.263 OA
ENDBRANCH  16  17
BRANCH  16  20
ATOM     20  C   UNL     1       1.823   6.504  -3.481  0.00  0.00    +0.033 C 
BRANCH  20  21
ATOM     21  C   UNL     1       1.268   6.111  -2.140  0.00  0.00    +0.002 C 
ATOM     22  C   UNL     1       2.395   5.711  -1.220  0.00  0.00    +0.000 C 
ATOM     23  C   UNL     1       0.308   4.962  -2.347  0.00  0.00    +0.000 C 
ENDBRANCH  20  21
ENDBRANCH  16  20
ENDBRANCH  14  16
ENDBRANCH  13  14
ENDBRANCH   1  13
BRANCH   1  24
ATOM     24  C   UNL     1       2.277   4.880  -7.780  0.00  0.00    +0.088 C 
BRANCH  24  25
ATOM     25  C   UNL     1       3.724   5.657  -7.835  0.00  0.00    +0.183 C 
ATOM     26  C   UNL     1       4.112   5.001  -9.357  0.00  0.00    +0.139 C 
ATOM     27  C   UNL     1       2.984   6.020  -9.837  0.00  0.00    +0.320 C 
ATOM     28  O   UNL     1       2.390   6.126 -10.915  0.00  0.00    -0.250 OA
ATOM     29  O   UNL     1       3.225   6.815  -8.703  0.00  0.00    -0.451 OA
BRANCH  26  30
ATOM     30  C   UNL     1       5.287   6.094  -9.621  0.00  0.00    +0.015 C 
BRANCH  30  31
ATOM     31  C   UNL     1       6.601   5.429  -9.496  0.00  0.00    +0.001 C 
BRANCH  31  32
ATOM     32  C   UNL     1       7.628   6.526  -9.771  0.00  0.00    +0.000 C 
BRANCH  32  33
ATOM     33  C   UNL     1       7.506   6.882 -11.249  0.00  0.00    +0.000 C 
BRANCH  33  34
ATOM     34  C   UNL     1       8.274   5.947 -12.133  0.00  0.00    +0.000 C 
ATOM     35  C   UNL     1       7.458   5.452 -13.320  0.00  0.00    +0.000 C 
ENDBRANCH  33  34
ENDBRANCH  32  33
ENDBRANCH  31  32
ENDBRANCH  30  31
ENDBRANCH  26  30
ENDBRANCH  24  25
ENDBRANCH   1  24
TORSDOF 23
ENDMDL
MODEL 3
REMARK VINA RESULT:      -6.7      2.541      6.585
REMARK  Name = 
REMARK  23 active torsions:
REMARK  status: ('A' for Active; 'I' for Inactive)
REMARK    1  A    between atoms: C_2  and  C_3
REMARK    2  A    between atoms: C_3  and  C_4
REMARK    3  A    between atoms: C_4  and  C_5
REMARK    4  A    between atoms: C_5  and  C_6
REMARK    5  A    between atoms: C_6  and  C_7
REMARK    6  A    between atoms: C_7  and  C_8
REMARK    7  A    between atoms: C_8  and  C_9
REMARK    8  A    between atoms: C_9  and  C_10
REMARK    9  A    between atoms: C_10  and  C_11
REMARK   10  A    between atoms: C_11  and  C_12
REMARK   11  A    between atoms: C_12  and  C_13
REMARK   12  A    between atoms: C_12  and  O_25
REMARK   13  A    between atoms: C_13  and  C_14
REMARK   14  A    between atoms: C_18  and  C_19
REMARK   15  A    between atoms: C_19  and  C_20
REMARK   16  A    between atoms: C_20  and  C_21
REMARK   17  A    between atoms: C_21  and  C_22
REMARK   18  A    between atoms: C_22  and  C_23
REMARK   19  A    between atoms: O_25  and  C_26
REMARK   20  A    between atoms: C_26  and  C_28
REMARK   21  A    between atoms: C_28  and  C_29
REMARK   22  A    between atoms: C_28  and  N_33
REMARK   23  A    between atoms: C_29  and  C_30
REMARK                            x       y       z     vdW  Elec       q    Type
REMARK                         _______ _______ _______ _____ _____    ______ ____
ROOT
ATOM      1  C   UNL     1       1.043   4.536  -6.079  0.00  0.00    +0.173 C 
ENDROOT
BRANCH   1   2
ATOM      2  C   UNL     1      -0.587   4.645  -5.868  0.00  0.00    +0.044 C 
BRANCH   2   3
ATOM      3  C   UNL     1      -1.154   5.407  -7.016  0.00  0.00    +0.004 C 
BRANCH   3   4
ATOM      4  C   UNL     1      -2.534   5.853  -6.529  0.00  0.00    +0.000 C 
BRANCH   4   5
ATOM      5  C   UNL     1      -2.332   6.017  -5.022  0.00  0.00    +0.000 C 
BRANCH   5   6
ATOM      6  C   UNL     1      -2.277   7.530  -4.830  0.00  0.00    +0.000 C 
BRANCH   6   7
ATOM      7  C   UNL     1      -2.158   7.757  -3.330  0.00  0.00    +0.000 C 
BRANCH   7   8
ATOM      8  C   UNL     1      -2.996   6.786  -2.548  0.00  0.00    +0.000 C 
BRANCH   8   9
ATOM      9  C   UNL     1      -2.236   6.418  -1.287  0.00  0.00    +0.000 C 
BRANCH   9  10
ATOM     10  C   UNL     1      -1.607   7.666  -0.721  0.00  0.00    +0.000 C 
BRANCH  10  12
ATOM     11  C   UNL     1      -2.116   8.794   1.433  0.00  0.00    +0.000 C 
ATOM     12  C   UNL     1      -1.607   7.527   0.795  0.00  0.00    +0.000 C 
ENDBRANCH  10  12
ENDBRANCH   9  10
ENDBRANCH   8   9
ENDBRANCH   7   8
ENDBRANCH   6   7
ENDBRANCH   5   6
ENDBRANCH   4   5
ENDBRANCH   3   4
ENDBRANCH   2   3
ENDBRANCH   1   2
BRANCH   1  13
ATOM     13  O   UNL     1       1.329   5.651  -5.062  0.00  0.00    -0.451 OA
BRANCH  13  14
ATOM     14  C   UNL     1       2.427   5.566  -4.308  0.00  0.00    +0.337 C 
ATOM     15  O   UNL     1       3.320   4.698  -4.479  0.00  0.00    -0.248 OA
BRANCH  14  16
ATOM     16  C   UNL     1       2.509   6.350  -2.901  0.00  0.00    +0.194 C 
BRANCH  16  17
ATOM     17  N   UNL     1       1.797   5.207  -2.087  0.00  0.00    -0.188 NA
ATOM     18  C   UNL     1       1.498   5.314  -0.762  0.00  0.00    +0.321 C 
ATOM     19  O   UNL     1       1.658   6.388  -0.159  0.00  0.00    -0.263 OA
ENDBRANCH  16  17
BRANCH  16  20
ATOM     20  C   UNL     1       4.057   5.863  -2.604  0.00  0.00    +0.033 C 
BRANCH  20  21
ATOM     21  C   UNL     1       4.808   7.161  -2.509  0.00  0.00    +0.002 C 
ATOM     22  C   UNL     1       3.846   8.287  -2.222  0.00  0.00    +0.000 C 
ATOM     23  C   UNL     1       5.526   7.386  -3.819  0.00  0.00    +0.000 C 
ENDBRANCH  20  21
ENDBRANCH  16  20
ENDBRANCH  14  16
ENDBRANCH  13  14
ENDBRANCH   1  13
BRANCH   1  24
ATOM     24  C   UNL     1       1.037   5.563  -7.363  0.00  0.00    +0.088 C 
BRANCH  24  25
ATOM     25  C   UNL     1       2.492   5.252  -8.060  0.00  0.00    +0.183 C 
ATOM     26  C   UNL     1       2.245   6.411  -9.283  0.00  0.00    +0.139 C 
ATOM     27  C   UNL     1       2.483   7.418  -8.071  0.00  0.00    +0.320 C 
ATOM     28  O   UNL     1       2.293   8.635  -7.977  0.00  0.00    -0.250 OA
ATOM     29  O   UNL     1       3.216   6.427  -7.396  0.00  0.00    -0.451 OA
BRANCH  26  30
ATOM     30  C   UNL     1       3.821   6.441  -9.687  0.00  0.00    +0.015 C 
BRANCH  30  31
ATOM     31  C   UNL     1       3.941   6.546 -11.155  0.00  0.00    +0.001 C 
BRANCH  31  32
ATOM     32  C   UNL     1       5.399   6.205 -11.459  0.00  0.00    +0.000 C 
BRANCH  32  33
ATOM     33  C   UNL     1       6.220   7.445 -11.122  0.00  0.00    +0.000 C 
BRANCH  33  34
ATOM     34  C   UNL     1       7.515   7.113 -10.442  0.00  0.00    +0.000 C 
ATOM     35  C   UNL     1       7.460   5.797  -9.677  0.00  0.00    +0.000 C 
ENDBRANCH  33  34
ENDBRANCH  32  33
ENDBRANCH  31  32
ENDBRANCH  30  31
ENDBRANCH  26  30
ENDBRANCH  24  25
ENDBRANCH   1  24
TORSDOF 23
ENDMDL
MODEL 4
REMARK VINA RESULT:      -6.7      1.359      2.426
REMARK  Name = 
REMARK  23 active torsions:
REMARK  status: ('A' for Active; 'I' for Inactive)
REMARK    1  A    between atoms: C_2  and  C_3
REMARK    2  A    between atoms: C_3  and  C_4
REMARK    3  A    between atoms: C_4  and  C_5
REMARK    4  A    between atoms: C_5  and  C_6
REMARK    5  A    between atoms: C_6  and  C_7
REMARK    6  A    between atoms: C_7  and  C_8
REMARK    7  A    between atoms: C_8  and  C_9
REMARK    8  A    between atoms: C_9  and  C_10
REMARK    9  A    between atoms: C_10  and  C_11
REMARK   10  A    between atoms: C_11  and  C_12
REMARK   11  A    between atoms: C_12  and  C_13
REMARK   12  A    between atoms: C_12  and  O_25
REMARK   13  A    between atoms: C_13  and  C_14
REMARK   14  A    between atoms: C_18  and  C_19
REMARK   15  A    between atoms: C_19  and  C_20
REMARK   16  A    between atoms: C_20  and  C_21
REMARK   17  A    between atoms: C_21  and  C_22
REMARK   18  A    between atoms: C_22  and  C_23
REMARK   19  A    between atoms: O_25  and  C_26
REMARK   20  A    between atoms: C_26  and  C_28
REMARK   21  A    between atoms: C_28  and  C_29
REMARK   22  A    between atoms: C_28  and  N_33
REMARK   23  A    between atoms: C_29  and  C_30
REMARK                            x       y       z     vdW  Elec       q    Type
REMARK                         _______ _______ _______ _____ _____    ______ ____
ROOT
ATOM      1  C   UNL     1       3.501   6.934  -8.949  0.00  0.00    +0.173 C 
ENDROOT
BRANCH   1   2
ATOM      2  C   UNL     1       1.876   6.682  -9.037  0.00  0.00    +0.044 C 
BRANCH   2   3
ATOM      3  C   UNL     1       1.636   5.212  -9.100  0.00  0.00    +0.004 C 
BRANCH   3   4
ATOM      4  C   UNL     1       0.126   5.084  -9.310  0.00  0.00    +0.000 C 
BRANCH   4   5
ATOM      5  C   UNL     1      -0.454   5.906  -8.159  0.00  0.00    +0.000 C 
BRANCH   5   6
ATOM      6  C   UNL     1      -0.721   4.867  -7.075  0.00  0.00    +0.000 C 
BRANCH   6   7
ATOM      7  C   UNL     1      -1.146   5.650  -5.841  0.00  0.00    +0.000 C 
BRANCH   7   8
ATOM      8  C   UNL     1      -2.519   6.238  -5.995  0.00  0.00    +0.000 C 
BRANCH   8   9
ATOM      9  C   UNL     1      -2.612   7.460  -5.100  0.00  0.00    +0.000 C 
BRANCH   9  10
ATOM     10  C   UNL     1      -1.673   7.275  -3.934  0.00  0.00    +0.000 C 
BRANCH  10  12
ATOM     11  C   UNL     1      -2.444   5.663  -2.208  0.00  0.00    +0.000 C 
ATOM     12  C   UNL     1      -2.528   7.090  -2.688  0.00  0.00    +0.000 C 
ENDBRANCH  10  12
ENDBRANCH   9  10
ENDBRANCH   8   9
ENDBRANCH   7   8
ENDBRANCH   6   7
ENDBRANCH   5   6
ENDBRANCH   4   5
ENDBRANCH   3   4
ENDBRANCH   2   3
ENDBRANCH   1   2
BRANCH   1  13
ATOM     13  O   UNL     1       3.815   5.748  -9.873  0.00  0.00    -0.451 OA
BRANCH  13  14
ATOM     14  C   UNL     1       4.206   5.996 -11.125  0.00  0.00    +0.337 C 
ATOM     15  O   UNL     1       3.407   6.225 -12.068  0.00  0.00    -0.248 OA
BRANCH  14  16
ATOM     16  C   UNL     1       5.715   5.665 -11.585  0.00  0.00    +0.194 C 
BRANCH  16  17
ATOM     17  N   UNL     1       5.465   6.040 -13.093  0.00  0.00    -0.188 NA
ATOM     18  C   UNL     1       6.291   5.648 -14.103  0.00  0.00    +0.321 C 
ATOM     19  O   UNL     1       7.220   4.852 -13.891  0.00  0.00    -0.263 OA
ENDBRANCH  16  17
BRANCH  16  20
ATOM     20  C   UNL     1       6.290   7.138 -11.113  0.00  0.00    +0.033 C 
BRANCH  20  21
ATOM     21  C   UNL     1       7.563   6.789 -10.393  0.00  0.00    +0.002 C 
ATOM     22  C   UNL     1       8.555   6.201 -11.366  0.00  0.00    +0.000 C 
ATOM     23  C   UNL     1       7.228   5.800  -9.300  0.00  0.00    +0.000 C 
ENDBRANCH  20  21
ENDBRANCH  16  20
ENDBRANCH  14  16
ENDBRANCH  13  14
ENDBRANCH   1  13
BRANCH   1  24
ATOM     24  C   UNL     1       3.657   6.044  -7.576  0.00  0.00    +0.088 C 
BRANCH  24  25
ATOM     25  C   UNL     1       2.862   6.968  -6.473  0.00  0.00    +0.183 C 
ATOM     26  C   UNL     1       2.524   5.631  -5.475  0.00  0.00    +0.139 C 
ATOM     27  C   UNL     1       4.086   5.738  -5.177  0.00  0.00    +0.320 C 
ATOM     28  O   UNL     1       4.862   4.957  -4.616  0.00  0.00    -0.250 OA
ATOM     29  O   UNL     1       4.054   7.100  -5.521  0.00  0.00    -0.451 OA
BRANCH  26  30
ATOM     30  C   UNL     1       2.162   6.571  -4.198  0.00  0.00    +0.015 C 
BRANCH  30  31
ATOM     31  C   UNL     1       1.419   5.770  -3.204  0.00  0.00    +0.001 C 
BRANCH  31  32
ATOM     32  C   UNL     1       2.044   6.129  -1.857  0.00  0.00    +0.000 C 
BRANCH  32  33
ATOM     33  C   UNL     1       2.902   4.939  -1.440  0.00  0.00    +0.000 C 
BRANCH  33  34
ATOM     34  C   UNL     1       4.259   5.349  -0.953  0.00  0.00    +0.000 C 
ATOM     35  C   UNL     1       4.450   6.860  -0.938  0.00  0.00    +0.000 C 
ENDBRANCH  33  34
ENDBRANCH  32  33
ENDBRANCH  31  32
ENDBRANCH  30  31
ENDBRANCH  26  30
ENDBRANCH  24  25
ENDBRANCH   1  24
TORSDOF 23
ENDMDL
MODEL 5
REMARK VINA RESULT:      -6.6      2.239      5.163
REMARK  Name = 
REMARK  23 active torsions:
REMARK  status: ('A' for Active; 'I' for Inactive)
REMARK    1  A    between atoms: C_2  and  C_3
REMARK    2  A    between atoms: C_3  and  C_4
REMARK    3  A    between atoms: C_4  and  C_5
REMARK    4  A    between atoms: C_5  and  C_6
REMARK    5  A    between atoms: C_6  and  C_7
REMARK    6  A    between atoms: C_7  and  C_8
REMARK    7  A    between atoms: C_8  and  C_9
REMARK    8  A    between atoms: C_9  and  C_10
REMARK    9  A    between atoms: C_10  and  C_11
REMARK   10  A    between atoms: C_11  and  C_12
REMARK   11  A    between atoms: C_12  and  C_13
REMARK   12  A    between atoms: C_12  and  O_25
REMARK   13  A    between atoms: C_13  and  C_14
REMARK   14  A    between atoms: C_18  and  C_19
REMARK   15  A    between atoms: C_19  and  C_20
REMARK   16  A    between atoms: C_20  and  C_21
REMARK   17  A    between atoms: C_21  and  C_22
REMARK   18  A    between atoms: C_22  and  C_23
REMARK   19  A    between atoms: O_25  and  C_26
REMARK   20  A    between atoms: C_26  and  C_28
REMARK   21  A    between atoms: C_28  and  C_29
REMARK   22  A    between atoms: C_28  and  N_33
REMARK   23  A    between atoms: C_29  and  C_30
REMARK                            x       y       z     vdW  Elec       q    Type
REMARK                         _______ _______ _______ _____ _____    ______ ____
ROOT
ATOM      1  C   UNL     1       1.375   5.646  -6.127  0.00  0.00    +0.173 C 
ENDROOT
BRANCH   1   2
ATOM      2  C   UNL     1       2.075   5.371  -4.662  0.00  0.00    +0.044 C 
BRANCH   2   3
ATOM      3  C   UNL     1       3.416   4.762  -4.895  0.00  0.00    +0.004 C 
BRANCH   3   4
ATOM      4  C   UNL     1       4.304   5.379  -3.812  0.00  0.00    +0.000 C 
BRANCH   4   5
ATOM      5  C   UNL     1       5.132   6.405  -4.586  0.00  0.00    +0.000 C 
BRANCH   5   6
ATOM      6  C   UNL     1       4.733   7.736  -3.957  0.00  0.00    +0.000 C 
BRANCH   6   7
ATOM      7  C   UNL     1       4.796   7.524  -2.452  0.00  0.00    +0.000 C 
BRANCH   7   8
ATOM      8  C   UNL     1       3.843   8.423  -1.718  0.00  0.00    +0.000 C 
BRANCH   8   9
ATOM      9  C   UNL     1       3.126   7.593  -0.669  0.00  0.00    +0.000 C 
BRANCH   9  10
ATOM     10  C   UNL     1       1.976   6.872  -1.328  0.00  0.00    +0.000 C 
BRANCH  10  12
ATOM     11  C   UNL     1       0.796   4.686  -1.341  0.00  0.00    +0.000 C 
ATOM     12  C   UNL     1       2.016   5.426  -0.853  0.00  0.00    +0.000 C 
ENDBRANCH  10  12
ENDBRANCH   9  10
ENDBRANCH   8   9
ENDBRANCH   7   8
ENDBRANCH   6   7
ENDBRANCH   5   6
ENDBRANCH   4   5
ENDBRANCH   3   4
ENDBRANCH   2   3
ENDBRANCH   1   2
BRANCH   1  13
ATOM     13  O   UNL     1       2.318   6.815  -6.447  0.00  0.00    -0.451 OA
BRANCH  13  14
ATOM     14  C   UNL     1       2.371   7.272  -7.700  0.00  0.00    +0.337 C 
ATOM     15  O   UNL     1       2.152   8.470  -8.012  0.00  0.00    -0.248 OA
BRANCH  14  16
ATOM     16  C   UNL     1       2.369   6.241  -8.940  0.00  0.00    +0.194 C 
BRANCH  16  17
ATOM     17  N   UNL     1       1.393   7.111  -9.817  0.00  0.00    -0.188 NA
ATOM     18  C   UNL     1       0.369   6.578 -10.540  0.00  0.00    +0.321 C 
ATOM     19  O   UNL     1       0.074   5.376 -10.434  0.00  0.00    -0.263 OA
ENDBRANCH  16  17
BRANCH  16  20
ATOM     20  C   UNL     1       3.774   6.836  -9.569  0.00  0.00    +0.033 C 
BRANCH  20  21
ATOM     21  C   UNL     1       4.535   5.592  -9.932  0.00  0.00    +0.002 C 
ATOM     22  C   UNL     1       4.481   5.378 -11.425  0.00  0.00    +0.000 C 
ATOM     23  C   UNL     1       3.911   4.428  -9.198  0.00  0.00    +0.000 C 
ENDBRANCH  20  21
ENDBRANCH  16  20
ENDBRANCH  14  16
ENDBRANCH  13  14
ENDBRANCH   1  13
BRANCH   1  24
ATOM     24  C   UNL     1       0.212   6.619  -5.490  0.00  0.00    +0.088 C 
BRANCH  24  25
ATOM     25  C   UNL     1      -0.575   5.596  -4.473  0.00  0.00    +0.183 C 
ATOM     26  C   UNL     1      -1.317   6.876  -3.629  0.00  0.00    +0.139 C 
ATOM     27  C   UNL     1      -2.162   6.981  -4.976  0.00  0.00    +0.320 C 
ATOM     28  O   UNL     1      -2.926   7.859  -5.389  0.00  0.00    -0.250 OA
ATOM     29  O   UNL     1      -1.898   5.626  -5.243  0.00  0.00    -0.451 OA
BRANCH  26  30
ATOM     30  C   UNL     1      -2.422   5.895  -2.948  0.00  0.00    +0.015 C 
BRANCH  30  31
ATOM     31  C   UNL     1      -3.041   6.589  -1.801  0.00  0.00    +0.001 C 
BRANCH  31  32
ATOM     32  C   UNL     1      -1.880   7.258  -1.069  0.00  0.00    +0.000 C 
BRANCH  32  33
ATOM     33  C   UNL     1      -1.844   6.665   0.336  0.00  0.00    +0.000 C 
BRANCH  33  34
ATOM     34  C   UNL     1      -0.727   7.217   1.168  0.00  0.00    +0.000 C 
ATOM     35  C   UNL     1      -0.416   8.673   0.848  0.00  0.00    +0.000 C 
ENDBRANCH  33  34
ENDBRANCH  32  33
ENDBRANCH  31  32
ENDBRANCH  30  31
ENDBRANCH  26  30
ENDBRANCH  24  25
ENDBRANCH   1  24
TORSDOF 23
ENDMDL
MODEL 6
REMARK VINA RESULT:      -6.6      2.791      9.065
REMARK  Name = 
REMARK  23 active torsions:
REMARK  status: ('A' for Active; 'I' for Inactive)
REMARK    1  A    between atoms: C_2  and  C_3
REMARK    2  A    between atoms: C_3  and  C_4
REMARK    3  A    between atoms: C_4  and  C_5
REMARK    4  A    between atoms: C_5  and  C_6
REMARK    5  A    between atoms: C_6  and  C_7
REMARK    6  A    between atoms: C_7  and  C_8
REMARK    7  A    between atoms: C_8  and  C_9
REMARK    8  A    between atoms: C_9  and  C_10
REMARK    9  A    between atoms: C_10  and  C_11
REMARK   10  A    between atoms: C_11  and  C_12
REMARK   11  A    between atoms: C_12  and  C_13
REMARK   12  A    between atoms: C_12  and  O_25
REMARK   13  A    between atoms: C_13  and  C_14
REMARK   14  A    between atoms: C_18  and  C_19
REMARK   15  A    between atoms: C_19  and  C_20
REMARK   16  A    between atoms: C_20  and  C_21
REMARK   17  A    between atoms: C_21  and  C_22
REMARK   18  A    between atoms: C_22  and  C_23
REMARK   19  A    between atoms: O_25  and  C_26
REMARK   20  A    between atoms: C_26  and  C_28
REMARK   21  A    between atoms: C_28  and  C_29
REMARK   22  A    between atoms: C_28  and  N_33
REMARK   23  A    between atoms: C_29  and  C_30
REMARK                            x       y       z     vdW  Elec       q    Type
REMARK                         _______ _______ _______ _____ _____    ______ ____
ROOT
ATOM      1  C   UNL     1       3.421   7.149  -5.947  0.00  0.00    +0.173 C 
ENDROOT
BRANCH   1   2
ATOM      2  C   UNL     1       4.337   5.853  -6.386  0.00  0.00    +0.044 C 
BRANCH   2   3
ATOM      3  C   UNL     1       4.134   5.613  -7.844  0.00  0.00    +0.004 C 
BRANCH   3   4
ATOM      4  C   UNL     1       5.465   5.027  -8.318  0.00  0.00    +0.000 C 
BRANCH   4   5
ATOM      5  C   UNL     1       5.781   5.850  -9.567  0.00  0.00    +0.000 C 
BRANCH   5   6
ATOM      6  C   UNL     1       7.301   5.978  -9.539  0.00  0.00    +0.000 C 
BRANCH   6   7
ATOM      7  C   UNL     1       7.692   6.622 -10.860  0.00  0.00    +0.000 C 
BRANCH   7   8
ATOM      8  C   UNL     1       8.490   5.689 -11.725  0.00  0.00    +0.000 C 
BRANCH   8   9
ATOM      9  C   UNL     1       7.739   5.496 -13.029  0.00  0.00    +0.000 C 
BRANCH   9  10
ATOM     10  C   UNL     1       6.804   6.663 -13.224  0.00  0.00    +0.000 C 
BRANCH  10  12
ATOM     11  C   UNL     1       4.873   5.103 -13.127  0.00  0.00    +0.000 C 
ATOM     12  C   UNL     1       5.577   6.144 -13.961  0.00  0.00    +0.000 C 
ENDBRANCH  10  12
ENDBRANCH   9  10
ENDBRANCH   8   9
ENDBRANCH   7   8
ENDBRANCH   6   7
ENDBRANCH   5   6
ENDBRANCH   4   5
ENDBRANCH   3   4
ENDBRANCH   2   3
ENDBRANCH   1   2
BRANCH   1  13
ATOM     13  O   UNL     1       3.168   6.594  -4.538  0.00  0.00    -0.451 OA
BRANCH  13  14
ATOM     14  C   UNL     1       3.625   7.278  -3.487  0.00  0.00    +0.337 C 
ATOM     15  O   UNL     1       4.605   8.063  -3.543  0.00  0.00    -0.248 OA
BRANCH  14  16
ATOM     16  C   UNL     1       3.172   6.871  -1.994  0.00  0.00    +0.194 C 
BRANCH  16  17
ATOM     17  N   UNL     1       3.964   5.511  -1.996  0.00  0.00    -0.188 NA
ATOM     18  C   UNL     1       3.564   4.417  -1.290  0.00  0.00    +0.321 C 
ATOM     19  O   UNL     1       2.467   4.402  -0.709  0.00  0.00    -0.263 OA
ENDBRANCH  16  17
BRANCH  16  20
ATOM     20  C   UNL     1       4.350   7.779  -1.280  0.00  0.00    +0.033 C 
BRANCH  20  21
ATOM     21  C   UNL     1       3.609   8.493  -0.184  0.00  0.00    +0.002 C 
ATOM     22  C   UNL     1       2.234   7.894  -0.023  0.00  0.00    +0.000 C 
ATOM     23  C   UNL     1       3.519   9.956  -0.555  0.00  0.00    +0.000 C 
ENDBRANCH  20  21
ENDBRANCH  16  20
ENDBRANCH  14  16
ENDBRANCH  13  14
ENDBRANCH   1  13
BRANCH   1  24
ATOM     24  C   UNL     1       2.043   6.501  -6.566  0.00  0.00    +0.088 C 
BRANCH  24  25
ATOM     25  C   UNL     1       1.334   5.857  -5.231  0.00  0.00    +0.183 C 
ATOM     26  C   UNL     1      -0.176   6.556  -5.596  0.00  0.00    +0.139 C 
ATOM     27  C   UNL     1      -0.167   5.442  -6.736  0.00  0.00    +0.320 C 
ATOM     28  O   UNL     1      -0.886   5.290  -7.729  0.00  0.00    -0.250 OA
ATOM     29  O   UNL     1       0.715   4.665  -5.965  0.00  0.00    -0.451 OA
BRANCH  26  30
ATOM     30  C   UNL     1      -0.970   5.574  -4.569  0.00  0.00    +0.015 C 
BRANCH  30  31
ATOM     31  C   UNL     1      -2.411   5.898  -4.611  0.00  0.00    +0.001 C 
BRANCH  31  32
ATOM     32  C   UNL     1      -2.983   5.331  -3.313  0.00  0.00    +0.000 C 
BRANCH  32  33
ATOM     33  C   UNL     1      -3.494   6.517  -2.502  0.00  0.00    +0.000 C 
BRANCH  33  34
ATOM     34  C   UNL     1      -2.494   7.002  -1.496  0.00  0.00    +0.000 C 
ATOM     35  C   UNL     1      -1.670   5.874  -0.891  0.00  0.00    +0.000 C 
ENDBRANCH  33  34
ENDBRANCH  32  33
ENDBRANCH  31  32
ENDBRANCH  30  31
ENDBRANCH  26  30
ENDBRANCH  24  25
ENDBRANCH   1  24
TORSDOF 23
ENDMDL
MODEL 7
REMARK VINA RESULT:      -6.5      1.457      4.896
REMARK  Name = 
REMARK  23 active torsions:
REMARK  status: ('A' for Active; 'I' for Inactive)
REMARK    1  A    between atoms: C_2  and  C_3
REMARK    2  A    between atoms: C_3  and  C_4
REMARK    3  A    between atoms: C_4  and  C_5
REMARK    4  A    between atoms: C_5  and  C_6
REMARK    5  A    between atoms: C_6  and  C_7
REMARK    6  A    between atoms: C_7  and  C_8
REMARK    7  A    between atoms: C_8  and  C_9
REMARK    8  A    between atoms: C_9  and  C_10
REMARK    9  A    between atoms: C_10  and  C_11
REMARK   10  A    between atoms: C_11  and  C_12
REMARK   11  A    between atoms: C_12  and  C_13
REMARK   12  A    between atoms: C_12  and  O_25
REMARK   13  A    between atoms: C_13  and  C_14
REMARK   14  A    between atoms: C_18  and  C_19
REMARK   15  A    between atoms: C_19  and  C_20
REMARK   16  A    between atoms: C_20  and  C_21
REMARK   17  A    between atoms: C_21  and  C_22
REMARK   18  A    between atoms: C_22  and  C_23
REMARK   19  A    between atoms: O_25  and  C_26
REMARK   20  A    between atoms: C_26  and  C_28
REMARK   21  A    between atoms: C_28  and  C_29
REMARK   22  A    between atoms: C_28  and  N_33
REMARK   23  A    between atoms: C_29  and  C_30
REMARK                            x       y       z     vdW  Elec       q    Type
REMARK                         _______ _______ _______ _____ _____    ______ ____
ROOT
ATOM      1  C   UNL     1       3.540   4.543  -7.983  0.00  0.00    +0.173 C 
ENDROOT
BRANCH   1   2
ATOM      2  C   UNL     1       4.480   5.682  -7.253  0.00  0.00    +0.044 C 
BRANCH   2   3
ATOM      3  C   UNL     1       4.504   5.396  -5.790  0.00  0.00    +0.004 C 
BRANCH   3   4
ATOM      4  C   UNL     1       4.629   6.774  -5.138  0.00  0.00    +0.000 C 
BRANCH   4   5
ATOM      5  C   UNL     1       4.994   6.441  -3.691  0.00  0.00    +0.000 C 
BRANCH   5   6
ATOM      6  C   UNL     1       4.426   5.039  -3.492  0.00  0.00    +0.000 C 
BRANCH   6   7
ATOM      7  C   UNL     1       4.053   4.944  -2.020  0.00  0.00    +0.000 C 
BRANCH   7   8
ATOM      8  C   UNL     1       3.521   6.245  -1.492  0.00  0.00    +0.000 C 
BRANCH   8   9
ATOM      9  C   UNL     1       4.283   6.586  -0.224  0.00  0.00    +0.000 C 
BRANCH   9  10
ATOM     10  C   UNL     1       3.834   7.942   0.259  0.00  0.00    +0.000 C 
BRANCH  10  12
ATOM     11  C   UNL     1       3.527  10.273  -0.544  0.00  0.00    +0.000 C 
ATOM     12  C   UNL     1       3.687   8.834  -0.966  0.00  0.00    +0.000 C 
ENDBRANCH  10  12
ENDBRANCH   9  10
ENDBRANCH   8   9
ENDBRANCH   7   8
ENDBRANCH   6   7
ENDBRANCH   5   6
ENDBRANCH   4   5
ENDBRANCH   3   4
ENDBRANCH   2   3
ENDBRANCH   1   2
BRANCH   1  13
ATOM     13  O   UNL     1       2.756   5.591  -8.787  0.00  0.00    -0.451 OA
BRANCH  13  14
ATOM     14  C   UNL     1       2.797   5.539 -10.120  0.00  0.00    +0.337 C 
ATOM     15  O   UNL     1       1.808   5.236 -10.833  0.00  0.00    -0.248 OA
BRANCH  14  16
ATOM     16  C   UNL     1       4.215   5.514 -10.888  0.00  0.00    +0.194 C 
BRANCH  16  17
ATOM     17  N   UNL     1       3.578   5.665 -12.319  0.00  0.00    -0.188 NA
ATOM     18  C   UNL     1       4.218   5.288 -13.461  0.00  0.00    +0.321 C 
ATOM     19  O   UNL     1       5.297   4.675 -13.412  0.00  0.00    -0.263 OA
ENDBRANCH  16  17
BRANCH  16  20
ATOM     20  C   UNL     1       4.497   7.119 -10.632  0.00  0.00    +0.033 C 
BRANCH  20  21
ATOM     21  C   UNL     1       5.996   7.189 -10.545  0.00  0.00    +0.002 C 
ATOM     22  C   UNL     1       6.557   7.742 -11.832  0.00  0.00    +0.000 C 
ATOM     23  C   UNL     1       6.517   5.794 -10.286  0.00  0.00    +0.000 C 
ENDBRANCH  20  21
ENDBRANCH  16  20
ENDBRANCH  14  16
ENDBRANCH  13  14
ENDBRANCH   1  13
BRANCH   1  24
ATOM     24  C   UNL     1       2.452   4.519  -6.750  0.00  0.00    +0.088 C 
BRANCH  24  25
ATOM     25  C   UNL     1       1.268   5.507  -7.316  0.00  0.00    +0.183 C 
ATOM     26  C   UNL     1       0.064   4.725  -6.400  0.00  0.00    +0.139 C 
ATOM     27  C   UNL     1       0.802   5.472  -5.201  0.00  0.00    +0.320 C 
ATOM     28  O   UNL     1       0.709   5.333  -3.977  0.00  0.00    -0.250 OA
ATOM     29  O   UNL     1       1.277   6.441  -6.102  0.00  0.00    -0.451 OA
BRANCH  26  30
ATOM     30  C   UNL     1      -0.990   5.950  -6.586  0.00  0.00    +0.015 C 
BRANCH  30  31
ATOM     31  C   UNL     1      -2.333   5.499  -6.167  0.00  0.00    +0.001 C 
BRANCH  31  32
ATOM     32  C   UNL     1      -2.694   6.381  -4.974  0.00  0.00    +0.000 C 
BRANCH  32  33
ATOM     33  C   UNL     1      -2.932   5.447  -3.792  0.00  0.00    +0.000 C 
BRANCH  33  34
ATOM     34  C   UNL     1      -3.153   6.187  -2.507  0.00  0.00    +0.000 C 
ATOM     35  C   UNL     1      -2.117   7.277  -2.266  0.00  0.00    +0.000 C 
ENDBRANCH  33  34
ENDBRANCH  32  33
ENDBRANCH  31  32
ENDBRANCH  30  31
ENDBRANCH  26  30
ENDBRANCH  24  25
ENDBRANCH   1  24
TORSDOF 23
ENDMDL
MODEL 8
REMARK VINA RESULT:      -6.5      1.679      2.556
REMARK  Name = 
REMARK  23 active torsions:
REMARK  status: ('A' for Active; 'I' for Inactive)
REMARK    1  A    between atoms: C_2  and  C_3
REMARK    2  A    between atoms: C_3  and  C_4
REMARK    3  A    between atoms: C_4  and  C_5
REMARK    4  A    between atoms: C_5  and  C_6
REMARK    5  A    between atoms: C_6  and  C_7
REMARK    6  A    between atoms: C_7  and  C_8
REMARK    7  A    between atoms: C_8  and  C_9
REMARK    8  A    between atoms: C_9  and  C_10
REMARK    9  A    between atoms: C_10  and  C_11
REMARK   10  A    between atoms: C_11  and  C_12
REMARK   11  A    between atoms: C_12  and  C_13
REMARK   12  A    between atoms: C_12  and  O_25
REMARK   13  A    between atoms: C_13  and  C_14
REMARK   14  A    between atoms: C_18  and  C_19
REMARK   15  A    between atoms: C_19  and  C_20
REMARK   16  A    between atoms: C_20  and  C_21
REMARK   17  A    between atoms: C_21  and  C_22
REMARK   18  A    between atoms: C_22  and  C_23
REMARK   19  A    between atoms: O_25  and  C_26
REMARK   20  A    between atoms: C_26  and  C_28
REMARK   21  A    between atoms: C_28  and  C_29
REMARK   22  A    between atoms: C_28  and  N_33
REMARK   23  A    between atoms: C_29  and  C_30
REMARK                            x       y       z     vdW  Elec       q    Type
REMARK                         _______ _______ _______ _____ _____    ______ ____
ROOT
ATOM      1  C   UNL     1       0.360   6.211  -6.585  0.00  0.00    +0.173 C 
ENDROOT
BRANCH   1   2
ATOM      2  C   UNL     1      -0.882   5.130  -6.616  0.00  0.00    +0.044 C 
BRANCH   2   3
ATOM      3  C   UNL     1      -2.160   5.888  -6.499  0.00  0.00    +0.004 C 
BRANCH   3   4
ATOM      4  C   UNL     1      -2.374   6.036  -4.991  0.00  0.00    +0.000 C 
BRANCH   4   5
ATOM      5  C   UNL     1      -2.425   7.551  -4.796  0.00  0.00    +0.000 C 
BRANCH   5   6
ATOM      6  C   UNL     1      -2.070   7.736  -3.324  0.00  0.00    +0.000 C 
BRANCH   6   7
ATOM      7  C   UNL     1      -2.766   6.604  -2.581  0.00  0.00    +0.000 C 
BRANCH   7   8
ATOM      8  C   UNL     1      -2.068   6.266  -1.295  0.00  0.00    +0.000 C 
BRANCH   8   9
ATOM      9  C   UNL     1      -0.828   5.457  -1.630  0.00  0.00    +0.000 C 
BRANCH   9  10
ATOM     10  C   UNL     1       0.282   5.867  -0.696  0.00  0.00    +0.000 C 
BRANCH  10  12
ATOM     11  C   UNL     1       0.679   7.498   1.136  0.00  0.00    +0.000 C 
ATOM     12  C   UNL     1      -0.071   7.242  -0.146  0.00  0.00    +0.000 C 
ENDBRANCH  10  12
ENDBRANCH   9  10
ENDBRANCH   8   9
ENDBRANCH   7   8
ENDBRANCH   6   7
ENDBRANCH   5   6
ENDBRANCH   4   5
ENDBRANCH   3   4
ENDBRANCH   2   3
ENDBRANCH   1   2
BRANCH   1  13
ATOM     13  O   UNL     1       1.093   5.522  -7.746  0.00  0.00    -0.451 OA
BRANCH  13  14
ATOM     14  C   UNL     1       1.877   6.258  -8.537  0.00  0.00    +0.337 C 
ATOM     15  O   UNL     1       1.853   7.514  -8.563  0.00  0.00    -0.248 OA
BRANCH  14  16
ATOM     16  C   UNL     1       2.655   5.574  -9.772  0.00  0.00    +0.194 C 
BRANCH  16  17
ATOM     17  N   UNL     1       1.769   6.268 -10.872  0.00  0.00    -0.188 NA
ATOM     18  C   UNL     1       0.714   5.652 -11.474  0.00  0.00    +0.321 C 
ATOM     19  O   UNL     1       0.316   4.544 -11.081  0.00  0.00    -0.263 OA
ENDBRANCH  16  17
BRANCH  16  20
ATOM     20  C   UNL     1       3.866   6.695  -9.763  0.00  0.00    +0.033 C 
BRANCH  20  21
ATOM     21  C   UNL     1       5.105   5.857  -9.910  0.00  0.00    +0.002 C 
ATOM     22  C   UNL     1       5.513   5.310  -8.565  0.00  0.00    +0.000 C 
ATOM     23  C   UNL     1       6.194   6.728 -10.492  0.00  0.00    +0.000 C 
ENDBRANCH  20  21
ENDBRANCH  16  20
ENDBRANCH  14  16
ENDBRANCH  13  14
ENDBRANCH   1  13
BRANCH   1  24
ATOM     24  C   UNL     1       1.180   5.375  -5.431  0.00  0.00    +0.088 C 
BRANCH  24  25
ATOM     25  C   UNL     1       1.558   6.556  -4.353  0.00  0.00    +0.183 C 
ATOM     26  C   UNL     1       2.598   5.534  -3.473  0.00  0.00    +0.139 C 
ATOM     27  C   UNL     1       3.517   5.727  -4.761  0.00  0.00    +0.320 C 
ATOM     28  O   UNL     1       4.533   5.130  -5.131  0.00  0.00    -0.250 OA
ATOM     29  O   UNL     1       2.873   6.947  -5.033  0.00  0.00    -0.451 OA
BRANCH  26  30
ATOM     30  C   UNL     1       3.313   6.780  -2.710  0.00  0.00    +0.015 C 
BRANCH  30  31
ATOM     31  C   UNL     1       3.910   6.295  -1.449  0.00  0.00    +0.001 C 
BRANCH  31  32
ATOM     32  C   UNL     1       4.502   7.538  -0.788  0.00  0.00    +0.000 C 
BRANCH  32  33
ATOM     33  C   UNL     1       3.652   8.722  -1.235  0.00  0.00    +0.000 C 
BRANCH  33  34
ATOM     34  C   UNL     1       3.389   9.696  -0.126  0.00  0.00    +0.000 C 
ATOM     35  C   UNL     1       3.471  11.147  -0.582  0.00  0.00    +0.000 C 
ENDBRANCH  33  34
ENDBRANCH  32  33
ENDBRANCH  31  32
ENDBRANCH  30  31
ENDBRANCH  26  30
ENDBRANCH  24  25
ENDBRANCH   1  24
TORSDOF 23
ENDMDL
MODEL 9
REMARK VINA RESULT:      -6.5      1.278      1.838
REMARK  Name = 
REMARK  23 active torsions:
REMARK  status: ('A' for Active; 'I' for Inactive)
REMARK    1  A    between atoms: C_2  and  C_3
REMARK    2  A    between atoms: C_3  and  C_4
REMARK    3  A    between atoms: C_4  and  C_5
REMARK    4  A    between atoms: C_5  and  C_6
REMARK    5  A    between atoms: C_6  and  C_7
REMARK    6  A    between atoms: C_7  and  C_8
REMARK    7  A    between atoms: C_8  and  C_9
REMARK    8  A    between atoms: C_9  and  C_10
REMARK    9  A    between atoms: C_10  and  C_11
REMARK   10  A    between atoms: C_11  and  C_12
REMARK   11  A    between atoms: C_12  and  C_13
REMARK   12  A    between atoms: C_12  and  O_25
REMARK   13  A    between atoms: C_13  and  C_14
REMARK   14  A    between atoms: C_18  and  C_19
REMARK   15  A    between atoms: C_19  and  C_20
REMARK   16  A    between atoms: C_20  and  C_21
REMARK   17  A    between atoms: C_21  and  C_22
REMARK   18  A    between atoms: C_22  and  C_23
REMARK   19  A    between atoms: O_25  and  C_26
REMARK   20  A    between atoms: C_26  and  C_28
REMARK   21  A    between atoms: C_28  and  C_29
REMARK   22  A    between atoms: C_28  and  N_33
REMARK   23  A    between atoms: C_29  and  C_30
REMARK                            x       y       z     vdW  Elec       q    Type
REMARK                         _______ _______ _______ _____ _____    ______ ____
ROOT
ATOM      1  C   UNL     1       1.853   6.844  -8.363  0.00  0.00    +0.173 C 
ENDROOT
BRANCH   1   2
ATOM      2  C   UNL     1       0.525   5.880  -8.502  0.00  0.00    +0.044 C 
BRANCH   2   3
ATOM      3  C   UNL     1       0.158   5.397  -7.140  0.00  0.00    +0.004 C 
BRANCH   3   4
ATOM      4  C   UNL     1      -1.372   5.403  -7.137  0.00  0.00    +0.000 C 
BRANCH   4   5
ATOM      5  C   UNL     1      -1.715   5.453  -5.649  0.00  0.00    +0.000 C 
BRANCH   5   6
ATOM      6  C   UNL     1      -2.378   6.816  -5.478  0.00  0.00    +0.000 C 
BRANCH   6   7
ATOM      7  C   UNL     1      -1.545   7.560  -4.444  0.00  0.00    +0.000 C 
BRANCH   7   8
ATOM      8  C   UNL     1      -2.239   7.634  -3.115  0.00  0.00    +0.000 C 
BRANCH   8   9
ATOM      9  C   UNL     1      -1.893   6.380  -2.332  0.00  0.00    +0.000 C 
BRANCH   9  10
ATOM     10  C   UNL     1      -0.775   6.704  -1.373  0.00  0.00    +0.000 C 
BRANCH  10  12
ATOM     11  C   UNL     1       0.719   5.264  -2.738  0.00  0.00    +0.000 C 
ATOM     12  C   UNL     1       0.169   5.510  -1.356  0.00  0.00    +0.000 C 
ENDBRANCH  10  12
ENDBRANCH   9  10
ENDBRANCH   8   9
ENDBRANCH   7   8
ENDBRANCH   6   7
ENDBRANCH   5   6
ENDBRANCH   4   5
ENDBRANCH   3   4
ENDBRANCH   2   3
ENDBRANCH   1   2
BRANCH   1  13
ATOM     13  O   UNL     1       2.720   5.909  -9.220  0.00  0.00    -0.451 OA
BRANCH  13  14
ATOM     14  C   UNL     1       3.313   6.402 -10.309  0.00  0.00    +0.337 C 
ATOM     15  O   UNL     1       2.797   6.370 -11.455  0.00  0.00    -0.248 OA
BRANCH  14  16
ATOM     16  C   UNL     1       4.887   6.751 -10.288  0.00  0.00    +0.194 C 
BRANCH  16  17
ATOM     17  N   UNL     1       5.294   5.426  -9.543  0.00  0.00    -0.188 NA
ATOM     18  C   UNL     1       6.557   5.183  -9.095  0.00  0.00    +0.321 C 
ATOM     19  O   UNL     1       7.427   6.067  -9.137  0.00  0.00    -0.263 OA
ENDBRANCH  16  17
BRANCH  16  20
ATOM     20  C   UNL     1       5.135   6.195 -11.821  0.00  0.00    +0.033 C 
BRANCH  20  21
ATOM     21  C   UNL     1       6.389   6.908 -12.242  0.00  0.00    +0.002 C 
ATOM     22  C   UNL     1       6.454   8.261 -11.577  0.00  0.00    +0.000 C 
ATOM     23  C   UNL     1       6.368   7.047 -13.746  0.00  0.00    +0.000 C 
ENDBRANCH  20  21
ENDBRANCH  16  20
ENDBRANCH  14  16
ENDBRANCH  13  14
ENDBRANCH   1  13
BRANCH   1  24
ATOM     24  C   UNL     1       2.320   6.153  -6.946  0.00  0.00    +0.088 C 
BRANCH  24  25
ATOM     25  C   UNL     1       3.665   7.017  -6.567  0.00  0.00    +0.183 C 
ATOM     26  C   UNL     1       3.390   6.867  -4.894  0.00  0.00    +0.139 C 
ATOM     27  C   UNL     1       3.832   5.363  -5.180  0.00  0.00    +0.320 C 
ATOM     28  O   UNL     1       3.754   4.347  -4.482  0.00  0.00    -0.250 OA
ATOM     29  O   UNL     1       4.548   5.792  -6.311  0.00  0.00    -0.451 OA
BRANCH  26  30
ATOM     30  C   UNL     1       4.913   7.301  -4.521  0.00  0.00    +0.015 C 
BRANCH  30  31
ATOM     31  C   UNL     1       5.026   7.454  -3.056  0.00  0.00    +0.001 C 
BRANCH  31  32
ATOM     32  C   UNL     1       3.671   8.001  -2.609  0.00  0.00    +0.000 C 
BRANCH  32  33
ATOM     33  C   UNL     1       3.442   7.499  -1.187  0.00  0.00    +0.000 C 
BRANCH  33  34
ATOM     34  C   UNL     1       4.639   6.795  -0.623  0.00  0.00    +0.000 C 
ATOM     35  C   UNL     1       4.936   7.194   0.816  0.00  0.00    +0.000 C 
ENDBRANCH  33  34
ENDBRANCH  32  33
ENDBRANCH  31  32
ENDBRANCH  30  31
ENDBRANCH  26  30
ENDBRANCH  24  25
ENDBRANCH   1  24
TORSDOF 23
ENDMDL
