MODEL 1
REMARK VINA RESULT:      -9.2      0.000      0.000
REMARK  Name = 
REMARK  5 active torsions:
REMARK  status: ('A' for Active; 'I' for Inactive)
REMARK    1  A    between atoms: C_3  and  C_5
REMARK    2  A    between atoms: C_10  and  S_11
REMARK    3  A    between atoms: S_11  and  C_12
REMARK    4  A    between atoms: C_16  and  C_17
REMARK    5  A    between atoms: C_18  and  C_19
REMARK                            x       y       z     vdW  Elec       q    Type
REMARK                         _______ _______ _______ _____ _____    ______ ____
ROOT
ATOM      1  C   UNL     1       3.939   6.110  -5.051  0.00  0.00    +0.031 A 
ATOM      2  C   UNL     1       3.260   7.198  -5.583  0.00  0.00    +0.027 A 
ATOM      3  C   UNL     1       2.818   7.127  -6.898  0.00  0.00    +0.105 A 
ATOM      4  C   UNL     1       3.548   6.337  -7.776  0.00  0.00    +0.039 A 
ATOM      5  C   UNL     1       3.269   6.734  -9.076  0.00  0.00    +0.104 A 
ATOM      6  N   UNL     1       2.253   7.623  -8.962  0.00  0.00    -0.148 NA
ATOM      7  C   UNL     1       4.497   5.460  -7.320  0.00  0.00    +0.004 A 
ATOM      8  N   UNL     1       2.146   7.999  -7.691  0.00  0.00    -0.148 NA
ATOM      9  C   UNL     1       4.695   5.375  -5.956  0.00  0.00    +0.007 A 
ENDROOT
BRANCH   5  10
ATOM     10  C   UNL     1       4.048   6.395 -10.265  0.00  0.00    +0.023 C 
ATOM     11  C   UNL     1       4.992   7.243 -10.672  0.00  0.00    +0.021 C 
BRANCH  11  12
ATOM     12  C   UNL     1       6.075   6.826 -11.571  0.00  0.00    +0.081 A 
ATOM     13  N   UNL     1       5.872   6.639 -12.898  0.00  0.00    -0.244 NA
ATOM     14  C   UNL     1       6.686   5.758 -13.529  0.00  0.00    +0.099 A 
ATOM     15  C   UNL     1       7.807   5.275 -12.866  0.00  0.00    +0.021 A 
ATOM     16  C   UNL     1       8.292   6.093 -11.854  0.00  0.00    +0.003 A 
ATOM     17  C   UNL     1       7.409   6.945 -11.200  0.00  0.00    +0.019 A 
ENDBRANCH  11  12
ENDBRANCH   5  10
BRANCH   1  18
ATOM     18  S   UNL     1       4.071   5.805  -3.309  0.00  0.00    -0.087 S 
BRANCH  18  20
ATOM     19  C   UNL     1       2.248   5.782  -1.274  0.00  0.00    +0.061 A 
ATOM     20  C   UNL     1       2.435   5.647  -2.638  0.00  0.00    +0.034 A 
ATOM     21  C   UNL     1       1.366   5.415  -3.493  0.00  0.00    +0.007 A 
ATOM     22  C   UNL     1       0.062   5.401  -3.013  0.00  0.00    +0.001 A 
ATOM     23  C   UNL     1      -0.122   5.401  -1.642  0.00  0.00    +0.000 A 
ATOM     24  C   UNL     1       0.986   5.434  -0.807  0.00  0.00    +0.005 A 
BRANCH  19  27
ATOM     25  C   UNL     1       2.725   8.720   0.985  0.00  0.00    +0.139 C 
ATOM     26  N   UNL     1       2.705   8.085  -0.325  0.00  0.00    -0.200 NA
ATOM     27  C   UNL     1       3.095   6.740  -0.548  0.00  0.00    +0.265 C 
ATOM     28  O   UNL     1       3.848   6.221   0.332  0.00  0.00    -0.268 OA
ENDBRANCH  19  27
ENDBRANCH  18  20
ENDBRANCH   1  18
TORSDOF 5
ENDMDL
MODEL 2
REMARK VINA RESULT:      -9.1      2.066      2.466
REMARK  Name = 
REMARK  5 active torsions:
REMARK  status: ('A' for Active; 'I' for Inactive)
REMARK    1  A    between atoms: C_3  and  C_5
REMARK    2  A    between atoms: C_10  and  S_11
REMARK    3  A    between atoms: S_11  and  C_12
REMARK    4  A    between atoms: C_16  and  C_17
REMARK    5  A    between atoms: C_18  and  C_19
REMARK                            x       y       z     vdW  Elec       q    Type
REMARK                         _______ _______ _______ _____ _____    ______ ____
ROOT
ATOM      1  C   UNL     1       1.922   5.918  -4.527  0.00  0.00    +0.031 A 
ATOM      2  C   UNL     1       1.786   7.117  -5.215  0.00  0.00    +0.027 A 
ATOM      3  C   UNL     1       1.972   7.119  -6.591  0.00  0.00    +0.105 A 
ATOM      4  C   UNL     1       2.842   6.174  -7.120  0.00  0.00    +0.039 A 
ATOM      5  C   UNL     1       3.258   6.598  -8.374  0.00  0.00    +0.104 A 
ATOM      6  N   UNL     1       2.500   7.687  -8.647  0.00  0.00    -0.148 NA
ATOM      7  C   UNL     1       3.291   5.122  -6.364  0.00  0.00    +0.004 A 
ATOM      8  N   UNL     1       1.914   8.100  -7.526  0.00  0.00    -0.148 NA
ATOM      9  C   UNL     1       2.838   5.021  -5.063  0.00  0.00    +0.007 A 
ENDROOT
BRANCH   5  10
ATOM     10  C   UNL     1       4.401   6.078  -9.122  0.00  0.00    +0.023 C 
ATOM     11  C   UNL     1       4.688   6.618 -10.306  0.00  0.00    +0.021 C 
BRANCH  11  12
ATOM     12  C   UNL     1       6.008   6.465 -10.929  0.00  0.00    +0.081 A 
ATOM     13  N   UNL     1       6.316   7.058 -12.108  0.00  0.00    -0.244 NA
ATOM     14  C   UNL     1       7.261   6.459 -12.873  0.00  0.00    +0.099 A 
ATOM     15  C   UNL     1       8.019   5.428 -12.331  0.00  0.00    +0.021 A 
ATOM     16  C   UNL     1       8.124   5.438 -10.946  0.00  0.00    +0.003 A 
ATOM     17  C   UNL     1       7.105   6.020 -10.201  0.00  0.00    +0.019 A 
ENDBRANCH  11  12
ENDBRANCH   5  10
BRANCH   1  18
ATOM     18  S   UNL     1       1.200   5.623  -2.935  0.00  0.00    -0.087 S 
BRANCH  18  20
ATOM     19  C   UNL     1      -1.344   5.902  -1.976  0.00  0.00    +0.061 A 
ATOM     20  C   UNL     1      -0.567   5.678  -3.099  0.00  0.00    +0.034 A 
ATOM     21  C   UNL     1      -1.142   5.518  -4.352  0.00  0.00    +0.007 A 
ATOM     22  C   UNL     1      -2.512   5.670  -4.530  0.00  0.00    +0.001 A 
ATOM     23  C   UNL     1      -3.305   5.761  -3.401  0.00  0.00    +0.000 A 
ATOM     24  C   UNL     1      -2.710   5.717  -2.148  0.00  0.00    +0.005 A 
BRANCH  19  27
ATOM     25  C   UNL     1      -1.787   8.425   0.745  0.00  0.00    +0.139 C 
ATOM     26  N   UNL     1      -1.435   8.036  -0.613  0.00  0.00    -0.200 NA
ATOM     27  C   UNL     1      -0.818   6.801  -0.936  0.00  0.00    +0.265 C 
ATOM     28  O   UNL     1      -0.204   6.216   0.008  0.00  0.00    -0.268 OA
ENDBRANCH  19  27
ENDBRANCH  18  20
ENDBRANCH   1  18
TORSDOF 5
ENDMDL
MODEL 3
REMARK VINA RESULT:      -9.1      2.460      2.950
REMARK  Name = 
REMARK  5 active torsions:
REMARK  status: ('A' for Active; 'I' for Inactive)
REMARK    1  A    between atoms: C_3  and  C_5
REMARK    2  A    between atoms: C_10  and  S_11
REMARK    3  A    between atoms: S_11  and  C_12
REMARK    4  A    between atoms: C_16  and  C_17
REMARK    5  A    between atoms: C_18  and  C_19
REMARK                            x       y       z     vdW  Elec       q    Type
REMARK                         _______ _______ _______ _____ _____    ______ ____
ROOT
ATOM      1  C   UNL     1       2.120   6.112  -5.382  0.00  0.00    +0.031 A 
ATOM      2  C   UNL     1       1.718   5.039  -6.167  0.00  0.00    +0.027 A 
ATOM      3  C   UNL     1       2.588   4.565  -7.141  0.00  0.00    +0.105 A 
ATOM      4  C   UNL     1       3.471   5.475  -7.706  0.00  0.00    +0.039 A 
ATOM      5  C   UNL     1       3.911   4.978  -8.924  0.00  0.00    +0.104 A 
ATOM      6  N   UNL     1       3.428   3.713  -8.983  0.00  0.00    -0.148 NA
ATOM      7  C   UNL     1       3.665   6.714  -7.152  0.00  0.00    +0.004 A 
ATOM      8  N   UNL     1       2.494   3.562  -8.048  0.00  0.00    -0.148 NA
ATOM      9  C   UNL     1       2.965   7.024  -6.003  0.00  0.00    +0.007 A 
ENDROOT
BRANCH   5  10
ATOM     10  C   UNL     1       4.579   5.742  -9.975  0.00  0.00    +0.023 C 
ATOM     11  C   UNL     1       5.911   5.781  -9.988  0.00  0.00    +0.021 C 
BRANCH  11  12
ATOM     12  C   UNL     1       6.665   6.156 -11.190  0.00  0.00    +0.081 A 
ATOM     13  N   UNL     1       6.168   7.022 -12.106  0.00  0.00    -0.244 NA
ATOM     14  C   UNL     1       6.608   6.892 -13.382  0.00  0.00    +0.099 A 
ATOM     15  C   UNL     1       7.688   6.059 -13.646  0.00  0.00    +0.021 A 
ATOM     16  C   UNL     1       8.542   5.844 -12.572  0.00  0.00    +0.003 A 
ATOM     17  C   UNL     1       8.035   5.939 -11.282  0.00  0.00    +0.019 A 
ENDBRANCH  11  12
ENDBRANCH   5  10
BRANCH   1  18
ATOM     18  S   UNL     1       1.418   6.471  -3.794  0.00  0.00    -0.087 S 
BRANCH  18  20
ATOM     19  C   UNL     1      -1.115   5.891  -2.947  0.00  0.00    +0.061 A 
ATOM     20  C   UNL     1      -0.351   6.469  -3.946  0.00  0.00    +0.034 A 
ATOM     21  C   UNL     1      -0.943   7.067  -5.051  0.00  0.00    +0.007 A 
ATOM     22  C   UNL     1      -2.324   7.182  -5.142  0.00  0.00    +0.001 A 
ATOM     23  C   UNL     1      -3.093   6.494  -4.220  0.00  0.00    +0.000 A 
ATOM     24  C   UNL     1      -2.465   5.738  -3.241  0.00  0.00    +0.005 A 
BRANCH  19  27
ATOM     25  C   UNL     1      -1.667   6.526   0.693  0.00  0.00    +0.139 C 
ATOM     26  N   UNL     1      -1.203   6.913  -0.632  0.00  0.00    -0.200 NA
ATOM     27  C   UNL     1      -0.641   5.999  -1.559  0.00  0.00    +0.265 C 
ATOM     28  O   UNL     1      -0.170   4.925  -1.075  0.00  0.00    -0.268 OA
ENDBRANCH  19  27
ENDBRANCH  18  20
ENDBRANCH   1  18
TORSDOF 5
ENDMDL
MODEL 4
REMARK VINA RESULT:      -8.8      2.637      3.252
REMARK  Name = 
REMARK  5 active torsions:
REMARK  status: ('A' for Active; 'I' for Inactive)
REMARK    1  A    between atoms: C_3  and  C_5
REMARK    2  A    between atoms: C_10  and  S_11
REMARK    3  A    between atoms: S_11  and  C_12
REMARK    4  A    between atoms: C_16  and  C_17
REMARK    5  A    between atoms: C_18  and  C_19
REMARK                            x       y       z     vdW  Elec       q    Type
REMARK                         _______ _______ _______ _____ _____    ______ ____
ROOT
ATOM      1  C   UNL     1       1.507   4.853  -7.531  0.00  0.00    +0.031 A 
ATOM      2  C   UNL     1       0.845   5.819  -8.278  0.00  0.00    +0.027 A 
ATOM      3  C   UNL     1       1.082   5.881  -9.645  0.00  0.00    +0.105 A 
ATOM      4  C   UNL     1       2.328   5.466 -10.096  0.00  0.00    +0.039 A 
ATOM      5  C   UNL     1       2.555   6.010 -11.353  0.00  0.00    +0.104 A 
ATOM      6  N   UNL     1       1.380   6.587 -11.703  0.00  0.00    -0.148 NA
ATOM      7  C   UNL     1       3.188   4.781  -9.277  0.00  0.00    +0.004 A 
ATOM      8  N   UNL     1       0.607   6.689 -10.625  0.00  0.00    -0.148 NA
ATOM      9  C   UNL     1       2.770   4.503  -7.991  0.00  0.00    +0.007 A 
ENDROOT
BRANCH   5  10
ATOM     10  C   UNL     1       3.845   6.094 -12.033  0.00  0.00    +0.023 C 
ATOM     11  C   UNL     1       4.794   6.870 -11.510  0.00  0.00    +0.021 C 
BRANCH  11  12
ATOM     12  C   UNL     1       6.209   6.711 -11.863  0.00  0.00    +0.081 A 
ATOM     13  N   UNL     1       6.636   6.763 -13.148  0.00  0.00    -0.244 NA
ATOM     14  C   UNL     1       7.767   6.079 -13.452  0.00  0.00    +0.099 A 
ATOM     15  C   UNL     1       8.545   5.563 -12.423  0.00  0.00    +0.021 A 
ATOM     16  C   UNL     1       8.410   6.209 -11.201  0.00  0.00    +0.003 A 
ATOM     17  C   UNL     1       7.213   6.855 -10.913  0.00  0.00    +0.019 A 
ENDBRANCH  11  12
ENDBRANCH   5  10
BRANCH   1  18
ATOM     18  S   UNL     1       0.932   4.281  -5.954  0.00  0.00    -0.087 S 
BRANCH  18  20
ATOM     19  C   UNL     1      -0.105   6.105  -4.203  0.00  0.00    +0.061 A 
ATOM     20  C   UNL     1      -0.321   5.397  -5.372  0.00  0.00    +0.034 A 
ATOM     21  C   UNL     1      -1.486   5.561  -6.109  0.00  0.00    +0.007 A 
ATOM     22  C   UNL     1      -2.431   6.510  -5.742  0.00  0.00    +0.001 A 
ATOM     23  C   UNL     1      -2.288   7.123  -4.510  0.00  0.00    +0.000 A 
ATOM     24  C   UNL     1      -1.209   6.786  -3.705  0.00  0.00    +0.005 A 
BRANCH  19  27
ATOM     25  C   UNL     1       3.448   5.432  -3.264  0.00  0.00    +0.139 C 
ATOM     26  N   UNL     1       2.092   5.869  -2.965  0.00  0.00    -0.200 NA
ATOM     27  C   UNL     1       1.266   6.543  -3.899  0.00  0.00    +0.265 C 
ATOM     28  O   UNL     1       1.860   7.125  -4.858  0.00  0.00    -0.268 OA
ENDBRANCH  19  27
ENDBRANCH  18  20
ENDBRANCH   1  18
TORSDOF 5
ENDMDL
MODEL 5
REMARK VINA RESULT:      -8.7      2.045      2.655
REMARK  Name = 
REMARK  5 active torsions:
REMARK  status: ('A' for Active; 'I' for Inactive)
REMARK    1  A    between atoms: C_3  and  C_5
REMARK    2  A    between atoms: C_10  and  S_11
REMARK    3  A    between atoms: S_11  and  C_12
REMARK    4  A    between atoms: C_16  and  C_17
REMARK    5  A    between atoms: C_18  and  C_19
REMARK                            x       y       z     vdW  Elec       q    Type
REMARK                         _______ _______ _______ _____ _____    ______ ____
ROOT
ATOM      1  C   UNL     1       2.084   6.365  -5.990  0.00  0.00    +0.031 A 
ATOM      2  C   UNL     1       1.565   7.147  -7.013  0.00  0.00    +0.027 A 
ATOM      3  C   UNL     1       1.603   6.654  -8.311  0.00  0.00    +0.105 A 
ATOM      4  C   UNL     1       2.634   5.782  -8.633  0.00  0.00    +0.039 A 
ATOM      5  C   UNL     1       2.792   5.762 -10.012  0.00  0.00    +0.104 A 
ATOM      6  N   UNL     1       1.748   6.477 -10.496  0.00  0.00    -0.148 NA
ATOM      7  C   UNL     1       3.421   5.222  -7.660  0.00  0.00    +0.004 A 
ATOM      8  N   UNL     1       1.192   7.161  -9.500  0.00  0.00    -0.148 NA
ATOM      9  C   UNL     1       3.146   5.543  -6.345  0.00  0.00    +0.007 A 
ENDROOT
BRANCH   5  10
ATOM     10  C   UNL     1       3.950   5.242 -10.737  0.00  0.00    +0.023 C 
ATOM     11  C   UNL     1       4.753   6.104 -11.359  0.00  0.00    +0.021 C 
BRANCH  11  12
ATOM     12  C   UNL     1       6.121   5.746 -11.751  0.00  0.00    +0.081 A 
ATOM     13  N   UNL     1       7.076   5.457 -10.834  0.00  0.00    -0.244 NA
ATOM     14  C   UNL     1       8.364   5.692 -11.188  0.00  0.00    +0.099 A 
ATOM     15  C   UNL     1       8.660   5.987 -12.513  0.00  0.00    +0.021 A 
ATOM     16  C   UNL     1       7.741   5.518 -13.442  0.00  0.00    +0.003 A 
ATOM     17  C   UNL     1       6.420   5.340 -13.046  0.00  0.00    +0.019 A 
ENDBRANCH  11  12
ENDBRANCH   5  10
BRANCH   1  18
ATOM     18  S   UNL     1       1.633   6.568  -4.287  0.00  0.00    -0.087 S 
BRANCH  18  20
ATOM     19  C   UNL     1      -0.677   5.706  -3.109  0.00  0.00    +0.061 A 
ATOM     20  C   UNL     1      -0.133   6.434  -4.152  0.00  0.00    +0.034 A 
ATOM     21  C   UNL     1      -0.939   7.080  -5.079  0.00  0.00    +0.007 A 
ATOM     22  C   UNL     1      -2.321   7.089  -4.934  0.00  0.00    +0.001 A 
ATOM     23  C   UNL     1      -2.877   6.259  -3.978  0.00  0.00    +0.000 A 
ATOM     24  C   UNL     1      -2.044   5.471  -3.196  0.00  0.00    +0.005 A 
BRANCH  19  27
ATOM     25  C   UNL     1      -0.500   6.538   0.529  0.00  0.00    +0.139 C 
ATOM     26  N   UNL     1      -0.165   6.770  -0.868  0.00  0.00    -0.200 NA
ATOM     27  C   UNL     1       0.015   5.727  -1.812  0.00  0.00    +0.265 C 
ATOM     28  O   UNL     1       0.284   4.581  -1.338  0.00  0.00    -0.268 OA
ENDBRANCH  19  27
ENDBRANCH  18  20
ENDBRANCH   1  18
TORSDOF 5
ENDMDL
MODEL 6
REMARK VINA RESULT:      -8.6      2.444      3.161
REMARK  Name = 
REMARK  5 active torsions:
REMARK  status: ('A' for Active; 'I' for Inactive)
REMARK    1  A    between atoms: C_3  and  C_5
REMARK    2  A    between atoms: C_10  and  S_11
REMARK    3  A    between atoms: S_11  and  C_12
REMARK    4  A    between atoms: C_16  and  C_17
REMARK    5  A    between atoms: C_18  and  C_19
REMARK                            x       y       z     vdW  Elec       q    Type
REMARK                         _______ _______ _______ _____ _____    ______ ____
ROOT
ATOM      1  C   UNL     1       1.545   4.943  -7.517  0.00  0.00    +0.031 A 
ATOM      2  C   UNL     1       0.822   5.883  -8.240  0.00  0.00    +0.027 A 
ATOM      3  C   UNL     1       0.995   5.939  -9.618  0.00  0.00    +0.105 A 
ATOM      4  C   UNL     1       2.230   5.555 -10.123  0.00  0.00    +0.039 A 
ATOM      5  C   UNL     1       2.384   6.093 -11.392  0.00  0.00    +0.104 A 
ATOM      6  N   UNL     1       1.179   6.635 -11.693  0.00  0.00    -0.148 NA
ATOM      7  C   UNL     1       3.146   4.902  -9.338  0.00  0.00    +0.004 A 
ATOM      8  N   UNL     1       0.454   6.725 -10.581  0.00  0.00    -0.148 NA
ATOM      9  C   UNL     1       2.795   4.624  -8.032  0.00  0.00    +0.007 A 
ENDROOT
BRANCH   5  10
ATOM     10  C   UNL     1       3.639   6.207 -12.132  0.00  0.00    +0.023 C 
ATOM     11  C   UNL     1       4.647   6.881 -11.580  0.00  0.00    +0.021 C 
BRANCH  11  12
ATOM     12  C   UNL     1       6.033   6.711 -12.030  0.00  0.00    +0.081 A 
ATOM     13  N   UNL     1       6.349   6.567 -13.340  0.00  0.00    -0.244 NA
ATOM     14  C   UNL     1       7.479   5.878 -13.632  0.00  0.00    +0.099 A 
ATOM     15  C   UNL     1       8.363   5.561 -12.608  0.00  0.00    +0.021 A 
ATOM     16  C   UNL     1       8.302   6.392 -11.497  0.00  0.00    +0.003 A 
ATOM     17  C   UNL     1       7.106   7.039 -11.209  0.00  0.00    +0.019 A 
ENDBRANCH  11  12
ENDBRANCH   5  10
BRANCH   1  18
ATOM     18  S   UNL     1       1.059   4.369  -5.912  0.00  0.00    -0.087 S 
BRANCH  18  20
ATOM     19  C   UNL     1       1.571   6.049  -3.818  0.00  0.00    +0.061 A 
ATOM     20  C   UNL     1       2.111   5.129  -4.699  0.00  0.00    +0.034 A 
ATOM     21  C   UNL     1       3.451   4.772  -4.638  0.00  0.00    +0.007 A 
ATOM     22  C   UNL     1       4.271   5.261  -3.630  0.00  0.00    +0.001 A 
ATOM     23  C   UNL     1       3.779   6.277  -2.831  0.00  0.00    +0.000 A 
ATOM     24  C   UNL     1       2.493   6.751  -3.051  0.00  0.00    +0.005 A 
BRANCH  19  27
ATOM     25  C   UNL     1      -0.990   5.670  -1.124  0.00  0.00    +0.139 C 
ATOM     26  N   UNL     1      -0.116   5.141  -2.162  0.00  0.00    -0.200 NA
ATOM     27  C   UNL     1       0.190   5.842  -3.356  0.00  0.00    +0.265 C 
ATOM     28  O   UNL     1      -0.624   6.752  -3.698  0.00  0.00    -0.268 OA
ENDBRANCH  19  27
ENDBRANCH  18  20
ENDBRANCH   1  18
TORSDOF 5
ENDMDL
MODEL 7
REMARK VINA RESULT:      -8.4      4.145     10.302
REMARK  Name = 
REMARK  5 active torsions:
REMARK  status: ('A' for Active; 'I' for Inactive)
REMARK    1  A    between atoms: C_3  and  C_5
REMARK    2  A    between atoms: C_10  and  S_11
REMARK    3  A    between atoms: S_11  and  C_12
REMARK    4  A    between atoms: C_16  and  C_17
REMARK    5  A    between atoms: C_18  and  C_19
REMARK                            x       y       z     vdW  Elec       q    Type
REMARK                         _______ _______ _______ _____ _____    ______ ____
ROOT
ATOM      1  C   UNL     1       3.406   5.689  -9.882  0.00  0.00    +0.031 A 
ATOM      2  C   UNL     1       4.203   6.021  -8.794  0.00  0.00    +0.027 A 
ATOM      3  C   UNL     1       3.940   5.418  -7.570  0.00  0.00    +0.105 A 
ATOM      4  C   UNL     1       2.629   5.040  -7.312  0.00  0.00    +0.039 A 
ATOM      5  C   UNL     1       2.463   4.900  -5.941  0.00  0.00    +0.104 A 
ATOM      6  N   UNL     1       3.709   5.020  -5.422  0.00  0.00    -0.148 NA
ATOM      7  C   UNL     1       1.688   5.016  -8.309  0.00  0.00    +0.004 A 
ATOM      8  N   UNL     1       4.518   5.528  -6.348  0.00  0.00    -0.148 NA
ATOM      9  C   UNL     1       2.089   5.365  -9.583  0.00  0.00    +0.007 A 
ENDROOT
BRANCH   5  10
ATOM     10  C   UNL     1       1.187   4.836  -5.232  0.00  0.00    +0.023 C 
ATOM     11  C   UNL     1       0.919   5.764  -4.315  0.00  0.00    +0.021 C 
BRANCH  11  12
ATOM     12  C   UNL     1      -0.449   6.031  -3.857  0.00  0.00    +0.081 A 
ATOM     13  N   UNL     1      -0.925   5.530  -2.691  0.00  0.00    -0.244 NA
ATOM     14  C   UNL     1      -2.263   5.327  -2.605  0.00  0.00    +0.099 A 
ATOM     15  C   UNL     1      -3.092   5.843  -3.594  0.00  0.00    +0.021 A 
ATOM     16  C   UNL     1      -2.579   6.934  -4.283  0.00  0.00    +0.003 A 
ATOM     17  C   UNL     1      -1.200   7.073  -4.388  0.00  0.00    +0.019 A 
ENDBRANCH  11  12
ENDBRANCH   5  10
BRANCH   1  18
ATOM     18  S   UNL     1       3.920   5.911 -11.565  0.00  0.00    -0.087 S 
BRANCH  18  20
ATOM     19  C   UNL     1       6.317   5.755 -12.868  0.00  0.00    +0.061 A 
ATOM     20  C   UNL     1       5.690   5.789 -11.635  0.00  0.00    +0.034 A 
ATOM     21  C   UNL     1       6.419   5.754 -10.454  0.00  0.00    +0.007 A 
ATOM     22  C   UNL     1       7.808   5.775 -10.476  0.00  0.00    +0.001 A 
ATOM     23  C   UNL     1       8.439   5.606 -11.696  0.00  0.00    +0.000 A 
ATOM     24  C   UNL     1       7.671   5.444 -12.840  0.00  0.00    +0.005 A 
BRANCH  19  27
ATOM     25  C   UNL     1       6.604   7.807 -15.977  0.00  0.00    +0.139 C 
ATOM     26  N   UNL     1       6.401   7.652 -14.544  0.00  0.00    -0.200 NA
ATOM     27  C   UNL     1       5.734   6.542 -13.966  0.00  0.00    +0.265 C 
ATOM     28  O   UNL     1       4.960   5.890 -14.731  0.00  0.00    -0.268 OA
ENDBRANCH  19  27
ENDBRANCH  18  20
ENDBRANCH   1  18
TORSDOF 5
ENDMDL
MODEL 8
REMARK VINA RESULT:      -8.3      2.201      3.267
REMARK  Name = 
REMARK  5 active torsions:
REMARK  status: ('A' for Active; 'I' for Inactive)
REMARK    1  A    between atoms: C_3  and  C_5
REMARK    2  A    between atoms: C_10  and  S_11
REMARK    3  A    between atoms: S_11  and  C_12
REMARK    4  A    between atoms: C_16  and  C_17
REMARK    5  A    between atoms: C_18  and  C_19
REMARK                            x       y       z     vdW  Elec       q    Type
REMARK                         _______ _______ _______ _____ _____    ______ ____
ROOT
ATOM      1  C   UNL     1       1.769   6.001  -3.353  0.00  0.00    +0.031 A 
ATOM      2  C   UNL     1       1.106   5.218  -4.289  0.00  0.00    +0.027 A 
ATOM      3  C   UNL     1       1.829   4.701  -5.356  0.00  0.00    +0.105 A 
ATOM      4  C   UNL     1       2.930   5.426  -5.793  0.00  0.00    +0.039 A 
ATOM      5  C   UNL     1       3.236   5.040  -7.090  0.00  0.00    +0.104 A 
ATOM      6  N   UNL     1       2.435   3.975  -7.338  0.00  0.00    -0.148 NA
ATOM      7  C   UNL     1       3.439   6.460  -5.050  0.00  0.00    +0.004 A 
ATOM      8  N   UNL     1       1.483   3.923  -6.411  0.00  0.00    -0.148 NA
ATOM      9  C   UNL     1       2.833   6.748  -3.844  0.00  0.00    +0.007 A 
ENDROOT
BRANCH   5  10
ATOM     10  C   UNL     1       4.095   5.765  -8.024  0.00  0.00    +0.023 C 
ATOM     11  C   UNL     1       5.236   5.198  -8.413  0.00  0.00    +0.021 C 
BRANCH  11  12
ATOM     12  C   UNL     1       5.947   5.633  -9.621  0.00  0.00    +0.081 A 
ATOM     13  N   UNL     1       5.291   6.124 -10.700  0.00  0.00    -0.244 NA
ATOM     14  C   UNL     1       5.887   5.971 -11.908  0.00  0.00    +0.099 A 
ATOM     15  C   UNL     1       7.207   5.542 -11.964  0.00  0.00    +0.021 A 
ATOM     16  C   UNL     1       7.960   5.802 -10.826  0.00  0.00    +0.003 A 
ATOM     17  C   UNL     1       7.311   5.901  -9.601  0.00  0.00    +0.019 A 
ENDBRANCH  11  12
ENDBRANCH   5  10
BRANCH   1  18
ATOM     18  S   UNL     1       1.169   6.263  -1.705  0.00  0.00    -0.087 S 
BRANCH  18  20
ATOM     19  C   UNL     1       2.288   7.955   0.126  0.00  0.00    +0.061 A 
ATOM     20  C   UNL     1       2.506   6.874  -0.709  0.00  0.00    +0.034 A 
ATOM     21  C   UNL     1       3.742   6.244  -0.764  0.00  0.00    +0.007 A 
ATOM     22  C   UNL     1       4.772   6.625   0.086  0.00  0.00    +0.001 A 
ATOM     23  C   UNL     1       4.607   7.783   0.824  0.00  0.00    +0.000 A 
ATOM     24  C   UNL     1       3.427   8.503   0.703  0.00  0.00    +0.005 A 
BRANCH  19  27
ATOM     25  C   UNL     1       0.031   7.865   3.102  0.00  0.00    +0.139 C 
ATOM     26  N   UNL     1       0.579   7.301   1.877  0.00  0.00    -0.200 NA
ATOM     27  C   UNL     1       0.968   8.087   0.762  0.00  0.00    +0.265 C 
ATOM     28  O   UNL     1       0.456   9.245   0.685  0.00  0.00    -0.268 OA
ENDBRANCH  19  27
ENDBRANCH  18  20
ENDBRANCH   1  18
TORSDOF 5
ENDMDL
MODEL 9
REMARK VINA RESULT:      -8.2      3.826     10.179
REMARK  Name = 
REMARK  5 active torsions:
REMARK  status: ('A' for Active; 'I' for Inactive)
REMARK    1  A    between atoms: C_3  and  C_5
REMARK    2  A    between atoms: C_10  and  S_11
REMARK    3  A    between atoms: S_11  and  C_12
REMARK    4  A    between atoms: C_16  and  C_17
REMARK    5  A    between atoms: C_18  and  C_19
REMARK                            x       y       z     vdW  Elec       q    Type
REMARK                         _______ _______ _______ _____ _____    ______ ____
ROOT
ATOM      1  C   UNL     1       3.239   6.315  -9.465  0.00  0.00    +0.031 A 
ATOM      2  C   UNL     1       3.374   5.027  -8.964  0.00  0.00    +0.027 A 
ATOM      3  C   UNL     1       2.509   4.610  -7.961  0.00  0.00    +0.105 A 
ATOM      4  C   UNL     1       2.011   5.581  -7.102  0.00  0.00    +0.039 A 
ATOM      5  C   UNL     1       1.571   4.969  -5.937  0.00  0.00    +0.104 A 
ATOM      6  N   UNL     1       1.648   3.639  -6.189  0.00  0.00    -0.148 NA
ATOM      7  C   UNL     1       2.147   6.916  -7.385  0.00  0.00    +0.004 A 
ATOM      8  N   UNL     1       2.387   3.445  -7.277  0.00  0.00    -0.148 NA
ATOM      9  C   UNL     1       2.783   7.265  -8.559  0.00  0.00    +0.007 A 
ENDROOT
BRANCH   5  10
ATOM     10  C   UNL     1       1.283   5.637  -4.670  0.00  0.00    +0.023 C 
ATOM     11  C   UNL     1       0.051   5.555  -4.170  0.00  0.00    +0.021 C 
BRANCH  11  12
ATOM     12  C   UNL     1      -0.233   5.823  -2.755  0.00  0.00    +0.081 A 
ATOM     13  N   UNL     1      -1.459   6.214  -2.333  0.00  0.00    -0.244 NA
ATOM     14  C   UNL     1      -1.514   6.959  -1.201  0.00  0.00    +0.099 A 
ATOM     15  C   UNL     1      -0.374   7.088  -0.418  0.00  0.00    +0.021 A 
ATOM     16  C   UNL     1       0.552   6.062  -0.551  0.00  0.00    +0.003 A 
ATOM     17  C   UNL     1       0.606   5.359  -1.749  0.00  0.00    +0.019 A 
ENDBRANCH  11  12
ENDBRANCH   5  10
BRANCH   1  18
ATOM     18  S   UNL     1       3.845   6.807 -11.057  0.00  0.00    -0.087 S 
BRANCH  18  20
ATOM     19  C   UNL     1       6.018   5.480 -12.050  0.00  0.00    +0.061 A 
ATOM     20  C   UNL     1       5.577   6.427 -11.143  0.00  0.00    +0.034 A 
ATOM     21  C   UNL     1       6.466   7.102 -10.316  0.00  0.00    +0.007 A 
ATOM     22  C   UNL     1       7.837   6.910 -10.440  0.00  0.00    +0.001 A 
ATOM     23  C   UNL     1       8.275   5.875 -11.245  0.00  0.00    +0.000 A 
ATOM     24  C   UNL     1       7.343   5.088 -11.907  0.00  0.00    +0.005 A 
BRANCH  19  27
ATOM     25  C   UNL     1       2.972   4.904 -14.137  0.00  0.00    +0.139 C 
ATOM     26  N   UNL     1       4.248   4.493 -13.570  0.00  0.00    -0.200 NA
ATOM     27  C   UNL     1       5.327   5.385 -13.346  0.00  0.00    +0.265 C 
ATOM     28  O   UNL     1       5.317   6.460 -14.020  0.00  0.00    -0.268 OA
ENDBRANCH  19  27
ENDBRANCH  18  20
ENDBRANCH   1  18
TORSDOF 5
ENDMDL
