MODEL 1
REMARK VINA RESULT:      -8.1      0.000      0.000
REMARK  Name = 
REMARK  5 active torsions:
REMARK  status: ('A' for Active; 'I' for Inactive)
REMARK    1  A    between atoms: C_2  and  C_3
REMARK    2  A    between atoms: C_4  and  C_5
REMARK    3  A    between atoms: C_14  and  C_15
REMARK    4  A    between atoms: C_16  and  C_17
REMARK    5  A    between atoms: C_19  and  C_20
REMARK                            x       y       z     vdW  Elec       q    Type
REMARK                         _______ _______ _______ _____ _____    ______ ____
ROOT
ATOM      1  C   UNL     1       3.921   5.551  -7.104  0.00  0.00    -0.005 C 
ATOM      2  C   UNL     1       3.290   6.725  -7.044  0.00  0.00    -0.005 C 
ENDROOT
BRANCH   2   3
ATOM      3  C   UNL     1       1.857   6.781  -6.709  0.00  0.00    -0.031 C 
ATOM      4  C   UNL     1       1.538   6.463  -5.279  0.00  0.00    +0.018 C 
ATOM      5  C   UNL     1       0.218   7.113  -4.959  0.00  0.00    +0.004 C 
ATOM      6  C   UNL     1       2.653   6.950  -4.393  0.00  0.00    +0.004 C 
ATOM      7  C   UNL     1       1.461   4.962  -5.184  0.00  0.00    +0.004 C 
ATOM      8  C   UNL     1       0.685   4.327  -6.300  0.00  0.00    +0.005 C 
ATOM      9  C   UNL     1      -0.077   5.326  -7.143  0.00  0.00    +0.022 C 
ATOM     10  C   UNL     1       0.924   6.358  -7.566  0.00  0.00    -0.048 C 
ATOM     11  C   UNL     1       1.234   6.495  -9.015  0.00  0.00    +0.026 C 
ENDBRANCH   2   3
BRANCH   1  13
ATOM     12  C   UNL     1       4.099   4.955  -9.595  0.00  0.00    +0.031 C 
ATOM     13  C   UNL     1       4.734   5.154  -8.257  0.00  0.00    -0.022 C 
ATOM     14  C   UNL     1       6.024   5.409  -8.235  0.00  0.00    -0.004 C 
BRANCH  14  15
ATOM     15  C   UNL     1       6.873   5.458  -9.413  0.00  0.00    -0.001 C 
ATOM     16  C   UNL     1       7.430   6.549  -9.883  0.00  0.00    -0.005 C 
BRANCH  16  17
ATOM     17  C   UNL     1       7.476   6.902 -11.294  0.00  0.00    -0.024 C 
ATOM     18  C   UNL     1       8.051   6.167 -12.223  0.00  0.00    +0.005 C 
ATOM     19  C   UNL     1       6.521   7.948 -11.776  0.00  0.00    +0.031 C 
BRANCH  18  20
ATOM     20  C   UNL     1       7.482   5.913 -13.560  0.00  0.00    +0.208 C 
ATOM     21  O   UNL     1       6.496   4.924 -13.555  0.00  0.00    -0.215 OA
ENDBRANCH  18  20
ENDBRANCH  16  17
ENDBRANCH  14  15
ENDBRANCH   1  13
TORSDOF 5
ENDMDL
MODEL 2
REMARK VINA RESULT:      -8.1      2.099      4.046
REMARK  Name = 
REMARK  5 active torsions:
REMARK  status: ('A' for Active; 'I' for Inactive)
REMARK    1  A    between atoms: C_2  and  C_3
REMARK    2  A    between atoms: C_4  and  C_5
REMARK    3  A    between atoms: C_14  and  C_15
REMARK    4  A    between atoms: C_16  and  C_17
REMARK    5  A    between atoms: C_19  and  C_20
REMARK                            x       y       z     vdW  Elec       q    Type
REMARK                         _______ _______ _______ _____ _____    ______ ____
ROOT
ATOM      1  C   UNL     1       1.153   5.097  -5.795  0.00  0.00    -0.005 C 
ATOM      2  C   UNL     1       0.308   6.054  -5.407  0.00  0.00    -0.005 C 
ENDROOT
BRANCH   2   3
ATOM      3  C   UNL     1      -0.768   5.752  -4.449  0.00  0.00    -0.031 C 
ATOM      4  C   UNL     1      -2.154   5.952  -4.984  0.00  0.00    +0.018 C 
ATOM      5  C   UNL     1      -3.078   5.084  -4.171  0.00  0.00    +0.004 C 
ATOM      6  C   UNL     1      -2.182   5.614  -6.450  0.00  0.00    +0.004 C 
ATOM      7  C   UNL     1      -2.468   7.415  -4.816  0.00  0.00    +0.004 C 
ATOM      8  C   UNL     1      -2.080   7.964  -3.474  0.00  0.00    +0.005 C 
ATOM      9  C   UNL     1      -1.696   6.892  -2.478  0.00  0.00    +0.022 C 
ATOM     10  C   UNL     1      -0.653   6.055  -3.153  0.00  0.00    -0.048 C 
ATOM     11  C   UNL     1       0.721   6.033  -2.580  0.00  0.00    +0.026 C 
ENDBRANCH   2   3
BRANCH   1  13
ATOM     12  C   UNL     1       0.892   5.717  -8.273  0.00  0.00    +0.031 C 
ATOM     13  C   UNL     1       1.435   4.821  -7.207  0.00  0.00    -0.022 C 
ATOM     14  C   UNL     1       2.492   4.100  -7.508  0.00  0.00    -0.004 C 
BRANCH  14  15
ATOM     15  C   UNL     1       3.128   4.078  -8.814  0.00  0.00    -0.001 C 
ATOM     16  C   UNL     1       4.308   4.589  -9.074  0.00  0.00    -0.005 C 
BRANCH  16  17
ATOM     17  C   UNL     1       4.615   5.383 -10.254  0.00  0.00    -0.024 C 
ATOM     18  C   UNL     1       5.817   5.494 -10.781  0.00  0.00    +0.005 C 
ATOM     19  C   UNL     1       3.470   5.794 -11.126  0.00  0.00    +0.031 C 
BRANCH  18  20
ATOM     20  C   UNL     1       6.102   5.463 -12.227  0.00  0.00    +0.208 C 
ATOM     21  O   UNL     1       7.247   4.728 -12.542  0.00  0.00    -0.215 OA
ENDBRANCH  18  20
ENDBRANCH  16  17
ENDBRANCH  14  15
ENDBRANCH   1  13
TORSDOF 5
ENDMDL
MODEL 3
REMARK VINA RESULT:      -8.0      3.294      7.990
REMARK  Name = 
REMARK  5 active torsions:
REMARK  status: ('A' for Active; 'I' for Inactive)
REMARK    1  A    between atoms: C_2  and  C_3
REMARK    2  A    between atoms: C_4  and  C_5
REMARK    3  A    between atoms: C_14  and  C_15
REMARK    4  A    between atoms: C_16  and  C_17
REMARK    5  A    between atoms: C_19  and  C_20
REMARK                            x       y       z     vdW  Elec       q    Type
REMARK                         _______ _______ _______ _____ _____    ______ ____
ROOT
ATOM      1  C   UNL     1       4.537   6.388  -9.309  0.00  0.00    -0.005 C 
ATOM      2  C   UNL     1       5.121   5.330  -9.875  0.00  0.00    -0.005 C 
ENDROOT
BRANCH   2   3
ATOM      3  C   UNL     1       6.012   5.506 -11.035  0.00  0.00    -0.031 C 
ATOM      4  C   UNL     1       7.409   5.929 -10.689  0.00  0.00    +0.018 C 
ATOM      5  C   UNL     1       8.299   5.500 -11.825  0.00  0.00    +0.004 C 
ATOM      6  C   UNL     1       7.810   5.316  -9.374  0.00  0.00    +0.004 C 
ATOM      7  C   UNL     1       7.374   7.426 -10.538  0.00  0.00    +0.004 C 
ATOM      8  C   UNL     1       6.611   8.124 -11.625  0.00  0.00    +0.005 C 
ATOM      9  C   UNL     1       6.255   7.218 -12.783  0.00  0.00    +0.022 C 
ATOM     10  C   UNL     1       5.569   6.030 -12.181  0.00  0.00    -0.048 C 
ATOM     11  C   UNL     1       4.141   5.787 -12.520  0.00  0.00    +0.026 C 
ENDBRANCH   2   3
BRANCH   1  13
ATOM     12  C   UNL     1       2.229   5.263  -9.342  0.00  0.00    +0.031 C 
ATOM     13  C   UNL     1       3.095   6.446  -9.051  0.00  0.00    -0.022 C 
ATOM     14  C   UNL     1       2.647   7.319  -8.176  0.00  0.00    -0.004 C 
BRANCH  14  15
ATOM     15  C   UNL     1       1.354   7.236  -7.519  0.00  0.00    -0.001 C 
ATOM     16  C   UNL     1       1.177   6.873  -6.270  0.00  0.00    -0.005 C 
BRANCH  16  17
ATOM     17  C   UNL     1       0.134   5.963  -5.822  0.00  0.00    -0.024 C 
ATOM     18  C   UNL     1      -0.281   5.867  -4.576  0.00  0.00    +0.005 C 
ATOM     19  C   UNL     1      -0.764   5.375  -6.865  0.00  0.00    +0.031 C 
BRANCH  18  20
ATOM     20  C   UNL     1      -1.694   5.741  -4.172  0.00  0.00    +0.208 C 
ATOM     21  O   UNL     1      -1.863   5.000  -3.001  0.00  0.00    -0.215 OA
ENDBRANCH  18  20
ENDBRANCH  16  17
ENDBRANCH  14  15
ENDBRANCH   1  13
TORSDOF 5
ENDMDL
MODEL 4
REMARK VINA RESULT:      -7.9      1.751      3.400
REMARK  Name = 
REMARK  5 active torsions:
REMARK  status: ('A' for Active; 'I' for Inactive)
REMARK    1  A    between atoms: C_2  and  C_3
REMARK    2  A    between atoms: C_4  and  C_5
REMARK    3  A    between atoms: C_14  and  C_15
REMARK    4  A    between atoms: C_16  and  C_17
REMARK    5  A    between atoms: C_19  and  C_20
REMARK                            x       y       z     vdW  Elec       q    Type
REMARK                         _______ _______ _______ _____ _____    ______ ____
ROOT
ATOM      1  C   UNL     1       1.765   6.069  -6.382  0.00  0.00    -0.005 C 
ATOM      2  C   UNL     1       2.311   5.544  -5.284  0.00  0.00    -0.005 C 
ENDROOT
BRANCH   2   3
ATOM      3  C   UNL     1       2.506   6.372  -4.082  0.00  0.00    -0.031 C 
ATOM      4  C   UNL     1       3.940   6.651  -3.743  0.00  0.00    +0.018 C 
ATOM      5  C   UNL     1       3.968   7.915  -2.925  0.00  0.00    +0.004 C 
ATOM      6  C   UNL     1       4.745   6.762  -5.009  0.00  0.00    +0.004 C 
ATOM      7  C   UNL     1       4.430   5.464  -2.957  0.00  0.00    +0.004 C 
ATOM      8  C   UNL     1       3.470   5.003  -1.899  0.00  0.00    +0.005 C 
ATOM      9  C   UNL     1       2.332   5.971  -1.662  0.00  0.00    +0.022 C 
ATOM     10  C   UNL     1       1.726   6.233  -3.006  0.00  0.00    -0.048 C 
ATOM     11  C   UNL     1       0.322   5.802  -3.249  0.00  0.00    +0.026 C 
ENDBRANCH   2   3
BRANCH   1  13
ATOM     12  C   UNL     1       2.530   7.141  -8.586  0.00  0.00    +0.031 C 
ATOM     13  C   UNL     1       2.384   5.943  -7.705  0.00  0.00    -0.022 C 
ATOM     14  C   UNL     1       3.193   4.931  -7.927  0.00  0.00    -0.004 C 
BRANCH  14  15
ATOM     15  C   UNL     1       4.174   4.882  -8.998  0.00  0.00    -0.001 C 
ATOM     16  C   UNL     1       5.453   5.135  -8.846  0.00  0.00    -0.005 C 
BRANCH  16  17
ATOM     17  C   UNL     1       6.242   5.941  -9.764  0.00  0.00    -0.024 C 
ATOM     18  C   UNL     1       7.473   5.651 -10.135  0.00  0.00    +0.005 C 
ATOM     19  C   UNL     1       5.513   6.934 -10.614  0.00  0.00    +0.031 C 
BRANCH  18  20
ATOM     20  C   UNL     1       7.983   5.775 -11.513  0.00  0.00    +0.208 C 
ATOM     21  O   UNL     1       7.757   4.634 -12.284  0.00  0.00    -0.215 OA
ENDBRANCH  18  20
ENDBRANCH  16  17
ENDBRANCH  14  15
ENDBRANCH   1  13
TORSDOF 5
ENDMDL
MODEL 5
REMARK VINA RESULT:      -7.9      4.132      8.011
REMARK  Name = 
REMARK  5 active torsions:
REMARK  status: ('A' for Active; 'I' for Inactive)
REMARK    1  A    between atoms: C_2  and  C_3
REMARK    2  A    between atoms: C_4  and  C_5
REMARK    3  A    between atoms: C_14  and  C_15
REMARK    4  A    between atoms: C_16  and  C_17
REMARK    5  A    between atoms: C_19  and  C_20
REMARK                            x       y       z     vdW  Elec       q    Type
REMARK                         _______ _______ _______ _____ _____    ______ ____
ROOT
ATOM      1  C   UNL     1       2.905   6.158  -9.213  0.00  0.00    -0.005 C 
ATOM      2  C   UNL     1       2.421   5.476 -10.252  0.00  0.00    -0.005 C 
ENDROOT
BRANCH   2   3
ATOM      3  C   UNL     1       2.044   6.178 -11.491  0.00  0.00    -0.031 C 
ATOM      4  C   UNL     1       0.570   6.213 -11.764  0.00  0.00    +0.018 C 
ATOM      5  C   UNL     1       0.309   7.397 -12.657  0.00  0.00    +0.004 C 
ATOM      6  C   UNL     1      -0.181   6.291 -10.463  0.00  0.00    +0.004 C 
ATOM      7  C   UNL     1       0.234   4.913 -12.444  0.00  0.00    +0.004 C 
ATOM      8  C   UNL     1       1.202   4.529 -13.524  0.00  0.00    +0.005 C 
ATOM      9  C   UNL     1       2.164   5.638 -13.887  0.00  0.00    +0.022 C 
ATOM     10  C   UNL     1       2.785   6.084 -12.598  0.00  0.00    -0.048 C 
ATOM     11  C   UNL     1       4.249   5.888 -12.410  0.00  0.00    +0.026 C 
ENDBRANCH   2   3
BRANCH   1  13
ATOM     12  C   UNL     1       2.309   7.194  -6.940  0.00  0.00    +0.031 C 
ATOM     13  C   UNL     1       2.364   6.016  -7.858  0.00  0.00    -0.022 C 
ATOM     14  C   UNL     1       1.539   5.022  -7.611  0.00  0.00    -0.004 C 
BRANCH  14  15
ATOM     15  C   UNL     1       0.623   4.974  -6.485  0.00  0.00    -0.001 C 
ATOM     16  C   UNL     1      -0.664   5.219  -6.562  0.00  0.00    -0.005 C 
BRANCH  16  17
ATOM     17  C   UNL     1      -1.403   6.026  -5.603  0.00  0.00    -0.024 C 
ATOM     18  C   UNL     1      -2.519   5.643  -5.016  0.00  0.00    +0.005 C 
ATOM     19  C   UNL     1      -0.686   7.178  -4.972  0.00  0.00    +0.031 C 
BRANCH  18  20
ATOM     20  C   UNL     1      -2.829   5.856  -3.591  0.00  0.00    +0.208 C 
ATOM     21  O   UNL     1      -2.865   4.669  -2.856  0.00  0.00    -0.215 OA
ENDBRANCH  18  20
ENDBRANCH  16  17
ENDBRANCH  14  15
ENDBRANCH   1  13
TORSDOF 5
ENDMDL
MODEL 6
REMARK VINA RESULT:      -7.6      3.869      5.353
REMARK  Name = 
REMARK  5 active torsions:
REMARK  status: ('A' for Active; 'I' for Inactive)
REMARK    1  A    between atoms: C_2  and  C_3
REMARK    2  A    between atoms: C_4  and  C_5
REMARK    3  A    between atoms: C_14  and  C_15
REMARK    4  A    between atoms: C_16  and  C_17
REMARK    5  A    between atoms: C_19  and  C_20
REMARK                            x       y       z     vdW  Elec       q    Type
REMARK                         _______ _______ _______ _____ _____    ______ ____
ROOT
ATOM      1  C   UNL     1       1.404   5.036  -4.914  0.00  0.00    -0.005 C 
ATOM      2  C   UNL     1       0.545   5.954  -4.467  0.00  0.00    -0.005 C 
ENDROOT
BRANCH   2   3
ATOM      3  C   UNL     1      -0.747   5.544  -3.890  0.00  0.00    -0.031 C 
ATOM      4  C   UNL     1      -1.948   6.003  -4.662  0.00  0.00    +0.018 C 
ATOM      5  C   UNL     1      -3.078   5.066  -4.330  0.00  0.00    +0.004 C 
ATOM      6  C   UNL     1      -1.625   6.025  -6.131  0.00  0.00    +0.004 C 
ATOM      7  C   UNL     1      -2.234   7.409  -4.205  0.00  0.00    +0.004 C 
ATOM      8  C   UNL     1      -2.169   7.585  -2.717  0.00  0.00    +0.005 C 
ATOM      9  C   UNL     1      -2.088   6.276  -1.963  0.00  0.00    +0.022 C 
ATOM     10  C   UNL     1      -0.944   5.521  -2.569  0.00  0.00    -0.048 C 
ATOM     11  C   UNL     1       0.242   5.227  -1.720  0.00  0.00    +0.026 C 
ENDBRANCH   2   3
BRANCH   1  13
ATOM     12  C   UNL     1       2.157   3.868  -7.073  0.00  0.00    +0.031 C 
ATOM     13  C   UNL     1       2.004   5.106  -6.250  0.00  0.00    -0.022 C 
ATOM     14  C   UNL     1       1.984   6.255  -6.889  0.00  0.00    -0.004 C 
BRANCH  14  15
ATOM     15  C   UNL     1       2.154   6.401  -8.325  0.00  0.00    -0.001 C 
ATOM     16  C   UNL     1       1.318   7.036  -9.111  0.00  0.00    -0.005 C 
BRANCH  16  17
ATOM     17  C   UNL     1       0.882   6.546 -10.409  0.00  0.00    -0.024 C 
ATOM     18  C   UNL     1       1.177   5.355 -10.889  0.00  0.00    +0.005 C 
ATOM     19  C   UNL     1      -0.250   7.265 -11.075  0.00  0.00    +0.031 C 
BRANCH  18  20
ATOM     20  C   UNL     1       0.226   4.482 -11.602  0.00  0.00    +0.208 C 
ATOM     21  O   UNL     1       0.508   4.366 -12.965  0.00  0.00    -0.215 OA
ENDBRANCH  18  20
ENDBRANCH  16  17
ENDBRANCH  14  15
ENDBRANCH   1  13
TORSDOF 5
ENDMDL
MODEL 7
REMARK VINA RESULT:      -7.5      3.590      5.416
REMARK  Name = 
REMARK  5 active torsions:
REMARK  status: ('A' for Active; 'I' for Inactive)
REMARK    1  A    between atoms: C_2  and  C_3
REMARK    2  A    between atoms: C_4  and  C_5
REMARK    3  A    between atoms: C_14  and  C_15
REMARK    4  A    between atoms: C_16  and  C_17
REMARK    5  A    between atoms: C_19  and  C_20
REMARK                            x       y       z     vdW  Elec       q    Type
REMARK                         _______ _______ _______ _____ _____    ______ ____
ROOT
ATOM      1  C   UNL     1       0.311   5.410  -5.303  0.00  0.00    -0.005 C 
ATOM      2  C   UNL     1       1.579   5.080  -5.050  0.00  0.00    -0.005 C 
ENDROOT
BRANCH   2   3
ATOM      3  C   UNL     1       2.481   6.044  -4.398  0.00  0.00    -0.031 C 
ATOM      4  C   UNL     1       3.865   6.090  -4.974  0.00  0.00    +0.018 C 
ATOM      5  C   UNL     1       4.440   7.443  -4.649  0.00  0.00    +0.004 C 
ATOM      6  C   UNL     1       3.804   5.826  -6.454  0.00  0.00    +0.004 C 
ATOM      7  C   UNL     1       4.637   4.979  -4.313  0.00  0.00    +0.004 C 
ATOM      8  C   UNL     1       4.429   4.900  -2.829  0.00  0.00    +0.005 C 
ATOM      9  C   UNL     1       3.699   6.099  -2.263  0.00  0.00    +0.022 C 
ATOM     10  C   UNL     1       2.451   6.245  -3.078  0.00  0.00    -0.048 C 
ATOM     11  C   UNL     1       1.137   6.062  -2.403  0.00  0.00    +0.026 C 
ENDBRANCH   2   3
BRANCH   1  13
ATOM     12  C   UNL     1      -1.774   5.370  -6.801  0.00  0.00    +0.031 C 
ATOM     13  C   UNL     1      -0.296   5.240  -6.627  0.00  0.00    -0.022 C 
ATOM     14  C   UNL     1       0.454   5.426  -7.691  0.00  0.00    -0.004 C 
BRANCH  14  15
ATOM     15  C   UNL     1      -0.061   5.695  -9.023  0.00  0.00    -0.001 C 
ATOM     16  C   UNL     1       0.359   5.102 -10.116  0.00  0.00    -0.005 C 
BRANCH  16  17
ATOM     17  C   UNL     1       0.625   5.789 -11.370  0.00  0.00    -0.024 C 
ATOM     18  C   UNL     1       1.233   5.240 -12.402  0.00  0.00    +0.005 C 
ATOM     19  C   UNL     1      -0.142   7.044 -11.646  0.00  0.00    +0.031 C 
BRANCH  18  20
ATOM     20  C   UNL     1       0.817   5.412 -13.806  0.00  0.00    +0.208 C 
ATOM     21  O   UNL     1       1.874   5.759 -14.650  0.00  0.00    -0.215 OA
ENDBRANCH  18  20
ENDBRANCH  16  17
ENDBRANCH  14  15
ENDBRANCH   1  13
TORSDOF 5
ENDMDL
MODEL 8
REMARK VINA RESULT:      -7.5      2.071      3.618
REMARK  Name = 
REMARK  5 active torsions:
REMARK  status: ('A' for Active; 'I' for Inactive)
REMARK    1  A    between atoms: C_2  and  C_3
REMARK    2  A    between atoms: C_4  and  C_5
REMARK    3  A    between atoms: C_14  and  C_15
REMARK    4  A    between atoms: C_16  and  C_17
REMARK    5  A    between atoms: C_19  and  C_20
REMARK                            x       y       z     vdW  Elec       q    Type
REMARK                         _______ _______ _______ _____ _____    ______ ____
ROOT
ATOM      1  C   UNL     1      -0.020   6.099 -10.162  0.00  0.00    -0.005 C 
ATOM      2  C   UNL     1       0.541   5.341  -9.219  0.00  0.00    -0.005 C 
ENDROOT
BRANCH   2   3
ATOM      3  C   UNL     1       0.785   5.888  -7.873  0.00  0.00    -0.031 C 
ATOM      4  C   UNL     1       2.233   6.056  -7.523  0.00  0.00    +0.018 C 
ATOM      5  C   UNL     1       2.314   7.114  -6.455  0.00  0.00    +0.004 C 
ATOM      6  C   UNL     1       3.012   6.418  -8.758  0.00  0.00    +0.004 C 
ATOM      7  C   UNL     1       2.707   4.717  -7.022  0.00  0.00    +0.004 C 
ATOM      8  C   UNL     1       1.759   4.062  -6.062  0.00  0.00    +0.005 C 
ATOM      9  C   UNL     1       0.654   4.982  -5.591  0.00  0.00    +0.022 C 
ATOM     10  C   UNL     1       0.025   5.540  -6.832  0.00  0.00    -0.048 C 
ATOM     11  C   UNL     1      -1.395   5.202  -7.122  0.00  0.00    +0.026 C 
ENDBRANCH   2   3
BRANCH   1  13
ATOM     12  C   UNL     1       0.171   7.401 -12.367  0.00  0.00    +0.031 C 
ATOM     13  C   UNL     1       0.562   6.250 -11.499  0.00  0.00    -0.022 C 
ATOM     14  C   UNL     1       1.716   5.672 -11.752  0.00  0.00    -0.004 C 
BRANCH  14  15
ATOM     15  C   UNL     1       2.601   6.043 -12.842  0.00  0.00    -0.001 C 
ATOM     16  C   UNL     1       3.729   5.434 -13.124  0.00  0.00    -0.005 C 
BRANCH  16  17
ATOM     17  C   UNL     1       4.967   6.120 -13.461  0.00  0.00    -0.024 C 
ATOM     18  C   UNL     1       6.010   6.204 -12.661  0.00  0.00    +0.005 C 
ATOM     19  C   UNL     1       5.216   6.425 -14.905  0.00  0.00    +0.031 C 
BRANCH  18  20
ATOM     20  C   UNL     1       7.411   6.042 -13.093  0.00  0.00    +0.208 C 
ATOM     21  O   UNL     1       7.808   4.706 -13.169  0.00  0.00    -0.215 OA
ENDBRANCH  18  20
ENDBRANCH  16  17
ENDBRANCH  14  15
ENDBRANCH   1  13
TORSDOF 5
ENDMDL
MODEL 9
REMARK VINA RESULT:      -7.5      3.002      7.202
REMARK  Name = 
REMARK  5 active torsions:
REMARK  status: ('A' for Active; 'I' for Inactive)
REMARK    1  A    between atoms: C_2  and  C_3
REMARK    2  A    between atoms: C_4  and  C_5
REMARK    3  A    between atoms: C_14  and  C_15
REMARK    4  A    between atoms: C_16  and  C_17
REMARK    5  A    between atoms: C_19  and  C_20
REMARK                            x       y       z     vdW  Elec       q    Type
REMARK                         _______ _______ _______ _____ _____    ______ ____
ROOT
ATOM      1  C   UNL     1       3.227   5.077 -10.434  0.00  0.00    -0.005 C 
ATOM      2  C   UNL     1       4.042   6.029 -10.893  0.00  0.00    -0.005 C 
ENDROOT
BRANCH   2   3
ATOM      3  C   UNL     1       5.334   5.670 -11.502  0.00  0.00    -0.031 C 
ATOM      4  C   UNL     1       6.534   6.047 -10.686  0.00  0.00    +0.018 C 
ATOM      5  C   UNL     1       7.661   5.140 -11.104  0.00  0.00    +0.004 C 
ATOM      6  C   UNL     1       6.206   5.927  -9.222  0.00  0.00    +0.004 C 
ATOM      7  C   UNL     1       6.828   7.489 -11.003  0.00  0.00    +0.004 C 
ATOM      8  C   UNL     1       6.770   7.808 -12.468  0.00  0.00    +0.005 C 
ATOM      9  C   UNL     1       6.685   6.579 -13.345  0.00  0.00    +0.022 C 
ATOM     10  C   UNL     1       5.536   5.774 -12.819  0.00  0.00    -0.048 C 
ATOM     11  C   UNL     1       4.351   5.570 -13.696  0.00  0.00    +0.026 C 
ENDBRANCH   2   3
BRANCH   1  13
ATOM     12  C   UNL     1       2.733   3.913  -8.199  0.00  0.00    +0.031 C 
ATOM     13  C   UNL     1       2.656   5.115  -9.084  0.00  0.00    -0.022 C 
ATOM     14  C   UNL     1       2.497   6.282  -8.501  0.00  0.00    -0.004 C 
BRANCH  14  15
ATOM     15  C   UNL     1       2.340   6.471  -7.069  0.00  0.00    -0.001 C 
ATOM     16  C   UNL     1       3.132   7.207  -6.325  0.00  0.00    -0.005 C 
BRANCH  16  17
ATOM     17  C   UNL     1       3.630   6.808  -5.018  0.00  0.00    -0.024 C 
ATOM     18  C   UNL     1       3.401   5.635  -4.463  0.00  0.00    +0.005 C 
ATOM     19  C   UNL     1       4.751   7.609  -4.432  0.00  0.00    +0.031 C 
BRANCH  18  20
ATOM     20  C   UNL     1       4.410   4.843  -3.736  0.00  0.00    +0.208 C 
ATOM     21  O   UNL     1       4.182   4.799  -2.359  0.00  0.00    -0.215 OA
ENDBRANCH  18  20
ENDBRANCH  16  17
ENDBRANCH  14  15
ENDBRANCH   1  13
TORSDOF 5
ENDMDL
