MODEL 1
REMARK VINA RESULT:      -7.1      0.000      0.000
REMARK  Name = 
REMARK  5 active torsions:
REMARK  status: ('A' for Active; 'I' for Inactive)
REMARK    1  A    between atoms: N_2  and  C_4
REMARK    2  A    between atoms: C_4  and  C_5
REMARK    3  A    between atoms: C_5  and  C_6
REMARK    4  A    between atoms: C_6  and  C_8
REMARK    5  A    between atoms: C_6  and  C_14
REMARK                            x       y       z     vdW  Elec       q    Type
REMARK                         _______ _______ _______ _____ _____    ______ ____
ROOT
ATOM      1  C   UNL     1       1.507   5.771  -5.766  0.00  0.00    +0.166 C 
ATOM      2  O   UNL     1       1.331   4.566  -5.065  0.00  0.00    -0.217 OA
ENDROOT
BRANCH   1   3
ATOM      3  C   UNL     1       2.137   5.430  -7.055  0.00  0.00    +0.020 A 
ATOM      4  C   UNL     1       2.700   6.423  -7.836  0.00  0.00    +0.056 A 
ATOM      5 CL   UNL     1       2.033   8.040  -7.760  0.00  0.00    -0.082 Cl
ATOM      6  C   UNL     1       3.477   6.032  -8.905  0.00  0.00    +0.011 A 
ATOM      7  C   UNL     1       3.692   4.694  -9.197  0.00  0.00    +0.001 A 
ATOM      8  C   UNL     1       2.894   3.761  -8.563  0.00  0.00    -0.000 A 
ATOM      9  C   UNL     1       2.147   4.113  -7.465  0.00  0.00    -0.001 A 
ENDBRANCH   1   3
BRANCH   1  10
ATOM     10  C   UNL     1       0.132   6.320  -5.974  0.00  0.00    +0.009 A 
ATOM     11  C   UNL     1      -0.362   7.195  -5.016  0.00  0.00    -0.002 A 
ATOM     12  C   UNL     1      -1.700   7.503  -4.916  0.00  0.00    -0.000 A 
ATOM     13  C   UNL     1      -2.584   6.737  -5.655  0.00  0.00    -0.000 A 
ATOM     14  C   UNL     1      -2.143   5.624  -6.355  0.00  0.00    -0.000 A 
ATOM     15  C   UNL     1      -0.793   5.418  -6.486  0.00  0.00    -0.002 A 
ENDBRANCH   1  10
BRANCH   1  16
ATOM     16  C   UNL     1       2.355   6.654  -4.897  0.00  0.00    +0.056 C 
BRANCH  16  17
ATOM     17  C   UNL     1       3.146   5.750  -3.970  0.00  0.00    +0.075 C 
BRANCH  17  19
ATOM     18  C   UNL     1       4.954   4.867  -4.151  0.00  0.00    +0.090 C 
ATOM     19  N   UNL     1       4.522   5.639  -4.404  0.00  0.00    -0.270 NA
ATOM     20  C   UNL     1       5.223   6.857  -4.053  0.00  0.00    +0.090 C 
ENDBRANCH  17  19
ENDBRANCH  16  17
ENDBRANCH   1  16
TORSDOF 5
ENDMDL
MODEL 2
REMARK VINA RESULT:      -7.0      1.932      5.000
REMARK  Name = 
REMARK  5 active torsions:
REMARK  status: ('A' for Active; 'I' for Inactive)
REMARK    1  A    between atoms: N_2  and  C_4
REMARK    2  A    between atoms: C_4  and  C_5
REMARK    3  A    between atoms: C_5  and  C_6
REMARK    4  A    between atoms: C_6  and  C_8
REMARK    5  A    between atoms: C_6  and  C_14
REMARK                            x       y       z     vdW  Elec       q    Type
REMARK                         _______ _______ _______ _____ _____    ______ ____
ROOT
ATOM      1  C   UNL     1       1.419   4.885  -6.334  0.00  0.00    +0.166 C 
ATOM      2  O   UNL     1       1.514   3.501  -6.111  0.00  0.00    -0.217 OA
ENDROOT
BRANCH   1   3
ATOM      3  C   UNL     1       0.056   5.289  -5.941  0.00  0.00    +0.020 A 
ATOM      4  C   UNL     1      -0.196   5.707  -4.646  0.00  0.00    +0.056 A 
ATOM      5 CL   UNL     1       0.772   5.055  -3.342  0.00  0.00    -0.082 Cl
ATOM      6  C   UNL     1      -1.417   6.294  -4.392  0.00  0.00    +0.011 A 
ATOM      7  C   UNL     1      -2.366   6.463  -5.388  0.00  0.00    +0.001 A 
ATOM      8  C   UNL     1      -2.174   5.788  -6.579  0.00  0.00    -0.000 A 
ATOM      9  C   UNL     1      -0.953   5.237  -6.880  0.00  0.00    -0.001 A 
ENDBRANCH   1   3
BRANCH   1  10
ATOM     10  C   UNL     1       2.439   5.508  -5.436  0.00  0.00    +0.009 A 
ATOM     11  C   UNL     1       2.901   6.774  -5.769  0.00  0.00    -0.002 A 
ATOM     12  C   UNL     1       4.050   7.308  -5.231  0.00  0.00    -0.000 A 
ATOM     13  C   UNL     1       4.869   6.455  -4.513  0.00  0.00    -0.000 A 
ATOM     14  C   UNL     1       4.603   5.094  -4.461  0.00  0.00    -0.000 A 
ATOM     15  C   UNL     1       3.403   4.637  -4.943  0.00  0.00    -0.002 A 
ENDBRANCH   1  10
BRANCH   1  16
ATOM     16  C   UNL     1       1.717   5.108  -7.788  0.00  0.00    +0.056 C 
BRANCH  16  17
ATOM     17  C   UNL     1       2.554   3.935  -8.263  0.00  0.00    +0.075 C 
BRANCH  17  19
ATOM     18  C   UNL     1       4.404   4.661  -8.631  0.00  0.00    +0.090 C 
ATOM     19  N   UNL     1       3.655   4.383  -9.088  0.00  0.00    -0.270 NA
ATOM     20  C   UNL     1       3.156   5.342 -10.053  0.00  0.00    +0.090 C 
ENDBRANCH  17  19
ENDBRANCH  16  17
ENDBRANCH   1  16
TORSDOF 5
ENDMDL
MODEL 3
REMARK VINA RESULT:      -7.0      1.960      5.097
REMARK  Name = 
REMARK  5 active torsions:
REMARK  status: ('A' for Active; 'I' for Inactive)
REMARK    1  A    between atoms: N_2  and  C_4
REMARK    2  A    between atoms: C_4  and  C_5
REMARK    3  A    between atoms: C_5  and  C_6
REMARK    4  A    between atoms: C_6  and  C_8
REMARK    5  A    between atoms: C_6  and  C_14
REMARK                            x       y       z     vdW  Elec       q    Type
REMARK                         _______ _______ _______ _____ _____    ______ ____
ROOT
ATOM      1  C   UNL     1       2.003   6.003  -6.818  0.00  0.00    +0.166 C 
ATOM      2  O   UNL     1       2.179   4.699  -7.312  0.00  0.00    -0.217 OA
ENDROOT
BRANCH   1   3
ATOM      3  C   UNL     1       0.570   6.153  -6.505  0.00  0.00    +0.020 A 
ATOM      4  C   UNL     1      -0.380   5.521  -7.287  0.00  0.00    +0.056 A 
ATOM      5 CL   UNL     1      -0.033   5.240  -8.979  0.00  0.00    -0.082 Cl
ATOM      6  C   UNL     1      -1.677   5.497  -6.820  0.00  0.00    +0.011 A 
ATOM      7  C   UNL     1      -2.028   6.081  -5.614  0.00  0.00    +0.001 A 
ATOM      8  C   UNL     1      -1.110   6.925  -5.018  0.00  0.00    -0.000 A 
ATOM      9  C   UNL     1       0.200   6.934  -5.429  0.00  0.00    -0.001 A 
ENDBRANCH   1   3
BRANCH   1  10
ATOM     10  C   UNL     1       2.832   6.078  -5.576  0.00  0.00    +0.009 A 
ATOM     11  C   UNL     1       3.690   7.160  -5.440  0.00  0.00    -0.002 A 
ATOM     12  C   UNL     1       4.720   7.177  -4.528  0.00  0.00    -0.000 A 
ATOM     13  C   UNL     1       5.028   5.985  -3.899  0.00  0.00    -0.000 A 
ATOM     14  C   UNL     1       4.410   4.802  -4.277  0.00  0.00    -0.000 A 
ATOM     15  C   UNL     1       3.335   4.863  -5.128  0.00  0.00    -0.002 A 
ENDBRANCH   1  10
BRANCH   1  16
ATOM     16  C   UNL     1       2.486   6.937  -7.891  0.00  0.00    +0.056 C 
BRANCH  16  17
ATOM     17  C   UNL     1       3.475   6.168  -8.747  0.00  0.00    +0.075 C 
BRANCH  17  19
ATOM     18  C   UNL     1       3.008   6.031 -10.708  0.00  0.00    +0.090 C 
ATOM     19  N   UNL     1       3.421   6.610 -10.124  0.00  0.00    -0.270 NA
ATOM     20  C   UNL     1       4.746   7.025 -10.534  0.00  0.00    +0.090 C 
ENDBRANCH  17  19
ENDBRANCH  16  17
ENDBRANCH   1  16
TORSDOF 5
ENDMDL
MODEL 4
REMARK VINA RESULT:      -6.9      2.009      2.618
REMARK  Name = 
REMARK  5 active torsions:
REMARK  status: ('A' for Active; 'I' for Inactive)
REMARK    1  A    between atoms: N_2  and  C_4
REMARK    2  A    between atoms: C_4  and  C_5
REMARK    3  A    between atoms: C_5  and  C_6
REMARK    4  A    between atoms: C_6  and  C_8
REMARK    5  A    between atoms: C_6  and  C_14
REMARK                            x       y       z     vdW  Elec       q    Type
REMARK                         _______ _______ _______ _____ _____    ______ ____
ROOT
ATOM      1  C   UNL     1       1.415   6.131  -5.347  0.00  0.00    +0.166 C 
ATOM      2  O   UNL     1       1.376   4.744  -5.127  0.00  0.00    -0.217 OA
ENDROOT
BRANCH   1   3
ATOM      3  C   UNL     1       2.320   6.357  -6.490  0.00  0.00    +0.020 A 
ATOM      4  C   UNL     1       3.475   5.606  -6.619  0.00  0.00    +0.056 A 
ATOM      5 CL   UNL     1       4.264   5.011  -5.174  0.00  0.00    -0.082 Cl
ATOM      6  C   UNL     1       4.159   5.686  -7.812  0.00  0.00    +0.011 A 
ATOM      7  C   UNL     1       3.717   6.489  -8.852  0.00  0.00    +0.001 A 
ATOM      8  C   UNL     1       2.730   7.415  -8.574  0.00  0.00    -0.000 A 
ATOM      9  C   UNL     1       1.998   7.329  -7.415  0.00  0.00    -0.001 A 
ENDBRANCH   1   3
BRANCH   1  10
ATOM     10  C   UNL     1       0.014   6.523  -5.691  0.00  0.00    +0.009 A 
ATOM     11  C   UNL     1      -0.627   7.420  -4.847  0.00  0.00    -0.002 A 
ATOM     12  C   UNL     1      -1.991   7.602  -4.862  0.00  0.00    -0.000 A 
ATOM     13  C   UNL     1      -2.744   6.697  -5.588  0.00  0.00    -0.000 A 
ATOM     14  C   UNL     1      -2.152   5.579  -6.158  0.00  0.00    -0.000 A 
ATOM     15  C   UNL     1      -0.783   5.497  -6.182  0.00  0.00    -0.002 A 
ENDBRANCH   1  10
BRANCH   1  16
ATOM     16  C   UNL     1       1.892   6.756  -4.068  0.00  0.00    +0.056 C 
BRANCH  16  17
ATOM     17  C   UNL     1       1.802   5.696  -2.987  0.00  0.00    +0.075 C 
BRANCH  17  19
ATOM     18  C   UNL     1       1.511   6.260  -1.068  0.00  0.00    +0.090 C 
ATOM     19  N   UNL     1       1.040   6.174  -1.854  0.00  0.00    -0.270 NA
ATOM     20  C   UNL     1      -0.171   5.388  -1.740  0.00  0.00    +0.090 C 
ENDBRANCH  17  19
ENDBRANCH  16  17
ENDBRANCH   1  16
TORSDOF 5
ENDMDL
MODEL 5
REMARK VINA RESULT:      -6.8      2.563      4.925
REMARK  Name = 
REMARK  5 active torsions:
REMARK  status: ('A' for Active; 'I' for Inactive)
REMARK    1  A    between atoms: N_2  and  C_4
REMARK    2  A    between atoms: C_4  and  C_5
REMARK    3  A    between atoms: C_5  and  C_6
REMARK    4  A    between atoms: C_6  and  C_8
REMARK    5  A    between atoms: C_6  and  C_14
REMARK                            x       y       z     vdW  Elec       q    Type
REMARK                         _______ _______ _______ _____ _____    ______ ____
ROOT
ATOM      1  C   UNL     1       1.029   5.991  -7.953  0.00  0.00    +0.166 C 
ATOM      2  O   UNL     1       1.611   7.269  -7.955  0.00  0.00    -0.217 OA
ENDROOT
BRANCH   1   3
ATOM      3  C   UNL     1      -0.019   5.998  -6.915  0.00  0.00    +0.020 A 
ATOM      4  C   UNL     1       0.192   6.666  -5.722  0.00  0.00    +0.056 A 
ATOM      5 CL   UNL     1       1.825   6.803  -5.105  0.00  0.00    -0.082 Cl
ATOM      6  C   UNL     1      -0.891   6.844  -4.889  0.00  0.00    +0.011 A 
ATOM      7  C   UNL     1      -2.152   6.375  -5.224  0.00  0.00    +0.001 A 
ATOM      8  C   UNL     1      -2.248   5.488  -6.279  0.00  0.00    -0.000 A 
ATOM      9  C   UNL     1      -1.201   5.327  -7.154  0.00  0.00    -0.001 A 
ENDBRANCH   1   3
BRANCH   1  10
ATOM     10  C   UNL     1       0.432   5.818  -9.312  0.00  0.00    +0.009 A 
ATOM     11  C   UNL     1       0.569   4.579  -9.921  0.00  0.00    -0.002 A 
ATOM     12  C   UNL     1       0.363   4.390 -11.269  0.00  0.00    -0.000 A 
ATOM     13  C   UNL     1       0.236   5.522 -12.055  0.00  0.00    -0.000 A 
ATOM     14  C   UNL     1       0.446   6.784 -11.519  0.00  0.00    -0.000 A 
ATOM     15  C   UNL     1       0.563   6.912 -10.159  0.00  0.00    -0.002 A 
ENDBRANCH   1  10
BRANCH   1  16
ATOM     16  C   UNL     1       2.138   5.015  -7.681  0.00  0.00    +0.056 C 
BRANCH  16  17
ATOM     17  C   UNL     1       3.447   5.747  -7.903  0.00  0.00    +0.075 C 
BRANCH  17  19
ATOM     18  C   UNL     1       5.249   5.000  -8.432  0.00  0.00    +0.090 C 
ATOM     19  N   UNL     1       4.365   4.944  -8.682  0.00  0.00    -0.270 NA
ATOM     20  C   UNL     1       4.126   5.192 -10.088  0.00  0.00    +0.090 C 
ENDBRANCH  17  19
ENDBRANCH  16  17
ENDBRANCH   1  16
TORSDOF 5
ENDMDL
MODEL 6
REMARK VINA RESULT:      -6.8      2.124      3.713
REMARK  Name = 
REMARK  5 active torsions:
REMARK  status: ('A' for Active; 'I' for Inactive)
REMARK    1  A    between atoms: N_2  and  C_4
REMARK    2  A    between atoms: C_4  and  C_5
REMARK    3  A    between atoms: C_5  and  C_6
REMARK    4  A    between atoms: C_6  and  C_8
REMARK    5  A    between atoms: C_6  and  C_14
REMARK                            x       y       z     vdW  Elec       q    Type
REMARK                         _______ _______ _______ _____ _____    ______ ____
ROOT
ATOM      1  C   UNL     1       2.098   6.639  -7.096  0.00  0.00    +0.166 C 
ATOM      2  O   UNL     1       2.395   7.984  -7.372  0.00  0.00    -0.217 OA
ENDROOT
BRANCH   1   3
ATOM      3  C   UNL     1       2.933   6.242  -5.947  0.00  0.00    +0.020 A 
ATOM      4  C   UNL     1       3.191   4.905  -5.707  0.00  0.00    +0.056 A 
ATOM      5 CL   UNL     1       2.001   3.713  -6.184  0.00  0.00    -0.082 Cl
ATOM      6  C   UNL     1       4.159   4.599  -4.775  0.00  0.00    +0.011 A 
ATOM      7  C   UNL     1       4.854   5.586  -4.095  0.00  0.00    +0.001 A 
ATOM      8  C   UNL     1       4.370   6.879  -4.169  0.00  0.00    -0.000 A 
ATOM      9  C   UNL     1       3.442   7.223  -5.121  0.00  0.00    -0.001 A 
ENDBRANCH   1   3
BRANCH   1  10
ATOM     10  C   UNL     1       0.648   6.614  -6.735  0.00  0.00    +0.009 A 
ATOM     11  C   UNL     1       0.315   6.802  -5.400  0.00  0.00    -0.002 A 
ATOM     12  C   UNL     1      -0.924   6.480  -4.894  0.00  0.00    -0.000 A 
ATOM     13  C   UNL     1      -1.767   5.743  -5.706  0.00  0.00    -0.000 A 
ATOM     14  C   UNL     1      -1.322   5.240  -6.920  0.00  0.00    -0.000 A 
ATOM     15  C   UNL     1      -0.113   5.664  -7.406  0.00  0.00    -0.002 A 
ENDBRANCH   1  10
BRANCH   1  16
ATOM     16  C   UNL     1       2.394   5.868  -8.350  0.00  0.00    +0.056 C 
BRANCH  16  17
ATOM     17  C   UNL     1       3.585   6.529  -9.017  0.00  0.00    +0.075 C 
BRANCH  17  19
ATOM     18  C   UNL     1       4.128   4.760  -9.828  0.00  0.00    +0.090 C 
ATOM     19  N   UNL     1       4.511   5.540  -9.524  0.00  0.00    -0.270 NA
ATOM     20  C   UNL     1       5.567   5.346  -8.552  0.00  0.00    +0.090 C 
ENDBRANCH  17  19
ENDBRANCH  16  17
ENDBRANCH   1  16
TORSDOF 5
ENDMDL
MODEL 7
REMARK VINA RESULT:      -6.8      2.037      4.617
REMARK  Name = 
REMARK  5 active torsions:
REMARK  status: ('A' for Active; 'I' for Inactive)
REMARK    1  A    between atoms: N_2  and  C_4
REMARK    2  A    between atoms: C_4  and  C_5
REMARK    3  A    between atoms: C_5  and  C_6
REMARK    4  A    between atoms: C_6  and  C_8
REMARK    5  A    between atoms: C_6  and  C_14
REMARK                            x       y       z     vdW  Elec       q    Type
REMARK                         _______ _______ _______ _____ _____    ______ ____
ROOT
ATOM      1  C   UNL     1       3.151   6.243  -6.823  0.00  0.00    +0.166 C 
ATOM      2  O   UNL     1       2.666   7.561  -6.821  0.00  0.00    -0.217 OA
ENDROOT
BRANCH   1   3
ATOM      3  C   UNL     1       3.967   6.087  -8.041  0.00  0.00    +0.020 A 
ATOM      4  C   UNL     1       3.550   6.655  -9.231  0.00  0.00    +0.056 A 
ATOM      5 CL   UNL     1       1.835   6.840  -9.526  0.00  0.00    -0.082 Cl
ATOM      6  C   UNL     1       4.451   6.686 -10.274  0.00  0.00    +0.011 A 
ATOM      7  C   UNL     1       5.731   6.168 -10.147  0.00  0.00    +0.001 A 
ATOM      8  C   UNL     1       5.997   5.377  -9.045  0.00  0.00    -0.000 A 
ATOM      9  C   UNL     1       5.141   5.366  -7.971  0.00  0.00    -0.001 A 
ENDBRANCH   1   3
BRANCH   1  10
ATOM     10  C   UNL     1       3.996   6.124  -5.595  0.00  0.00    +0.009 A 
ATOM     11  C   UNL     1       3.760   5.045  -4.754  0.00  0.00    -0.002 A 
ATOM     12  C   UNL     1       4.226   5.001  -3.460  0.00  0.00    -0.000 A 
ATOM     13  C   UNL     1       4.749   6.169  -2.935  0.00  0.00    -0.000 A 
ATOM     14  C   UNL     1       4.677   7.360  -3.643  0.00  0.00    -0.000 A 
ATOM     15  C   UNL     1       4.280   7.324  -4.955  0.00  0.00    -0.002 A 
ENDBRANCH   1  10
BRANCH   1  16
ATOM     16  C   UNL     1       1.949   5.343  -6.784  0.00  0.00    +0.056 C 
BRANCH  16  17
ATOM     17  C   UNL     1       0.772   6.182  -6.324  0.00  0.00    +0.075 C 
BRANCH  17  19
ATOM     18  C   UNL     1      -0.918   5.375  -7.083  0.00  0.00    +0.090 C 
ATOM     19  N   UNL     1      -0.444   5.398  -6.295  0.00  0.00    -0.270 NA
ATOM     20  C   UNL     1      -1.225   5.790  -5.140  0.00  0.00    +0.090 C 
ENDBRANCH  17  19
ENDBRANCH  16  17
ENDBRANCH   1  16
TORSDOF 5
ENDMDL
MODEL 8
REMARK VINA RESULT:      -6.7      2.519      4.371
REMARK  Name = 
REMARK  5 active torsions:
REMARK  status: ('A' for Active; 'I' for Inactive)
REMARK    1  A    between atoms: N_2  and  C_4
REMARK    2  A    between atoms: C_4  and  C_5
REMARK    3  A    between atoms: C_5  and  C_6
REMARK    4  A    between atoms: C_6  and  C_8
REMARK    5  A    between atoms: C_6  and  C_14
REMARK                            x       y       z     vdW  Elec       q    Type
REMARK                         _______ _______ _______ _____ _____    ______ ____
ROOT
ATOM      1  C   UNL     1       1.545   6.410  -6.917  0.00  0.00    +0.166 C 
ATOM      2  O   UNL     1       1.528   7.783  -7.215  0.00  0.00    -0.217 OA
ENDROOT
BRANCH   1   3
ATOM      3  C   UNL     1       2.673   6.187  -5.993  0.00  0.00    +0.020 A 
ATOM      4  C   UNL     1       3.212   4.921  -5.851  0.00  0.00    +0.056 A 
ATOM      5 CL   UNL     1       2.177   3.528  -6.083  0.00  0.00    -0.082 Cl
ATOM      6  C   UNL     1       4.402   4.807  -5.165  0.00  0.00    +0.011 A 
ATOM      7  C   UNL     1       5.043   5.914  -4.630  0.00  0.00    +0.001 A 
ATOM      8  C   UNL     1       4.332   7.097  -4.561  0.00  0.00    -0.000 A 
ATOM      9  C   UNL     1       3.169   7.255  -5.275  0.00  0.00    -0.001 A 
ENDBRANCH   1   3
BRANCH   1  10
ATOM     10  C   UNL     1       0.241   6.128  -6.245  0.00  0.00    +0.009 A 
ATOM     11  C   UNL     1      -0.751   5.515  -6.998  0.00  0.00    -0.002 A 
ATOM     12  C   UNL     1      -2.072   5.501  -6.611  0.00  0.00    -0.000 A 
ATOM     13  C   UNL     1      -2.431   6.318  -5.554  0.00  0.00    -0.000 A 
ATOM     14  C   UNL     1      -1.519   7.209  -5.005  0.00  0.00    -0.000 A 
ATOM     15  C   UNL     1      -0.202   7.117  -5.374  0.00  0.00    -0.002 A 
ENDBRANCH   1  10
BRANCH   1  16
ATOM     16  C   UNL     1       1.688   5.688  -8.226  0.00  0.00    +0.056 C 
BRANCH  16  17
ATOM     17  C   UNL     1       1.813   6.741  -9.311  0.00  0.00    +0.075 C 
BRANCH  17  19
ATOM     18  C   UNL     1       0.292   6.839 -10.637  0.00  0.00    +0.090 C 
ATOM     19  N   UNL     1       1.066   6.362 -10.490  0.00  0.00    -0.270 NA
ATOM     20  C   UNL     1       0.889   4.925 -10.491  0.00  0.00    +0.090 C 
ENDBRANCH  17  19
ENDBRANCH  16  17
ENDBRANCH   1  16
TORSDOF 5
ENDMDL
MODEL 9
REMARK VINA RESULT:      -6.7      3.056      6.381
REMARK  Name = 
REMARK  5 active torsions:
REMARK  status: ('A' for Active; 'I' for Inactive)
REMARK    1  A    between atoms: N_2  and  C_4
REMARK    2  A    between atoms: C_4  and  C_5
REMARK    3  A    between atoms: C_5  and  C_6
REMARK    4  A    between atoms: C_6  and  C_8
REMARK    5  A    between atoms: C_6  and  C_14
REMARK                            x       y       z     vdW  Elec       q    Type
REMARK                         _______ _______ _______ _____ _____    ______ ____
ROOT
ATOM      1  C   UNL     1       3.847   5.624  -8.823  0.00  0.00    +0.166 C 
ATOM      2  O   UNL     1       4.140   4.258  -8.968  0.00  0.00    -0.217 OA
ENDROOT
BRANCH   1   3
ATOM      3  C   UNL     1       3.674   5.874  -7.380  0.00  0.00    +0.020 A 
ATOM      4  C   UNL     1       2.707   6.761  -6.942  0.00  0.00    +0.056 A 
ATOM      5 CL   UNL     1       2.263   8.107  -7.970  0.00  0.00    -0.082 Cl
ATOM      6  C   UNL     1       2.426   6.784  -5.593  0.00  0.00    +0.011 A 
ATOM      7  C   UNL     1       3.082   5.954  -4.698  0.00  0.00    +0.001 A 
ATOM      8  C   UNL     1       4.214   5.298  -5.142  0.00  0.00    -0.000 A 
ATOM      9  C   UNL     1       4.493   5.217  -6.485  0.00  0.00    -0.001 A 
ENDBRANCH   1   3
BRANCH   1  10
ATOM     10  C   UNL     1       5.042   6.350  -9.351  0.00  0.00    +0.009 A 
ATOM     11  C   UNL     1       4.866   7.146 -10.474  0.00  0.00    -0.002 A 
ATOM     12  C   UNL     1       5.921   7.593 -11.237  0.00  0.00    -0.000 A 
ATOM     13  C   UNL     1       7.162   7.035 -10.989  0.00  0.00    -0.000 A 
ATOM     14  C   UNL     1       7.300   5.977 -10.103  0.00  0.00    -0.000 A 
ATOM     15  C   UNL     1       6.233   5.634  -9.313  0.00  0.00    -0.002 A 
ENDBRANCH   1  10
BRANCH   1  16
ATOM     16  C   UNL     1       2.609   5.885  -9.632  0.00  0.00    +0.056 C 
BRANCH  16  17
ATOM     17  C   UNL     1       1.778   4.617  -9.609  0.00  0.00    +0.075 C 
BRANCH  17  19
ATOM     18  C   UNL     1       0.197   4.349 -10.838  0.00  0.00    +0.090 C 
ATOM     19  N   UNL     1       0.444   4.861 -10.114  0.00  0.00    -0.270 NA
ATOM     20  C   UNL     1       0.269   6.285 -10.304  0.00  0.00    +0.090 C 
ENDBRANCH  17  19
ENDBRANCH  16  17
ENDBRANCH   1  16
TORSDOF 5
ENDMDL
