MODEL 1
REMARK VINA RESULT:      -9.5      0.000      0.000
REMARK  Name = 
REMARK  8 active torsions:
REMARK  status: ('A' for Active; 'I' for Inactive)
REMARK    1  A    between atoms: C_2  and  N_4
REMARK    2  A    between atoms: C_5  and  C_6
REMARK    3  A    between atoms: C_7  and  C_8
REMARK    4  A    between atoms: C_8  and  C_10
REMARK    5  A    between atoms: C_10  and  C_11
REMARK    6  A    between atoms: C_11  and  C_13
REMARK    7  A    between atoms: C_13  and  C_14
REMARK    8  A    between atoms: C_17  and  C_18
REMARK                            x       y       z     vdW  Elec       q    Type
REMARK                         _______ _______ _______ _____ _____    ______ ____
ROOT
ATOM      1  N   UNL     1       2.106   5.507  -6.678  0.00  0.00    -0.329 N 
ATOM      2  C   UNL     1       0.864   5.409  -6.147  0.00  0.00    +0.060 A 
ATOM      3  C   UNL     1      -0.071   5.369  -7.173  0.00  0.00    +0.017 A 
ATOM      4  C   UNL     1      -1.420   5.603  -6.934  0.00  0.00    +0.001 A 
ATOM      5  C   UNL     1      -1.836   5.625  -5.610  0.00  0.00    +0.000 A 
ATOM      6  C   UNL     1      -0.933   5.416  -4.587  0.00  0.00    +0.001 A 
ATOM      7  C   UNL     1       0.691   5.366  -8.331  0.00  0.00    +0.017 A 
ATOM      8  C   UNL     1       0.416   5.596  -4.846  0.00  0.00    +0.017 A 
ATOM      9  C   UNL     1       2.020   5.177  -7.972  0.00  0.00    +0.060 A 
ENDROOT
BRANCH   7  10
ATOM     10  C   UNL     1       0.138   5.604  -9.670  0.00  0.00    +0.002 A 
ATOM     11  C   UNL     1       0.101   4.527 -10.542  0.00  0.00    +0.002 A 
ATOM     12  C   UNL     1       0.159   4.684 -11.919  0.00  0.00    +0.030 A 
ATOM     13  C   UNL     1       0.577   5.901 -12.443  0.00  0.00    +0.140 A 
ATOM     14  F   UNL     1       0.553   6.066 -13.797  0.00  0.00    -0.204 F 
ATOM     15  C   UNL     1       0.423   6.996 -11.621  0.00  0.00    +0.030 A 
ATOM     16  C   UNL     1       0.205   6.855 -10.274  0.00  0.00    +0.002 A 
ENDBRANCH   7  10
BRANCH   1  18
ATOM     17  C   UNL     1       3.093   7.166  -5.300  0.00  0.00    +0.024 C 
ATOM     18  C   UNL     1       3.303   6.030  -6.039  0.00  0.00    +0.086 C 
ATOM     19  C   UNL     1       3.833   4.959  -5.088  0.00  0.00    +0.024 C 
ENDBRANCH   1  18
BRANCH   9  20
ATOM     20  C   UNL     1       3.090   4.780  -8.899  0.00  0.00    +0.015 C 
ATOM     21  C   UNL     1       3.518   5.709  -9.696  0.00  0.00    +0.008 C 
BRANCH  21  22
ATOM     22  C   UNL     1       4.925   5.373 -10.503  0.00  0.00    +0.177 C 
ATOM     23  O   UNL     1       4.232   5.389 -11.898  0.00  0.00    -0.218 OA
BRANCH  22  24
ATOM     24  C   UNL     1       5.348   7.002 -10.622  0.00  0.00    +0.071 C 
BRANCH  24  25
ATOM     25  C   UNL     1       6.287   6.916 -12.018  0.00  0.00    +0.166 C 
ATOM     26  O   UNL     1       6.554   8.442 -12.031  0.00  0.00    -0.222 OA
BRANCH  25  27
ATOM     27  C   UNL     1       7.695   6.606 -11.149  0.00  0.00    +0.147 C 
BRANCH  27  28
ATOM     28  C   UNL     1       8.411   5.698 -12.089  0.00  0.00    +0.367 C 
ATOM     29  O   UNL     1       7.821   4.636 -12.730  0.00  0.00    -0.246 OA
ATOM     30  O   UNL     1       9.643   5.854 -12.284  0.00  0.00    -0.246 OA
ENDBRANCH  27  28
ENDBRANCH  25  27
ENDBRANCH  24  25
ENDBRANCH  22  24
ENDBRANCH  21  22
ENDBRANCH   9  20
TORSDOF 8
ENDMDL
MODEL 2
REMARK VINA RESULT:      -8.8      4.840      8.774
REMARK  Name = 
REMARK  8 active torsions:
REMARK  status: ('A' for Active; 'I' for Inactive)
REMARK    1  A    between atoms: C_2  and  N_4
REMARK    2  A    between atoms: C_5  and  C_6
REMARK    3  A    between atoms: C_7  and  C_8
REMARK    4  A    between atoms: C_8  and  C_10
REMARK    5  A    between atoms: C_10  and  C_11
REMARK    6  A    between atoms: C_11  and  C_13
REMARK    7  A    between atoms: C_13  and  C_14
REMARK    8  A    between atoms: C_17  and  C_18
REMARK                            x       y       z     vdW  Elec       q    Type
REMARK                         _______ _______ _______ _____ _____    ______ ____
ROOT
ATOM      1  N   UNL     1       2.233   5.380  -8.839  0.00  0.00    -0.329 N 
ATOM      2  C   UNL     1       3.449   5.332  -9.433  0.00  0.00    +0.060 A 
ATOM      3  C   UNL     1       4.436   5.472  -8.466  0.00  0.00    +0.017 A 
ATOM      4  C   UNL     1       5.745   5.792  -8.806  0.00  0.00    +0.001 A 
ATOM      5  C   UNL     1       6.088   5.717 -10.149  0.00  0.00    +0.000 A 
ATOM      6  C   UNL     1       5.156   5.333 -11.092  0.00  0.00    +0.001 A 
ATOM      7  C   UNL     1       3.739   5.520  -7.268  0.00  0.00    +0.017 A 
ATOM      8  C   UNL     1       3.811   5.426 -10.771  0.00  0.00    +0.017 A 
ATOM      9  C   UNL     1       2.414   5.188  -7.528  0.00  0.00    +0.060 A 
ENDROOT
BRANCH   7  10
ATOM     10  C   UNL     1       4.338   5.934  -5.994  0.00  0.00    +0.002 A 
ATOM     11  C   UNL     1       4.659   4.935  -5.089  0.00  0.00    +0.002 A 
ATOM     12  C   UNL     1       4.680   5.152  -3.719  0.00  0.00    +0.030 A 
ATOM     13  C   UNL     1       4.069   6.289  -3.206  0.00  0.00    +0.140 A 
ATOM     14  F   UNL     1       4.167   6.529  -1.866  0.00  0.00    -0.204 F 
ATOM     15  C   UNL     1       3.934   7.347  -4.078  0.00  0.00    +0.030 A 
ATOM     16  C   UNL     1       4.068   7.178  -5.433  0.00  0.00    +0.002 A 
ENDBRANCH   7  10
BRANCH   1  18
ATOM     17  C   UNL     1       1.005   6.882 -10.204  0.00  0.00    +0.024 C 
ATOM     18  C   UNL     1       0.963   5.736  -9.452  0.00  0.00    +0.086 C 
ATOM     19  C   UNL     1       0.555   4.596 -10.382  0.00  0.00    +0.024 C 
ENDBRANCH   1  18
BRANCH   9  20
ATOM     20  C   UNL     1       1.434   4.798  -6.505  0.00  0.00    +0.015 C 
ATOM     21  C   UNL     1       0.798   5.772  -5.932  0.00  0.00    +0.008 C 
BRANCH  21  22
ATOM     22  C   UNL     1      -0.522   5.340  -5.031  0.00  0.00    +0.177 C 
ATOM     23  O   UNL     1       0.324   5.100  -3.745  0.00  0.00    -0.218 OA
BRANCH  22  24
ATOM     24  C   UNL     1      -0.854   6.935  -4.593  0.00  0.00    +0.071 C 
BRANCH  24  25
ATOM     25  C   UNL     1      -2.526   6.910  -4.805  0.00  0.00    +0.166 C 
ATOM     26  O   UNL     1      -2.418   6.349  -6.245  0.00  0.00    -0.222 OA
BRANCH  25  27
ATOM     27  C   UNL     1      -2.669   5.370  -4.141  0.00  0.00    +0.147 C 
BRANCH  27  28
ATOM     28  C   UNL     1      -2.987   5.705  -2.723  0.00  0.00    +0.367 C 
ATOM     29  O   UNL     1      -3.632   6.852  -2.331  0.00  0.00    -0.246 OA
ATOM     30  O   UNL     1      -2.605   4.937  -1.805  0.00  0.00    -0.246 OA
ENDBRANCH  27  28
ENDBRANCH  25  27
ENDBRANCH  24  25
ENDBRANCH  22  24
ENDBRANCH  21  22
ENDBRANCH   9  20
TORSDOF 8
ENDMDL
MODEL 3
REMARK VINA RESULT:      -8.4      2.375      4.480
REMARK  Name = 
REMARK  8 active torsions:
REMARK  status: ('A' for Active; 'I' for Inactive)
REMARK    1  A    between atoms: C_2  and  N_4
REMARK    2  A    between atoms: C_5  and  C_6
REMARK    3  A    between atoms: C_7  and  C_8
REMARK    4  A    between atoms: C_8  and  C_10
REMARK    5  A    between atoms: C_10  and  C_11
REMARK    6  A    between atoms: C_11  and  C_13
REMARK    7  A    between atoms: C_13  and  C_14
REMARK    8  A    between atoms: C_17  and  C_18
REMARK                            x       y       z     vdW  Elec       q    Type
REMARK                         _______ _______ _______ _____ _____    ______ ____
ROOT
ATOM      1  N   UNL     1       0.290   5.594  -8.819  0.00  0.00    -0.329 N 
ATOM      2  C   UNL     1      -0.387   5.809  -7.666  0.00  0.00    +0.060 A 
ATOM      3  C   UNL     1       0.520   6.015  -6.635  0.00  0.00    +0.017 A 
ATOM      4  C   UNL     1       0.136   5.929  -5.302  0.00  0.00    +0.001 A 
ATOM      5  C   UNL     1      -1.226   5.883  -5.036  0.00  0.00    +0.000 A 
ATOM      6  C   UNL     1      -2.145   5.928  -6.066  0.00  0.00    +0.001 A 
ATOM      7  C   UNL     1       1.759   5.992  -7.257  0.00  0.00    +0.017 A 
ATOM      8  C   UNL     1      -1.723   5.604  -7.345  0.00  0.00    +0.017 A 
ATOM      9  C   UNL     1       1.550   6.003  -8.632  0.00  0.00    +0.060 A 
ENDROOT
BRANCH   7  10
ATOM     10  C   UNL     1       3.032   5.896  -6.534  0.00  0.00    +0.002 A 
ATOM     11  C   UNL     1       3.261   4.741  -5.803  0.00  0.00    +0.002 A 
ATOM     12  C   UNL     1       4.072   4.722  -4.677  0.00  0.00    +0.030 A 
ATOM     13  C   UNL     1       4.415   5.924  -4.073  0.00  0.00    +0.140 A 
ATOM     14  F   UNL     1       5.277   5.895  -3.015  0.00  0.00    -0.204 F 
ATOM     15  C   UNL     1       4.366   7.041  -4.879  0.00  0.00    +0.030 A 
ATOM     16  C   UNL     1       3.698   7.029  -6.077  0.00  0.00    +0.002 A 
ENDBRANCH   7  10
BRANCH   1  18
ATOM     17  C   UNL     1      -0.157   5.658 -11.148  0.00  0.00    +0.024 C 
ATOM     18  C   UNL     1      -0.183   4.899 -10.006  0.00  0.00    +0.086 C 
ATOM     19  C   UNL     1       0.727   3.696 -10.239  0.00  0.00    +0.024 C 
ENDBRANCH   1  18
BRANCH   9  20
ATOM     20  C   UNL     1       2.579   6.321  -9.632  0.00  0.00    +0.015 C 
ATOM     21  C   UNL     1       3.448   5.388  -9.864  0.00  0.00    +0.008 C 
BRANCH  21  22
ATOM     22  C   UNL     1       4.397   5.604 -11.204  0.00  0.00    +0.177 C 
ATOM     23  O   UNL     1       3.296   6.404 -11.962  0.00  0.00    -0.218 OA
BRANCH  22  24
ATOM     24  C   UNL     1       5.091   7.015 -10.591  0.00  0.00    +0.071 C 
BRANCH  24  25
ATOM     25  C   UNL     1       6.328   7.197 -11.721  0.00  0.00    +0.166 C 
ATOM     26  O   UNL     1       6.798   8.542 -11.111  0.00  0.00    -0.222 OA
BRANCH  25  27
ATOM     27  C   UNL     1       7.418   6.315 -10.790  0.00  0.00    +0.147 C 
BRANCH  27  28
ATOM     28  C   UNL     1       8.169   5.587 -11.852  0.00  0.00    +0.367 C 
ATOM     29  O   UNL     1       9.433   5.926 -12.269  0.00  0.00    -0.246 OA
ATOM     30  O   UNL     1       7.616   4.637 -12.461  0.00  0.00    -0.246 OA
ENDBRANCH  27  28
ENDBRANCH  25  27
ENDBRANCH  24  25
ENDBRANCH  22  24
ENDBRANCH  21  22
ENDBRANCH   9  20
TORSDOF 8
ENDMDL
MODEL 4
REMARK VINA RESULT:      -8.3      2.993      5.122
REMARK  Name = 
REMARK  8 active torsions:
REMARK  status: ('A' for Active; 'I' for Inactive)
REMARK    1  A    between atoms: C_2  and  N_4
REMARK    2  A    between atoms: C_5  and  C_6
REMARK    3  A    between atoms: C_7  and  C_8
REMARK    4  A    between atoms: C_8  and  C_10
REMARK    5  A    between atoms: C_10  and  C_11
REMARK    6  A    between atoms: C_11  and  C_13
REMARK    7  A    between atoms: C_13  and  C_14
REMARK    8  A    between atoms: C_17  and  C_18
REMARK                            x       y       z     vdW  Elec       q    Type
REMARK                         _______ _______ _______ _____ _____    ______ ____
ROOT
ATOM      1  N   UNL     1       3.211   6.856  -3.899  0.00  0.00    -0.329 N 
ATOM      2  C   UNL     1       2.531   6.103  -3.002  0.00  0.00    +0.060 A 
ATOM      3  C   UNL     1       1.293   5.766  -3.534  0.00  0.00    +0.017 A 
ATOM      4  C   UNL     1       0.264   5.290  -2.730  0.00  0.00    +0.001 A 
ATOM      5  C   UNL     1       0.589   4.925  -1.431  0.00  0.00    +0.000 A 
ATOM      6  C   UNL     1       1.889   5.032  -0.976  0.00  0.00    +0.001 A 
ATOM      7  C   UNL     1       1.316   6.289  -4.817  0.00  0.00    +0.017 A 
ATOM      8  C   UNL     1       2.761   5.869  -1.652  0.00  0.00    +0.017 A 
ATOM      9  C   UNL     1       2.614   6.710  -5.087  0.00  0.00    +0.060 A 
ENDROOT
BRANCH   7  10
ATOM     10  C   UNL     1       0.126   6.418  -5.665  0.00  0.00    +0.002 A 
ATOM     11  C   UNL     1      -0.984   7.038  -5.112  0.00  0.00    +0.002 A 
ATOM     12  C   UNL     1      -2.278   6.747  -5.519  0.00  0.00    +0.030 A 
ATOM     13  C   UNL     1      -2.509   5.598  -6.265  0.00  0.00    +0.140 A 
ATOM     14  F   UNL     1      -3.772   5.367  -6.725  0.00  0.00    -0.204 F 
ATOM     15  C   UNL     1      -1.429   5.107  -6.966  0.00  0.00    +0.030 A 
ATOM     16  C   UNL     1      -0.149   5.507  -6.680  0.00  0.00    +0.002 A 
ENDBRANCH   7  10
BRANCH   1  18
ATOM     17  C   UNL     1       4.229   8.379  -2.391  0.00  0.00    +0.024 C 
ATOM     18  C   UNL     1       4.291   7.792  -3.629  0.00  0.00    +0.086 C 
ATOM     19  C   UNL     1       5.608   7.023  -3.703  0.00  0.00    +0.024 C 
ENDBRANCH   1  18
BRANCH   9  20
ATOM     20  C   UNL     1       3.135   7.007  -6.429  0.00  0.00    +0.015 C 
ATOM     21  C   UNL     1       3.768   6.039  -7.015  0.00  0.00    +0.008 C 
BRANCH  21  22
ATOM     22  C   UNL     1       4.066   6.249  -8.630  0.00  0.00    +0.177 C 
ATOM     23  O   UNL     1       5.107   5.091  -8.678  0.00  0.00    -0.218 OA
BRANCH  22  24
ATOM     24  C   UNL     1       2.807   5.222  -9.084  0.00  0.00    +0.071 C 
BRANCH  24  25
ATOM     25  C   UNL     1       2.098   6.199 -10.261  0.00  0.00    +0.166 C 
ATOM     26  O   UNL     1       3.117   5.771 -11.347  0.00  0.00    -0.222 OA
BRANCH  25  27
ATOM     27  C   UNL     1       1.006   5.002 -10.714  0.00  0.00    +0.147 C 
BRANCH  27  28
ATOM     28  C   UNL     1       0.551   5.523 -12.034  0.00  0.00    +0.367 C 
ATOM     29  O   UNL     1       0.112   6.807 -12.244  0.00  0.00    -0.246 OA
ATOM     30  O   UNL     1       0.502   4.747 -13.022  0.00  0.00    -0.246 OA
ENDBRANCH  27  28
ENDBRANCH  25  27
ENDBRANCH  24  25
ENDBRANCH  22  24
ENDBRANCH  21  22
ENDBRANCH   9  20
TORSDOF 8
ENDMDL
MODEL 5
REMARK VINA RESULT:      -8.2      5.819      9.222
REMARK  Name = 
REMARK  8 active torsions:
REMARK  status: ('A' for Active; 'I' for Inactive)
REMARK    1  A    between atoms: C_2  and  N_4
REMARK    2  A    between atoms: C_5  and  C_6
REMARK    3  A    between atoms: C_7  and  C_8
REMARK    4  A    between atoms: C_8  and  C_10
REMARK    5  A    between atoms: C_10  and  C_11
REMARK    6  A    between atoms: C_11  and  C_13
REMARK    7  A    between atoms: C_13  and  C_14
REMARK    8  A    between atoms: C_17  and  C_18
REMARK                            x       y       z     vdW  Elec       q    Type
REMARK                         _______ _______ _______ _____ _____    ______ ____
ROOT
ATOM      1  N   UNL     1      -0.183   5.523  -5.734  0.00  0.00    -0.329 N 
ATOM      2  C   UNL     1       0.219   5.468  -7.026  0.00  0.00    +0.060 A 
ATOM      3  C   UNL     1       1.604   5.547  -7.078  0.00  0.00    +0.017 A 
ATOM      4  C   UNL     1       2.270   5.848  -8.261  0.00  0.00    +0.001 A 
ATOM      5  C   UNL     1       1.528   5.816  -9.433  0.00  0.00    +0.000 A 
ATOM      6  C   UNL     1       0.186   5.491  -9.406  0.00  0.00    +0.001 A 
ATOM      7  C   UNL     1       1.997   5.567  -5.749  0.00  0.00    +0.017 A 
ATOM      8  C   UNL     1      -0.499   5.604  -8.208  0.00  0.00    +0.017 A 
ATOM      9  C   UNL     1       0.885   5.276  -4.967  0.00  0.00    +0.060 A 
ENDROOT
BRANCH   7  10
ATOM     10  C   UNL     1       3.351   5.918  -5.305  0.00  0.00    +0.002 A 
ATOM     11  C   UNL     1       3.965   5.063  -4.403  0.00  0.00    +0.002 A 
ATOM     12  C   UNL     1       4.919   5.501  -3.496  0.00  0.00    +0.030 A 
ATOM     13  C   UNL     1       5.048   6.863  -3.257  0.00  0.00    +0.140 A 
ATOM     14  F   UNL     1       6.044   7.284  -2.423  0.00  0.00    -0.204 F 
ATOM     15  C   UNL     1       4.604   7.697  -4.260  0.00  0.00    +0.030 A 
ATOM     16  C   UNL     1       3.783   7.239  -5.259  0.00  0.00    +0.002 A 
ENDBRANCH   7  10
BRANCH   1  18
ATOM     17  C   UNL     1      -1.683   7.289  -5.227  0.00  0.00    +0.024 C 
ATOM     18  C   UNL     1      -1.484   5.933  -5.229  0.00  0.00    +0.086 C 
ATOM     19  C   UNL     1      -2.552   5.318  -6.130  0.00  0.00    +0.024 C 
ENDBRANCH   1  18
BRANCH   9  20
ATOM     20  C   UNL     1       0.937   4.872  -3.555  0.00  0.00    +0.015 C 
ATOM     21  C   UNL     1       0.983   5.839  -2.693  0.00  0.00    +0.008 C 
BRANCH  21  22
ATOM     22  C   UNL     1       0.712   5.411  -1.116  0.00  0.00    +0.177 C 
ATOM     23  O   UNL     1       2.156   5.793  -0.672  0.00  0.00    -0.218 OA
BRANCH  22  24
ATOM     24  C   UNL     1       0.115   6.937  -0.714  0.00  0.00    +0.071 C 
BRANCH  24  25
ATOM     25  C   UNL     1      -1.429   6.479  -0.219  0.00  0.00    +0.166 C 
ATOM     26  O   UNL     1      -1.592   7.718   0.698  0.00  0.00    -0.222 OA
BRANCH  25  27
ATOM     27  C   UNL     1      -2.165   7.257  -1.518  0.00  0.00    +0.147 C 
BRANCH  27  28
ATOM     28  C   UNL     1      -2.989   6.148  -2.078  0.00  0.00    +0.367 C 
ATOM     29  O   UNL     1      -2.612   4.827  -2.062  0.00  0.00    -0.246 OA
ATOM     30  O   UNL     1      -4.072   6.413  -2.658  0.00  0.00    -0.246 OA
ENDBRANCH  27  28
ENDBRANCH  25  27
ENDBRANCH  24  25
ENDBRANCH  22  24
ENDBRANCH  21  22
ENDBRANCH   9  20
TORSDOF 8
ENDMDL
MODEL 6
REMARK VINA RESULT:      -8.2      4.268      7.246
REMARK  Name = 
REMARK  8 active torsions:
REMARK  status: ('A' for Active; 'I' for Inactive)
REMARK    1  A    between atoms: C_2  and  N_4
REMARK    2  A    between atoms: C_5  and  C_6
REMARK    3  A    between atoms: C_7  and  C_8
REMARK    4  A    between atoms: C_8  and  C_10
REMARK    5  A    between atoms: C_10  and  C_11
REMARK    6  A    between atoms: C_11  and  C_13
REMARK    7  A    between atoms: C_13  and  C_14
REMARK    8  A    between atoms: C_17  and  C_18
REMARK                            x       y       z     vdW  Elec       q    Type
REMARK                         _______ _______ _______ _____ _____    ______ ____
ROOT
ATOM      1  N   UNL     1       1.542   5.278  -8.092  0.00  0.00    -0.329 N 
ATOM      2  C   UNL     1       1.311   5.101  -9.414  0.00  0.00    +0.060 A 
ATOM      3  C   UNL     1       2.469   5.389 -10.124  0.00  0.00    +0.017 A 
ATOM      4  C   UNL     1       2.442   5.618 -11.495  0.00  0.00    +0.001 A 
ATOM      5  C   UNL     1       1.271   5.300 -12.168  0.00  0.00    +0.000 A 
ATOM      6  C   UNL     1       0.190   4.775 -11.488  0.00  0.00    +0.001 A 
ATOM      7  C   UNL     1       3.412   5.663  -9.146  0.00  0.00    +0.017 A 
ATOM      8  C   UNL     1       0.121   4.950 -10.116  0.00  0.00    +0.017 A 
ATOM      9  C   UNL     1       2.867   5.316  -7.914  0.00  0.00    +0.060 A 
ENDROOT
BRANCH   7  10
ATOM     10  C   UNL     1       4.714   6.283  -9.420  0.00  0.00    +0.002 A 
ATOM     11  C   UNL     1       4.746   7.301 -10.360  0.00  0.00    +0.002 A 
ATOM     12  C   UNL     1       5.876   7.576 -11.118  0.00  0.00    +0.030 A 
ATOM     13  C   UNL     1       6.895   6.635 -11.178  0.00  0.00    +0.140 A 
ATOM     14  F   UNL     1       8.032   6.953 -11.861  0.00  0.00    -0.204 F 
ATOM     15  C   UNL     1       6.960   5.748 -10.125  0.00  0.00    +0.030 A 
ATOM     16  C   UNL     1       5.903   5.579  -9.267  0.00  0.00    +0.002 A 
ENDBRANCH   7  10
BRANCH   1  18
ATOM     17  C   UNL     1       0.640   4.696  -5.977  0.00  0.00    +0.024 C 
ATOM     18  C   UNL     1       0.563   5.546  -7.050  0.00  0.00    +0.086 C 
ATOM     19  C   UNL     1       0.807   6.960  -6.530  0.00  0.00    +0.024 C 
ENDBRANCH   1  18
BRANCH   9  20
ATOM     20  C   UNL     1       3.642   5.134  -6.678  0.00  0.00    +0.015 C 
ATOM     21  C   UNL     1       4.029   6.222  -6.089  0.00  0.00    +0.008 C 
BRANCH  21  22
ATOM     22  C   UNL     1       4.606   6.039  -4.547  0.00  0.00    +0.177 C 
ATOM     23  O   UNL     1       5.521   7.297  -4.647  0.00  0.00    -0.218 OA
BRANCH  22  24
ATOM     24  C   UNL     1       3.342   6.932  -3.876  0.00  0.00    +0.071 C 
BRANCH  24  25
ATOM     25  C   UNL     1       3.116   6.027  -2.472  0.00  0.00    +0.166 C 
ATOM     26  O   UNL     1       3.037   7.289  -1.574  0.00  0.00    -0.222 OA
BRANCH  25  27
ATOM     27  C   UNL     1       1.445   5.981  -2.673  0.00  0.00    +0.147 C 
BRANCH  27  28
ATOM     28  C   UNL     1       1.055   5.067  -1.562  0.00  0.00    +0.367 C 
ATOM     29  O   UNL     1       1.951   4.435  -0.736  0.00  0.00    -0.246 OA
ATOM     30  O   UNL     1      -0.159   4.795  -1.382  0.00  0.00    -0.246 OA
ENDBRANCH  27  28
ENDBRANCH  25  27
ENDBRANCH  24  25
ENDBRANCH  22  24
ENDBRANCH  21  22
ENDBRANCH   9  20
TORSDOF 8
ENDMDL
MODEL 7
REMARK VINA RESULT:      -8.2      1.521      2.059
REMARK  Name = 
REMARK  8 active torsions:
REMARK  status: ('A' for Active; 'I' for Inactive)
REMARK    1  A    between atoms: C_2  and  N_4
REMARK    2  A    between atoms: C_5  and  C_6
REMARK    3  A    between atoms: C_7  and  C_8
REMARK    4  A    between atoms: C_8  and  C_10
REMARK    5  A    between atoms: C_10  and  C_11
REMARK    6  A    between atoms: C_11  and  C_13
REMARK    7  A    between atoms: C_13  and  C_14
REMARK    8  A    between atoms: C_17  and  C_18
REMARK                            x       y       z     vdW  Elec       q    Type
REMARK                         _______ _______ _______ _____ _____    ______ ____
ROOT
ATOM      1  N   UNL     1       2.169   6.034  -6.859  0.00  0.00    -0.329 N 
ATOM      2  C   UNL     1       0.957   5.699  -6.354  0.00  0.00    +0.060 A 
ATOM      3  C   UNL     1       0.068   5.490  -7.400  0.00  0.00    +0.017 A 
ATOM      4  C   UNL     1      -1.306   5.464  -7.190  0.00  0.00    +0.001 A 
ATOM      5  C   UNL     1      -1.746   5.400  -5.875  0.00  0.00    +0.000 A 
ATOM      6  C   UNL     1      -0.841   5.358  -4.833  0.00  0.00    +0.001 A 
ATOM      7  C   UNL     1       0.840   5.638  -8.542  0.00  0.00    +0.017 A 
ATOM      8  C   UNL     1       0.455   5.791  -5.062  0.00  0.00    +0.017 A 
ATOM      9  C   UNL     1       2.174   5.701  -8.154  0.00  0.00    +0.060 A 
ENDROOT
BRANCH   7  10
ATOM     10  C   UNL     1       0.280   5.775  -9.892  0.00  0.00    +0.002 A 
ATOM     11  C   UNL     1       0.255   4.640 -10.687  0.00  0.00    +0.002 A 
ATOM     12  C   UNL     1       0.308   4.703 -12.072  0.00  0.00    +0.030 A 
ATOM     13  C   UNL     1       0.707   5.886 -12.680  0.00  0.00    +0.140 A 
ATOM     14  F   UNL     1       0.677   5.957 -14.043  0.00  0.00    -0.204 F 
ATOM     15  C   UNL     1       0.541   7.033 -11.935  0.00  0.00    +0.030 A 
ATOM     16  C   UNL     1       0.329   6.982 -10.581  0.00  0.00    +0.002 A 
ENDBRANCH   7  10
BRANCH   1  18
ATOM     17  C   UNL     1       2.878   7.285  -4.973  0.00  0.00    +0.024 C 
ATOM     18  C   UNL     1       3.233   6.769  -6.193  0.00  0.00    +0.086 C 
ATOM     19  C   UNL     1       4.394   5.805  -5.959  0.00  0.00    +0.024 C 
ENDBRANCH   1  18
BRANCH   9  20
ATOM     20  C   UNL     1       3.318   5.519  -9.060  0.00  0.00    +0.015 C 
ATOM     21  C   UNL     1       3.815   6.604  -9.566  0.00  0.00    +0.008 C 
BRANCH  21  22
ATOM     22  C   UNL     1       5.285   6.442 -10.312  0.00  0.00    +0.177 C 
ATOM     23  O   UNL     1       5.599   5.095  -9.595  0.00  0.00    -0.218 OA
BRANCH  22  24
ATOM     24  C   UNL     1       4.618   5.653 -11.646  0.00  0.00    +0.071 C 
BRANCH  24  25
ATOM     25  C   UNL     1       5.651   6.254 -12.834  0.00  0.00    +0.166 C 
ATOM     26  O   UNL     1       6.434   4.921 -12.944  0.00  0.00    -0.222 OA
BRANCH  25  27
ATOM     27  C   UNL     1       4.603   5.822 -14.078  0.00  0.00    +0.147 C 
BRANCH  27  28
ATOM     28  C   UNL     1       4.992   6.807 -15.127  0.00  0.00    +0.367 C 
ATOM     29  O   UNL     1       4.401   6.885 -16.365  0.00  0.00    -0.246 OA
ATOM     30  O   UNL     1       5.954   7.588 -14.917  0.00  0.00    -0.246 OA
ENDBRANCH  27  28
ENDBRANCH  25  27
ENDBRANCH  24  25
ENDBRANCH  22  24
ENDBRANCH  21  22
ENDBRANCH   9  20
TORSDOF 8
ENDMDL
MODEL 8
REMARK VINA RESULT:      -8.0      2.730      4.942
REMARK  Name = 
REMARK  8 active torsions:
REMARK  status: ('A' for Active; 'I' for Inactive)
REMARK    1  A    between atoms: C_2  and  N_4
REMARK    2  A    between atoms: C_5  and  C_6
REMARK    3  A    between atoms: C_7  and  C_8
REMARK    4  A    between atoms: C_8  and  C_10
REMARK    5  A    between atoms: C_10  and  C_11
REMARK    6  A    between atoms: C_11  and  C_13
REMARK    7  A    between atoms: C_13  and  C_14
REMARK    8  A    between atoms: C_17  and  C_18
REMARK                            x       y       z     vdW  Elec       q    Type
REMARK                         _______ _______ _______ _____ _____    ______ ____
ROOT
ATOM      1  N   UNL     1       1.070   5.928  -8.880  0.00  0.00    -0.329 N 
ATOM      2  C   UNL     1       0.200   5.872  -7.844  0.00  0.00    +0.060 A 
ATOM      3  C   UNL     1       0.900   5.998  -6.651  0.00  0.00    +0.017 A 
ATOM      4  C   UNL     1       0.329   5.648  -5.434  0.00  0.00    +0.001 A 
ATOM      5  C   UNL     1      -1.039   5.412  -5.420  0.00  0.00    +0.000 A 
ATOM      6  C   UNL     1      -1.784   5.530  -6.576  0.00  0.00    +0.001 A 
ATOM      7  C   UNL     1       2.212   6.214  -7.045  0.00  0.00    +0.017 A 
ATOM      8  C   UNL     1      -1.130   5.474  -7.795  0.00  0.00    +0.017 A 
ATOM      9  C   UNL     1       2.219   6.433  -8.418  0.00  0.00    +0.060 A 
ENDROOT
BRANCH   7  10
ATOM     10  C   UNL     1       3.359   6.134  -6.132  0.00  0.00    +0.002 A 
ATOM     11  C   UNL     1       3.686   4.884  -5.630  0.00  0.00    +0.002 A 
ATOM     12  C   UNL     1       4.309   4.717  -4.402  0.00  0.00    +0.030 A 
ATOM     13  C   UNL     1       4.331   5.778  -3.506  0.00  0.00    +0.140 A 
ATOM     14  F   UNL     1       5.016   5.624  -2.335  0.00  0.00    -0.204 F 
ATOM     15  C   UNL     1       4.197   7.035  -4.055  0.00  0.00    +0.030 A 
ATOM     16  C   UNL     1       3.729   7.210  -5.332  0.00  0.00    +0.002 A 
ENDBRANCH   7  10
BRANCH   1  18
ATOM     17  C   UNL     1       0.231   4.191 -10.261  0.00  0.00    +0.024 C 
ATOM     18  C   UNL     1       0.885   5.396 -10.221  0.00  0.00    +0.086 C 
ATOM     19  C   UNL     1       0.043   6.396 -11.010  0.00  0.00    +0.024 C 
ENDBRANCH   1  18
BRANCH   9  20
ATOM     20  C   UNL     1       3.339   7.024  -9.165  0.00  0.00    +0.015 C 
ATOM     21  C   UNL     1       4.170   6.182  -9.695  0.00  0.00    +0.008 C 
BRANCH  21  22
ATOM     22  C   UNL     1       5.231   6.815 -10.798  0.00  0.00    +0.177 C 
ATOM     23  O   UNL     1       6.127   5.540 -10.799  0.00  0.00    -0.218 OA
BRANCH  22  24
ATOM     24  C   UNL     1       4.329   6.261 -12.112  0.00  0.00    +0.071 C 
BRANCH  24  25
ATOM     25  C   UNL     1       5.526   5.351 -12.872  0.00  0.00    +0.166 C 
ATOM     26  O   UNL     1       4.508   4.325 -13.430  0.00  0.00    -0.222 OA
BRANCH  25  27
ATOM     27  C   UNL     1       5.459   6.283 -14.273  0.00  0.00    +0.147 C 
BRANCH  27  28
ATOM     28  C   UNL     1       6.908   6.552 -14.500  0.00  0.00    +0.367 C 
ATOM     29  O   UNL     1       7.901   6.205 -13.617  0.00  0.00    -0.246 OA
ATOM     30  O   UNL     1       7.267   7.183 -15.525  0.00  0.00    -0.246 OA
ENDBRANCH  27  28
ENDBRANCH  25  27
ENDBRANCH  24  25
ENDBRANCH  22  24
ENDBRANCH  21  22
ENDBRANCH   9  20
TORSDOF 8
ENDMDL
MODEL 9
REMARK VINA RESULT:      -8.0      6.261      9.387
REMARK  Name = 
REMARK  8 active torsions:
REMARK  status: ('A' for Active; 'I' for Inactive)
REMARK    1  A    between atoms: C_2  and  N_4
REMARK    2  A    between atoms: C_5  and  C_6
REMARK    3  A    between atoms: C_7  and  C_8
REMARK    4  A    between atoms: C_8  and  C_10
REMARK    5  A    between atoms: C_10  and  C_11
REMARK    6  A    between atoms: C_11  and  C_13
REMARK    7  A    between atoms: C_13  and  C_14
REMARK    8  A    between atoms: C_17  and  C_18
REMARK                            x       y       z     vdW  Elec       q    Type
REMARK                         _______ _______ _______ _____ _____    ______ ____
ROOT
ATOM      1  N   UNL     1      -0.519   6.016  -3.284  0.00  0.00    -0.329 N 
ATOM      2  C   UNL     1      -0.849   5.665  -4.550  0.00  0.00    +0.060 A 
ATOM      3  C   UNL     1       0.310   5.517  -5.300  0.00  0.00    +0.017 A 
ATOM      4  C   UNL     1       0.276   5.490  -6.689  0.00  0.00    +0.001 A 
ATOM      5  C   UNL     1      -0.968   5.360  -7.292  0.00  0.00    +0.000 A 
ATOM      6  C   UNL     1      -2.112   5.258  -6.526  0.00  0.00    +0.001 A 
ATOM      7  C   UNL     1       1.336   5.718  -4.390  0.00  0.00    +0.017 A 
ATOM      8  C   UNL     1      -2.071   5.693  -5.211  0.00  0.00    +0.017 A 
ATOM      9  C   UNL     1       0.781   5.751  -3.116  0.00  0.00    +0.060 A 
ENDROOT
BRANCH   7  10
ATOM     10  C   UNL     1       2.736   5.929  -4.776  0.00  0.00    +0.002 A 
ATOM     11  C   UNL     1       3.671   5.029  -4.289  0.00  0.00    +0.002 A 
ATOM     12  C   UNL     1       4.997   5.378  -4.076  0.00  0.00    +0.030 A 
ATOM     13  C   UNL     1       5.345   6.722  -4.044  0.00  0.00    +0.140 A 
ATOM     14  F   UNL     1       6.664   7.048  -3.914  0.00  0.00    -0.204 F 
ATOM     15  C   UNL     1       4.495   7.581  -4.706  0.00  0.00    +0.030 A 
ATOM     16  C   UNL     1       3.229   7.197  -5.066  0.00  0.00    +0.002 A 
ENDBRANCH   7  10
BRANCH   1  18
ATOM     17  C   UNL     1      -2.152   7.682  -2.852  0.00  0.00    +0.024 C 
ATOM     18  C   UNL     1      -1.352   6.708  -2.312  0.00  0.00    +0.086 C 
ATOM     19  C   UNL     1      -2.268   5.676  -1.660  0.00  0.00    +0.024 C 
ENDBRANCH   1  18
BRANCH   9  20
ATOM     20  C   UNL     1       1.543   5.607  -1.867  0.00  0.00    +0.015 C 
ATOM     21  C   UNL     1       2.218   6.650  -1.495  0.00  0.00    +0.008 C 
BRANCH  21  22
ATOM     22  C   UNL     1       2.805   6.613   0.053  0.00  0.00    +0.177 C 
ATOM     23  O   UNL     1       4.289   6.550  -0.417  0.00  0.00    -0.218 OA
BRANCH  22  24
ATOM     24  C   UNL     1       2.846   8.296   0.169  0.00  0.00    +0.071 C 
BRANCH  24  25
ATOM     25  C   UNL     1       2.042   8.466   1.640  0.00  0.00    +0.166 C 
ATOM     26  O   UNL     1       2.934   9.653   2.084  0.00  0.00    -0.222 OA
BRANCH  25  27
ATOM     27  C   UNL     1       0.882   9.492   0.982  0.00  0.00    +0.147 C 
BRANCH  27  28
ATOM     28  C   UNL     1      -0.299   8.584   0.931  0.00  0.00    +0.367 C 
ATOM     29  O   UNL     1      -0.319   7.319   1.465  0.00  0.00    -0.246 OA
ATOM     30  O   UNL     1      -1.334   8.949   0.318  0.00  0.00    -0.246 OA
ENDBRANCH  27  28
ENDBRANCH  25  27
ENDBRANCH  24  25
ENDBRANCH  22  24
ENDBRANCH  21  22
ENDBRANCH   9  20
TORSDOF 8
ENDMDL
