MODEL 1
REMARK VINA RESULT:      -8.8      0.000      0.000
REMARK  Name = 
REMARK  15 active torsions:
REMARK  status: ('A' for Active; 'I' for Inactive)
REMARK    1  A    between atoms: C_2  and  C_3
REMARK    2  A    between atoms: C_3  and  O_5
REMARK    3  A    between atoms: O_5  and  C_6
REMARK    4  A    between atoms: C_6  and  O_7
REMARK    5  A    between atoms: C_6  and  C_37
REMARK    6  A    between atoms: O_7  and  P_8
REMARK    7  A    between atoms: P_8  and  C_10
REMARK    8  A    between atoms: P_8  and  C_20
REMARK    9  A    between atoms: C_10  and  C_11
REMARK   10  A    between atoms: C_11  and  C_12
REMARK   11  A    between atoms: C_12  and  C_13
REMARK   12  A    between atoms: C_13  and  C_14
REMARK   13  A    between atoms: C_20  and  C_21
REMARK   14  A    between atoms: C_25  and  C_26
REMARK   15  A    between atoms: C_33  and  C_34
REMARK                            x       y       z     vdW  Elec       q    Type
REMARK                         _______ _______ _______ _____ _____    ______ ____
ROOT
ATOM      1  P   UNL     1       1.407   5.727  -6.988  0.00  0.00    +0.234 P 
ATOM      2  O   UNL     1       1.435   7.211  -6.854  0.00  0.00    -0.289 OA
ENDROOT
BRANCH   1   3
ATOM      3  C   UNL     1       1.552   5.178  -8.725  0.00  0.00    +0.172 C 
BRANCH   3   4
ATOM      4  C   UNL     1       1.637   6.433  -9.538  0.00  0.00    +0.236 C 
ATOM      5  N   UNL     1       2.780   6.903 -10.175  0.00  0.00    -0.271 N 
ATOM      6  C   UNL     1       3.189   6.519 -11.679  0.00  0.00    +0.179 C 
ATOM      7  C   UNL     1       3.553   4.996 -11.084  0.00  0.00    +0.033 C 
ATOM      8  C   UNL     1       4.811   5.550 -10.160  0.00  0.00    +0.022 C 
ATOM      9  C   UNL     1       4.072   6.951  -9.694  0.00  0.00    +0.094 C 
ATOM     10  O   UNL     1       0.606   7.161  -9.681  0.00  0.00    -0.274 OA
BRANCH   8  11
ATOM     11  C   UNL     1       5.523   6.297 -11.464  0.00  0.00    +0.002 C 
ATOM     12  C   UNL     1       6.184   5.186 -12.231  0.00  0.00    +0.000 C 
ATOM     13  C   UNL     1       7.334   5.778 -13.007  0.00  0.00    +0.000 C 
ATOM     14  C   UNL     1       8.473   6.004 -12.044  0.00  0.00    +0.000 C 
ATOM     15  C   UNL     1       7.876   6.256 -10.672  0.00  0.00    +0.000 C 
ATOM     16  C   UNL     1       6.615   7.095 -10.763  0.00  0.00    +0.000 C 
ENDBRANCH   8  11
BRANCH   6  17
ATOM     17  C   UNL     1       1.657   6.130 -12.133  0.00  0.00    +0.382 C 
ATOM     18  O   UNL     1       1.289   4.851 -12.197  0.00  0.00    -0.244 OA
ATOM     19  O   UNL     1       1.099   7.046 -12.776  0.00  0.00    -0.244 OA
ENDBRANCH   6  17
ENDBRANCH   3   4
ENDBRANCH   1   3
BRANCH   1  20
ATOM     20  O   UNL     1       2.704   4.977  -6.173  0.00  0.00    -0.276 OA
BRANCH  20  21
ATOM     21  C   UNL     1       3.016   6.085  -5.107  0.00  0.00    +0.295 C 
BRANCH  21  22
ATOM     22  C   UNL     1       4.632   5.558  -4.970  0.00  0.00    +0.071 C 
ATOM     23  C   UNL     1       5.236   6.688  -4.147  0.00  0.00    +0.006 C 
ATOM     24  C   UNL     1       5.124   5.688  -6.399  0.00  0.00    +0.006 C 
ENDBRANCH  21  22
BRANCH  21  25
ATOM     25  O   UNL     1       2.563   5.124  -3.917  0.00  0.00    -0.424 OA
BRANCH  25  26
ATOM     26  C   UNL     1       1.634   5.801  -3.114  0.00  0.00    +0.319 C 
ATOM     27  O   UNL     1       0.978   6.793  -3.554  0.00  0.00    -0.250 OA
BRANCH  26  29
ATOM     28  C   UNL     1       0.940   4.912  -1.386  0.00  0.00    +0.012 C 
ATOM     29  C   UNL     1       0.965   5.000  -2.045  0.00  0.00    +0.110 C 
ENDBRANCH  26  29
ENDBRANCH  25  26
ENDBRANCH  21  25
ENDBRANCH  20  21
ENDBRANCH   1  20
BRANCH   1  30
ATOM     30  C   UNL     1      -0.130   4.976  -6.411  0.00  0.00    +0.088 C 
BRANCH  30  31
ATOM     31  C   UNL     1      -1.326   5.371  -7.224  0.00  0.00    +0.011 C 
BRANCH  31  32
ATOM     32  C   UNL     1      -2.483   5.513  -6.242  0.00  0.00    +0.005 C 
BRANCH  32  33
ATOM     33  C   UNL     1      -2.363   6.906  -5.640  0.00  0.00    +0.026 C 
BRANCH  33  34
ATOM     34  C   UNL     1      -2.651   6.747  -4.180  0.00  0.00    -0.022 A 
ATOM     35  C   UNL     1      -2.210   7.790  -3.374  0.00  0.00    -0.004 A 
ATOM     36  C   UNL     1      -2.040   7.609  -2.011  0.00  0.00    -0.000 A 
ATOM     37  C   UNL     1      -2.393   6.415  -1.420  0.00  0.00    -0.000 A 
ATOM     38  C   UNL     1      -2.734   5.353  -2.241  0.00  0.00    -0.000 A 
ATOM     39  C   UNL     1      -2.696   5.482  -3.607  0.00  0.00    -0.004 A 
ENDBRANCH  33  34
ENDBRANCH  32  33
ENDBRANCH  31  32
ENDBRANCH  30  31
ENDBRANCH   1  30
TORSDOF 15
ENDMDL
MODEL 2
REMARK VINA RESULT:      -8.5      1.924      9.885
REMARK  Name = 
REMARK  15 active torsions:
REMARK  status: ('A' for Active; 'I' for Inactive)
REMARK    1  A    between atoms: C_2  and  C_3
REMARK    2  A    between atoms: C_3  and  O_5
REMARK    3  A    between atoms: O_5  and  C_6
REMARK    4  A    between atoms: C_6  and  O_7
REMARK    5  A    between atoms: C_6  and  C_37
REMARK    6  A    between atoms: O_7  and  P_8
REMARK    7  A    between atoms: P_8  and  C_10
REMARK    8  A    between atoms: P_8  and  C_20
REMARK    9  A    between atoms: C_10  and  C_11
REMARK   10  A    between atoms: C_11  and  C_12
REMARK   11  A    between atoms: C_12  and  C_13
REMARK   12  A    between atoms: C_13  and  C_14
REMARK   13  A    between atoms: C_20  and  C_21
REMARK   14  A    between atoms: C_25  and  C_26
REMARK   15  A    between atoms: C_33  and  C_34
REMARK                            x       y       z     vdW  Elec       q    Type
REMARK                         _______ _______ _______ _____ _____    ______ ____
ROOT
ATOM      1  P   UNL     1       3.503   5.653  -7.882  0.00  0.00    +0.234 P 
ATOM      2  O   UNL     1       3.322   7.123  -8.054  0.00  0.00    -0.289 OA
ENDROOT
BRANCH   1   3
ATOM      3  C   UNL     1       3.287   5.121  -6.146  0.00  0.00    +0.172 C 
BRANCH   3   4
ATOM      4  C   UNL     1       3.270   6.382  -5.338  0.00  0.00    +0.236 C 
ATOM      5  N   UNL     1       2.161   6.901  -4.681  0.00  0.00    -0.271 N 
ATOM      6  C   UNL     1       1.766   6.541  -3.167  0.00  0.00    +0.179 C 
ATOM      7  C   UNL     1       1.327   5.032  -3.747  0.00  0.00    +0.033 C 
ATOM      8  C   UNL     1       0.076   5.635  -4.648  0.00  0.00    +0.022 C 
ATOM      9  C   UNL     1       0.863   7.001  -5.135  0.00  0.00    +0.094 C 
ATOM     10  O   UNL     1       4.333   7.067  -5.219  0.00  0.00    -0.274 OA
BRANCH   8  11
ATOM     11  C   UNL     1      -0.579   6.416  -3.334  0.00  0.00    +0.002 C 
ATOM     12  C   UNL     1      -1.345   5.353  -2.597  0.00  0.00    +0.000 C 
ATOM     13  C   UNL     1      -2.444   6.032  -1.816  0.00  0.00    +0.000 C 
ATOM     14  C   UNL     1      -3.549   6.380  -2.783  0.00  0.00    +0.000 C 
ATOM     15  C   UNL     1      -2.918   6.606  -4.145  0.00  0.00    +0.000 C 
ATOM     16  C   UNL     1      -1.587   7.324  -4.026  0.00  0.00    +0.000 C 
ENDBRANCH   8  11
BRANCH   6  17
ATOM     17  C   UNL     1       3.289   6.090  -2.742  0.00  0.00    +0.382 C 
ATOM     18  O   UNL     1       3.605   4.797  -2.676  0.00  0.00    -0.244 OA
ATOM     19  O   UNL     1       3.899   6.985  -2.117  0.00  0.00    -0.244 OA
ENDBRANCH   6  17
ENDBRANCH   3   4
ENDBRANCH   1   3
BRANCH   1  20
ATOM     20  O   UNL     1       2.363   4.749  -8.771  0.00  0.00    -0.276 OA
BRANCH  20  21
ATOM     21  C   UNL     1       1.811   5.880  -9.709  0.00  0.00    +0.295 C 
BRANCH  21  22
ATOM     22  C   UNL     1       0.262   5.166  -9.728  0.00  0.00    +0.071 C 
ATOM     23  C   UNL     1      -0.441   6.031 -10.766  0.00  0.00    +0.006 C 
ATOM     24  C   UNL     1      -0.267   5.534  -8.356  0.00  0.00    +0.006 C 
ENDBRANCH  21  22
BRANCH  21  25
ATOM     25  O   UNL     1       2.244   5.065 -11.011  0.00  0.00    -0.424 OA
BRANCH  25  26
ATOM     26  C   UNL     1       2.940   5.922 -11.874  0.00  0.00    +0.319 C 
ATOM     27  O   UNL     1       3.509   6.973 -11.447  0.00  0.00    -0.250 OA
BRANCH  26  29
ATOM     28  C   UNL     1       3.468   5.227 -13.744  0.00  0.00    +0.012 C 
ATOM     29  C   UNL     1       3.550   5.300 -13.088  0.00  0.00    +0.110 C 
ENDBRANCH  26  29
ENDBRANCH  25  26
ENDBRANCH  21  25
ENDBRANCH  20  21
ENDBRANCH   1  20
BRANCH   1  30
ATOM     30  C   UNL     1       5.153   5.070  -8.323  0.00  0.00    +0.088 C 
BRANCH  30  31
ATOM     31  C   UNL     1       5.714   5.738  -9.543  0.00  0.00    +0.011 C 
BRANCH  31  32
ATOM     32  C   UNL     1       7.229   5.722  -9.380  0.00  0.00    +0.005 C 
BRANCH  32  33
ATOM     33  C   UNL     1       7.765   6.832 -10.272  0.00  0.00    +0.026 C 
BRANCH  33  34
ATOM     34  C   UNL     1       7.226   6.556 -11.641  0.00  0.00    -0.022 A 
ATOM     35  C   UNL     1       7.815   5.486 -12.303  0.00  0.00    -0.004 A 
ATOM     36  C   UNL     1       7.718   5.365 -13.680  0.00  0.00    -0.000 A 
ATOM     37  C   UNL     1       6.956   6.257 -14.402  0.00  0.00    -0.000 A 
ATOM     38  C   UNL     1       6.457   7.372 -13.750  0.00  0.00    -0.000 A 
ATOM     39  C   UNL     1       6.737   7.594 -12.425  0.00  0.00    -0.004 A 
ENDBRANCH  33  34
ENDBRANCH  32  33
ENDBRANCH  31  32
ENDBRANCH  30  31
ENDBRANCH   1  30
TORSDOF 15
ENDMDL
MODEL 3
REMARK VINA RESULT:      -8.4      1.622      4.024
REMARK  Name = 
REMARK  15 active torsions:
REMARK  status: ('A' for Active; 'I' for Inactive)
REMARK    1  A    between atoms: C_2  and  C_3
REMARK    2  A    between atoms: C_3  and  O_5
REMARK    3  A    between atoms: O_5  and  C_6
REMARK    4  A    between atoms: C_6  and  O_7
REMARK    5  A    between atoms: C_6  and  C_37
REMARK    6  A    between atoms: O_7  and  P_8
REMARK    7  A    between atoms: P_8  and  C_10
REMARK    8  A    between atoms: P_8  and  C_20
REMARK    9  A    between atoms: C_10  and  C_11
REMARK   10  A    between atoms: C_11  and  C_12
REMARK   11  A    between atoms: C_12  and  C_13
REMARK   12  A    between atoms: C_13  and  C_14
REMARK   13  A    between atoms: C_20  and  C_21
REMARK   14  A    between atoms: C_25  and  C_26
REMARK   15  A    between atoms: C_33  and  C_34
REMARK                            x       y       z     vdW  Elec       q    Type
REMARK                         _______ _______ _______ _____ _____    ______ ____
ROOT
ATOM      1  P   UNL     1       2.100   4.779  -6.723  0.00  0.00    +0.234 P 
ATOM      2  O   UNL     1       1.793   3.502  -6.018  0.00  0.00    -0.289 OA
ENDROOT
BRANCH   1   3
ATOM      3  C   UNL     1       2.041   4.606  -8.542  0.00  0.00    +0.172 C 
BRANCH   3   4
ATOM      4  C   UNL     1       2.034   6.003  -9.080  0.00  0.00    +0.236 C 
ATOM      5  N   UNL     1       3.093   6.616  -9.739  0.00  0.00    -0.271 N 
ATOM      6  C   UNL     1       3.311   6.561 -11.328  0.00  0.00    +0.179 C 
ATOM      7  C   UNL     1       3.736   4.955 -11.113  0.00  0.00    +0.033 C 
ATOM      8  C   UNL     1       5.101   5.329 -10.254  0.00  0.00    +0.022 C 
ATOM      9  C   UNL     1       4.435   6.588  -9.420  0.00  0.00    +0.094 C 
ATOM     10  O   UNL     1       0.999   6.725  -8.942  0.00  0.00    -0.274 OA
BRANCH   8  11
ATOM     11  C   UNL     1       5.653   6.343 -11.451  0.00  0.00    +0.002 C 
ATOM     12  C   UNL     1       6.112   5.427 -12.550  0.00  0.00    +0.000 C 
ATOM     13  C   UNL     1       7.166   6.154 -13.349  0.00  0.00    +0.000 C 
ATOM     14  C   UNL     1       8.452   6.112 -12.561  0.00  0.00    +0.000 C 
ATOM     15  C   UNL     1       8.091   6.048 -11.089  0.00  0.00    +0.000 C 
ATOM     16  C   UNL     1       6.890   6.921 -10.775  0.00  0.00    +0.000 C 
ENDBRANCH   8  11
BRANCH   6  17
ATOM     17  C   UNL     1       1.733   6.245 -11.664  0.00  0.00    +0.382 C 
ATOM     18  O   UNL     1       1.343   4.994 -11.904  0.00  0.00    -0.244 OA
ATOM     19  O   UNL     1       1.117   7.254 -12.071  0.00  0.00    -0.244 OA
ENDBRANCH   6  17
ENDBRANCH   3   4
ENDBRANCH   1   3
BRANCH   1  20
ATOM     20  O   UNL     1       0.979   6.010  -6.355  0.00  0.00    -0.276 OA
BRANCH  20  21
ATOM     21  C   UNL     1       0.143   5.276  -5.247  0.00  0.00    +0.295 C 
BRANCH  21  22
ATOM     22  C   UNL     1      -1.251   6.176  -5.643  0.00  0.00    +0.071 C 
ATOM     23  C   UNL     1      -2.161   5.825  -4.473  0.00  0.00    +0.006 C 
ATOM     24  C   UNL     1      -1.750   5.449  -6.876  0.00  0.00    +0.006 C 
ENDBRANCH  21  22
BRANCH  21  25
ATOM     25  O   UNL     1       0.574   6.355  -4.153  0.00  0.00    -0.424 OA
BRANCH  25  26
ATOM     26  C   UNL     1       1.062   5.686  -3.021  0.00  0.00    +0.319 C 
ATOM     27  O   UNL     1       2.143   5.023  -3.060  0.00  0.00    -0.250 OA
BRANCH  26  29
ATOM     28  C   UNL     1       0.699   6.137  -1.041  0.00  0.00    +0.012 C 
ATOM     29  C   UNL     1       0.702   6.268  -1.693  0.00  0.00    +0.110 C 
ENDBRANCH  26  29
ENDBRANCH  25  26
ENDBRANCH  21  25
ENDBRANCH  20  21
ENDBRANCH   1  20
BRANCH   1  30
ATOM     30  C   UNL     1       3.758   5.410  -6.391  0.00  0.00    +0.088 C 
BRANCH  30  31
ATOM     31  C   UNL     1       3.761   6.732  -5.682  0.00  0.00    +0.011 C 
BRANCH  31  32
ATOM     32  C   UNL     1       4.814   6.627  -4.586  0.00  0.00    +0.005 C 
BRANCH  32  33
ATOM     33  C   UNL     1       4.792   7.956  -3.845  0.00  0.00    +0.026 C 
BRANCH  33  34
ATOM     34  C   UNL     1       4.253   7.655  -2.481  0.00  0.00    -0.022 A 
ATOM     35  C   UNL     1       3.752   8.751  -1.789  0.00  0.00    -0.004 A 
ATOM     36  C   UNL     1       3.603   8.712  -0.412  0.00  0.00    -0.000 A 
ATOM     37  C   UNL     1       3.864   7.549   0.281  0.00  0.00    -0.000 A 
ATOM     38  C   UNL     1       4.455   6.499  -0.400  0.00  0.00    -0.000 A 
ATOM     39  C   UNL     1       4.795   6.623  -1.724  0.00  0.00    -0.004 A 
ENDBRANCH  33  34
ENDBRANCH  32  33
ENDBRANCH  31  32
ENDBRANCH  30  31
ENDBRANCH   1  30
TORSDOF 15
ENDMDL
MODEL 4
REMARK VINA RESULT:      -7.6      2.525      7.329
REMARK  Name = 
REMARK  15 active torsions:
REMARK  status: ('A' for Active; 'I' for Inactive)
REMARK    1  A    between atoms: C_2  and  C_3
REMARK    2  A    between atoms: C_3  and  O_5
REMARK    3  A    between atoms: O_5  and  C_6
REMARK    4  A    between atoms: C_6  and  O_7
REMARK    5  A    between atoms: C_6  and  C_37
REMARK    6  A    between atoms: O_7  and  P_8
REMARK    7  A    between atoms: P_8  and  C_10
REMARK    8  A    between atoms: P_8  and  C_20
REMARK    9  A    between atoms: C_10  and  C_11
REMARK   10  A    between atoms: C_11  and  C_12
REMARK   11  A    between atoms: C_12  and  C_13
REMARK   12  A    between atoms: C_13  and  C_14
REMARK   13  A    between atoms: C_20  and  C_21
REMARK   14  A    between atoms: C_25  and  C_26
REMARK   15  A    between atoms: C_33  and  C_34
REMARK                            x       y       z     vdW  Elec       q    Type
REMARK                         _______ _______ _______ _____ _____    ______ ____
ROOT
ATOM      1  P   UNL     1       2.949   5.684  -7.318  0.00  0.00    +0.234 P 
ATOM      2  O   UNL     1       2.955   4.223  -7.614  0.00  0.00    -0.289 OA
ENDROOT
BRANCH   1   3
ATOM      3  C   UNL     1       3.767   6.080  -5.733  0.00  0.00    +0.172 C 
BRANCH   3   4
ATOM      4  C   UNL     1       3.190   5.127  -4.732  0.00  0.00    +0.236 C 
ATOM      5  N   UNL     1       3.296   5.249  -3.351  0.00  0.00    -0.271 N 
ATOM      6  C   UNL     1       2.238   6.037  -2.437  0.00  0.00    +0.179 C 
ATOM      7  C   UNL     1       2.864   7.442  -3.099  0.00  0.00    +0.033 C 
ATOM      8  C   UNL     1       4.347   7.231  -2.392  0.00  0.00    +0.022 C 
ATOM      9  C   UNL     1       4.402   5.595  -2.603  0.00  0.00    +0.094 C 
ATOM     10  O   UNL     1       2.544   4.110  -5.133  0.00  0.00    -0.274 OA
BRANCH   8  11
ATOM     11  C   UNL     1       3.673   7.068  -0.881  0.00  0.00    +0.002 C 
ATOM     12  C   UNL     1       3.527   8.474  -0.370  0.00  0.00    +0.000 C 
ATOM     13  C   UNL     1       3.546   8.424   1.138  0.00  0.00    +0.000 C 
ATOM     14  C   UNL     1       4.980   8.246   1.575  0.00  0.00    +0.000 C 
ATOM     15  C   UNL     1       5.708   7.493   0.478  0.00  0.00    +0.000 C 
ATOM     16  C   UNL     1       4.829   6.416  -0.132  0.00  0.00    +0.000 C 
ENDBRANCH   8  11
BRANCH   6  17
ATOM     17  C   UNL     1       1.009   5.906  -3.521  0.00  0.00    +0.382 C 
ATOM     18  O   UNL     1       0.689   6.946  -4.290  0.00  0.00    -0.244 OA
ATOM     19  O   UNL     1       0.216   4.982  -3.239  0.00  0.00    -0.244 OA
ENDBRANCH   6  17
ENDBRANCH   3   4
ENDBRANCH   1   3
BRANCH   1  20
ATOM     20  O   UNL     1       3.789   6.589  -8.494  0.00  0.00    -0.276 OA
BRANCH  20  21
ATOM     21  C   UNL     1       3.698   5.593  -9.703  0.00  0.00    +0.295 C 
BRANCH  21  22
ATOM     22  C   UNL     1       5.086   6.273 -10.423  0.00  0.00    +0.071 C 
ATOM     23  C   UNL     1       5.115   5.529 -11.752  0.00  0.00    +0.006 C 
ATOM     24  C   UNL     1       6.193   5.728  -9.542  0.00  0.00    +0.006 C 
ENDBRANCH  21  22
BRANCH  21  25
ATOM     25  O   UNL     1       2.746   6.591 -10.504  0.00  0.00    -0.424 OA
BRANCH  25  26
ATOM     26  C   UNL     1       1.545   5.933 -10.805  0.00  0.00    +0.319 C 
ATOM     27  O   UNL     1       1.386   4.700 -10.555  0.00  0.00    -0.250 OA
BRANCH  26  29
ATOM     28  C   UNL     1      -0.090   7.133 -11.184  0.00  0.00    +0.012 C 
ATOM     29  C   UNL     1       0.305   6.765 -10.795  0.00  0.00    +0.110 C 
ENDBRANCH  26  29
ENDBRANCH  25  26
ENDBRANCH  21  25
ENDBRANCH  20  21
ENDBRANCH   1  20
BRANCH   1  30
ATOM     30  C   UNL     1       1.292   6.381  -7.149  0.00  0.00    +0.088 C 
BRANCH  30  31
ATOM     31  C   UNL     1       0.200   5.369  -7.329  0.00  0.00    +0.011 C 
BRANCH  31  32
ATOM     32  C   UNL     1      -1.112   6.109  -7.095  0.00  0.00    +0.005 C 
BRANCH  32  33
ATOM     33  C   UNL     1      -2.065   5.101  -6.471  0.00  0.00    +0.026 C 
BRANCH  33  34
ATOM     34  C   UNL     1      -2.647   5.777  -5.268  0.00  0.00    -0.022 A 
ATOM     35  C   UNL     1      -2.301   7.114  -5.117  0.00  0.00    -0.004 A 
ATOM     36  C   UNL     1      -2.417   7.741  -3.887  0.00  0.00    -0.000 A 
ATOM     37  C   UNL     1      -2.966   7.069  -2.815  0.00  0.00    -0.000 A 
ATOM     38  C   UNL     1      -3.214   5.714  -2.948  0.00  0.00    -0.000 A 
ATOM     39  C   UNL     1      -2.897   5.053  -4.109  0.00  0.00    -0.004 A 
ENDBRANCH  33  34
ENDBRANCH  32  33
ENDBRANCH  31  32
ENDBRANCH  30  31
ENDBRANCH   1  30
TORSDOF 15
ENDMDL
MODEL 5
REMARK VINA RESULT:      -7.5      2.035      4.593
REMARK  Name = 
REMARK  15 active torsions:
REMARK  status: ('A' for Active; 'I' for Inactive)
REMARK    1  A    between atoms: C_2  and  C_3
REMARK    2  A    between atoms: C_3  and  O_5
REMARK    3  A    between atoms: O_5  and  C_6
REMARK    4  A    between atoms: C_6  and  O_7
REMARK    5  A    between atoms: C_6  and  C_37
REMARK    6  A    between atoms: O_7  and  P_8
REMARK    7  A    between atoms: P_8  and  C_10
REMARK    8  A    between atoms: P_8  and  C_20
REMARK    9  A    between atoms: C_10  and  C_11
REMARK   10  A    between atoms: C_11  and  C_12
REMARK   11  A    between atoms: C_12  and  C_13
REMARK   12  A    between atoms: C_13  and  C_14
REMARK   13  A    between atoms: C_20  and  C_21
REMARK   14  A    between atoms: C_25  and  C_26
REMARK   15  A    between atoms: C_33  and  C_34
REMARK                            x       y       z     vdW  Elec       q    Type
REMARK                         _______ _______ _______ _____ _____    ______ ____
ROOT
ATOM      1  P   UNL     1       1.130   5.739  -5.571  0.00  0.00    +0.234 P 
ATOM      2  O   UNL     1       0.349   4.714  -6.320  0.00  0.00    -0.289 OA
ENDROOT
BRANCH   1   3
ATOM      3  C   UNL     1       2.279   6.667  -6.647  0.00  0.00    +0.172 C 
BRANCH   3   4
ATOM      4  C   UNL     1       1.784   6.453  -8.044  0.00  0.00    +0.236 C 
ATOM      5  N   UNL     1       2.580   6.421  -9.184  0.00  0.00    -0.271 N 
ATOM      6  C   UNL     1       3.251   5.087  -9.771  0.00  0.00    +0.179 C 
ATOM      7  C   UNL     1       4.285   5.148  -8.455  0.00  0.00    +0.033 C 
ATOM      8  C   UNL     1       5.007   6.549  -8.963  0.00  0.00    +0.022 C 
ATOM      9  C   UNL     1       3.625   7.255  -9.524  0.00  0.00    +0.094 C 
ATOM     10  O   UNL     1       0.543   6.285  -8.253  0.00  0.00    -0.274 OA
BRANCH   8  11
ATOM     11  C   UNL     1       5.348   5.906 -10.458  0.00  0.00    +0.002 C 
ATOM     12  C   UNL     1       6.725   5.319 -10.319  0.00  0.00    +0.000 C 
ATOM     13  C   UNL     1       7.361   5.300 -11.687  0.00  0.00    +0.000 C 
ATOM     14  C   UNL     1       7.820   6.704 -12.002  0.00  0.00    +0.000 C 
ATOM     15  C   UNL     1       6.902   7.665 -11.270  0.00  0.00    +0.000 C 
ATOM     16  C   UNL     1       5.464   7.179 -11.287  0.00  0.00    +0.000 C 
ENDBRANCH   8  11
BRANCH   6  17
ATOM     17  C   UNL     1       2.171   4.074  -9.054  0.00  0.00    +0.382 C 
ATOM     18  O   UNL     1       2.551   3.322  -8.022  0.00  0.00    -0.244 OA
ATOM     19  O   UNL     1       1.208   3.793  -9.800  0.00  0.00    -0.244 OA
ENDBRANCH   6  17
ENDBRANCH   3   4
ENDBRANCH   1   3
BRANCH   1  20
ATOM     20  O   UNL     1       0.132   6.922  -4.856  0.00  0.00    -0.276 OA
BRANCH  20  21
ATOM     21  C   UNL     1      -0.822   5.991  -4.028  0.00  0.00    +0.295 C 
BRANCH  21  22
ATOM     22  C   UNL     1      -2.153   7.013  -4.332  0.00  0.00    +0.071 C 
ATOM     23  C   UNL     1      -3.185   6.436  -3.372  0.00  0.00    +0.006 C 
ATOM     24  C   UNL     1      -2.534   6.617  -5.745  0.00  0.00    +0.006 C 
ENDBRANCH  21  22
BRANCH  21  25
ATOM     25  O   UNL     1      -0.481   6.773  -2.680  0.00  0.00    -0.424 OA
BRANCH  25  26
ATOM     26  C   UNL     1      -0.287   5.842  -1.650  0.00  0.00    +0.319 C 
ATOM     27  O   UNL     1      -0.055   4.620  -1.897  0.00  0.00    -0.250 OA
BRANCH  26  29
ATOM     28  C   UNL     1       0.417   6.931  -0.044  0.00  0.00    +0.012 C 
ATOM     29  C   UNL     1       0.280   6.368  -0.371  0.00  0.00    +0.110 C 
ENDBRANCH  26  29
ENDBRANCH  25  26
ENDBRANCH  21  25
ENDBRANCH  20  21
ENDBRANCH   1  20
BRANCH   1  30
ATOM     30  C   UNL     1       2.190   5.044  -4.285  0.00  0.00    +0.088 C 
BRANCH  30  31
ATOM     31  C   UNL     1       3.630   4.942  -4.692  0.00  0.00    +0.011 C 
BRANCH  31  32
ATOM     32  C   UNL     1       4.449   5.249  -3.445  0.00  0.00    +0.005 C 
BRANCH  32  33
ATOM     33  C   UNL     1       4.966   6.670  -3.613  0.00  0.00    +0.026 C 
BRANCH  33  34
ATOM     34  C   UNL     1       4.776   7.336  -2.286  0.00  0.00    -0.022 A 
ATOM     35  C   UNL     1       4.839   6.490  -1.186  0.00  0.00    -0.004 A 
ATOM     36  C   UNL     1       4.295   6.868   0.031  0.00  0.00    -0.000 A 
ATOM     37  C   UNL     1       3.763   8.129   0.191  0.00  0.00    -0.000 A 
ATOM     38  C   UNL     1       3.613   8.925  -0.932  0.00  0.00    -0.000 A 
ATOM     39  C   UNL     1       3.963   8.458  -2.175  0.00  0.00    -0.004 A 
ENDBRANCH  33  34
ENDBRANCH  32  33
ENDBRANCH  31  32
ENDBRANCH  30  31
ENDBRANCH   1  30
TORSDOF 15
ENDMDL
MODEL 6
REMARK VINA RESULT:      -7.5      2.217      8.935
REMARK  Name = 
REMARK  15 active torsions:
REMARK  status: ('A' for Active; 'I' for Inactive)
REMARK    1  A    between atoms: C_2  and  C_3
REMARK    2  A    between atoms: C_3  and  O_5
REMARK    3  A    between atoms: O_5  and  C_6
REMARK    4  A    between atoms: C_6  and  O_7
REMARK    5  A    between atoms: C_6  and  C_37
REMARK    6  A    between atoms: O_7  and  P_8
REMARK    7  A    between atoms: P_8  and  C_10
REMARK    8  A    between atoms: P_8  and  C_20
REMARK    9  A    between atoms: C_10  and  C_11
REMARK   10  A    between atoms: C_11  and  C_12
REMARK   11  A    between atoms: C_12  and  C_13
REMARK   12  A    between atoms: C_13  and  C_14
REMARK   13  A    between atoms: C_20  and  C_21
REMARK   14  A    between atoms: C_25  and  C_26
REMARK   15  A    between atoms: C_33  and  C_34
REMARK                            x       y       z     vdW  Elec       q    Type
REMARK                         _______ _______ _______ _____ _____    ______ ____
ROOT
ATOM      1  P   UNL     1       2.707   5.512  -8.792  0.00  0.00    +0.234 P 
ATOM      2  O   UNL     1       2.735   4.255  -9.593  0.00  0.00    -0.289 OA
ENDROOT
BRANCH   1   3
ATOM      3  C   UNL     1       2.720   5.194  -6.992  0.00  0.00    +0.172 C 
BRANCH   3   4
ATOM      4  C   UNL     1       2.680   6.543  -6.344  0.00  0.00    +0.236 C 
ATOM      5  N   UNL     1       1.673   7.002  -5.503  0.00  0.00    -0.271 N 
ATOM      6  C   UNL     1       1.682   6.812  -3.909  0.00  0.00    +0.179 C 
ATOM      7  C   UNL     1       1.372   5.192  -4.201  0.00  0.00    +0.033 C 
ATOM      8  C   UNL     1      -0.126   5.492  -4.840  0.00  0.00    +0.022 C 
ATOM      9  C   UNL     1       0.308   6.866  -5.644  0.00  0.00    +0.094 C 
ATOM     10  O   UNL     1       3.620   7.371  -6.556  0.00  0.00    -0.274 OA
BRANCH   8  11
ATOM     11  C   UNL     1      -0.592   6.360  -3.500  0.00  0.00    +0.002 C 
ATOM     12  C   UNL     1      -1.242   5.351  -2.595  0.00  0.00    +0.000 C 
ATOM     13  C   UNL     1      -2.223   6.083  -1.713  0.00  0.00    +0.000 C 
ATOM     14  C   UNL     1      -3.455   6.372  -2.536  0.00  0.00    +0.000 C 
ATOM     15  C   UNL     1      -3.024   6.506  -3.984  0.00  0.00    +0.000 C 
ATOM     16  C   UNL     1      -1.692   7.225  -4.101  0.00  0.00    +0.000 C 
ENDBRANCH   8  11
BRANCH   6  17
ATOM     17  C   UNL     1       3.313   6.628  -3.811  0.00  0.00    +0.382 C 
ATOM     18  O   UNL     1       3.837   5.410  -3.676  0.00  0.00    -0.244 OA
ATOM     19  O   UNL     1       3.894   7.676  -3.455  0.00  0.00    -0.244 OA
ENDBRANCH   6  17
ENDBRANCH   3   4
ENDBRANCH   1   3
BRANCH   1  20
ATOM     20  O   UNL     1       4.068   6.497  -9.081  0.00  0.00    -0.276 OA
BRANCH  20  21
ATOM     21  C   UNL     1       4.907   5.522  -9.981  0.00  0.00    +0.295 C 
BRANCH  21  22
ATOM     22  C   UNL     1       6.344   5.933  -9.160  0.00  0.00    +0.071 C 
ATOM     23  C   UNL     1       7.392   5.387 -10.121  0.00  0.00    +0.006 C 
ATOM     24  C   UNL     1       6.281   5.023  -7.949  0.00  0.00    +0.006 C 
ENDBRANCH  21  22
BRANCH  21  25
ATOM     25  O   UNL     1       5.153   6.669 -11.062  0.00  0.00    -0.424 OA
BRANCH  25  26
ATOM     26  C   UNL     1       4.988   6.129 -12.346  0.00  0.00    +0.319 C 
ATOM     27  O   UNL     1       3.858   5.719 -12.750  0.00  0.00    -0.250 OA
BRANCH  26  29
ATOM     28  C   UNL     1       6.542   6.835 -13.506  0.00  0.00    +0.012 C 
ATOM     29  C   UNL     1       5.919   6.623 -13.405  0.00  0.00    +0.110 C 
ENDBRANCH  26  29
ENDBRANCH  25  26
ENDBRANCH  21  25
ENDBRANCH  20  21
ENDBRANCH   1  20
BRANCH   1  30
ATOM     30  C   UNL     1       1.225   6.507  -9.057  0.00  0.00    +0.088 C 
BRANCH  30  31
ATOM     31  C   UNL     1      -0.018   5.687  -9.240  0.00  0.00    +0.011 C 
BRANCH  31  32
ATOM     32  C   UNL     1      -0.254   5.599 -10.743  0.00  0.00    +0.005 C 
BRANCH  32  33
ATOM     33  C   UNL     1      -0.148   7.021 -11.275  0.00  0.00    +0.026 C 
BRANCH  33  34
ATOM     34  C   UNL     1       0.490   6.907 -12.625  0.00  0.00    -0.022 A 
ATOM     35  C   UNL     1       0.411   8.048 -13.414  0.00  0.00    -0.004 A 
ATOM     36  C   UNL     1       0.582   7.973 -14.787  0.00  0.00    -0.000 A 
ATOM     37  C   UNL     1       0.925   6.777 -15.379  0.00  0.00    -0.000 A 
ATOM     38  C   UNL     1       0.902   5.631 -14.602  0.00  0.00    -0.000 A 
ATOM     39  C   UNL     1       0.524   5.684 -13.284  0.00  0.00    -0.004 A 
ENDBRANCH  33  34
ENDBRANCH  32  33
ENDBRANCH  31  32
ENDBRANCH  30  31
ENDBRANCH   1  30
TORSDOF 15
ENDMDL
MODEL 7
REMARK VINA RESULT:      -7.5      3.741      7.063
REMARK  Name = 
REMARK  15 active torsions:
REMARK  status: ('A' for Active; 'I' for Inactive)
REMARK    1  A    between atoms: C_2  and  C_3
REMARK    2  A    between atoms: C_3  and  O_5
REMARK    3  A    between atoms: O_5  and  C_6
REMARK    4  A    between atoms: C_6  and  O_7
REMARK    5  A    between atoms: C_6  and  C_37
REMARK    6  A    between atoms: O_7  and  P_8
REMARK    7  A    between atoms: P_8  and  C_10
REMARK    8  A    between atoms: P_8  and  C_20
REMARK    9  A    between atoms: C_10  and  C_11
REMARK   10  A    between atoms: C_11  and  C_12
REMARK   11  A    between atoms: C_12  and  C_13
REMARK   12  A    between atoms: C_13  and  C_14
REMARK   13  A    between atoms: C_20  and  C_21
REMARK   14  A    between atoms: C_25  and  C_26
REMARK   15  A    between atoms: C_33  and  C_34
REMARK                            x       y       z     vdW  Elec       q    Type
REMARK                         _______ _______ _______ _____ _____    ______ ____
ROOT
ATOM      1  P   UNL     1       1.369   5.423  -1.323  0.00  0.00    +0.234 P 
ATOM      2  O   UNL     1       2.310   4.363  -0.862  0.00  0.00    -0.289 OA
ENDROOT
BRANCH   1   3
ATOM      3  C   UNL     1       1.986   6.315  -2.794  0.00  0.00    +0.172 C 
BRANCH   3   4
ATOM      4  C   UNL     1       3.300   5.679  -3.129  0.00  0.00    +0.236 C 
ATOM      5  N   UNL     1       3.692   5.262  -4.396  0.00  0.00    -0.271 N 
ATOM      6  C   UNL     1       4.466   6.196  -5.446  0.00  0.00    +0.179 C 
ATOM      7  C   UNL     1       3.019   7.017  -5.630  0.00  0.00    +0.033 C 
ATOM      8  C   UNL     1       2.255   5.717  -6.314  0.00  0.00    +0.022 C 
ATOM      9  C   UNL     1       2.954   4.582  -5.342  0.00  0.00    +0.094 C 
ATOM     10  O   UNL     1       4.155   5.482  -2.211  0.00  0.00    -0.274 OA
BRANCH   8  11
ATOM     11  C   UNL     1       3.443   5.542  -7.464  0.00  0.00    +0.002 C 
ATOM     12  C   UNL     1       3.260   6.714  -8.388  0.00  0.00    +0.000 C 
ATOM     13  C   UNL     1       3.809   6.327  -9.739  0.00  0.00    +0.000 C 
ATOM     14  C   UNL     1       2.795   5.435 -10.412  0.00  0.00    +0.000 C 
ATOM     15  C   UNL     1       2.034   4.699  -9.326  0.00  0.00    +0.000 C 
ATOM     16  C   UNL     1       2.949   4.295  -8.185  0.00  0.00    +0.000 C 
ENDBRANCH   8  11
BRANCH   6  17
ATOM     17  C   UNL     1       5.061   7.214  -4.300  0.00  0.00    +0.382 C 
ATOM     18  O   UNL     1       4.443   8.368  -4.052  0.00  0.00    -0.244 OA
ATOM     19  O   UNL     1       6.269   7.007  -4.053  0.00  0.00    -0.244 OA
ENDBRANCH   6  17
ENDBRANCH   3   4
ENDBRANCH   1   3
BRANCH   1  20
ATOM     20  O   UNL     1      -0.145   4.791  -1.786  0.00  0.00    -0.276 OA
BRANCH  20  21
ATOM     21  C   UNL     1      -0.807   6.095  -2.357  0.00  0.00    +0.295 C 
BRANCH  21  22
ATOM     22  C   UNL     1      -2.290   5.724  -1.602  0.00  0.00    +0.071 C 
ATOM     23  C   UNL     1      -3.245   6.611  -2.391  0.00  0.00    +0.006 C 
ATOM     24  C   UNL     1      -2.098   6.329  -0.225  0.00  0.00    +0.006 C 
ENDBRANCH  21  22
BRANCH  21  25
ATOM     25  O   UNL     1      -1.251   5.335  -3.687  0.00  0.00    -0.424 OA
BRANCH  25  26
ATOM     26  C   UNL     1      -1.253   6.245  -4.753  0.00  0.00    +0.319 C 
ATOM     27  O   UNL     1      -0.497   7.263  -4.756  0.00  0.00    -0.250 OA
BRANCH  26  29
ATOM     28  C   UNL     1      -1.360   5.419  -6.641  0.00  0.00    +0.012 C 
ATOM     29  C   UNL     1      -1.618   5.702  -6.096  0.00  0.00    +0.110 C 
ENDBRANCH  26  29
ENDBRANCH  25  26
ENDBRANCH  21  25
ENDBRANCH  20  21
ENDBRANCH   1  20
BRANCH   1  30
ATOM     30  C   UNL     1       1.088   6.722  -0.101  0.00  0.00    +0.088 C 
BRANCH  30  31
ATOM     31  C   UNL     1       2.258   7.645   0.066  0.00  0.00    +0.011 C 
BRANCH  31  32
ATOM     32  C   UNL     1       1.975   8.472   1.315  0.00  0.00    +0.005 C 
BRANCH  32  33
ATOM     33  C   UNL     1       1.591   9.861   0.828  0.00  0.00    +0.026 C 
BRANCH  33  34
ATOM     34  C   UNL     1       2.864  10.646   0.781  0.00  0.00    -0.022 A 
ATOM     35  C   UNL     1       3.263  11.198   1.992  0.00  0.00    -0.004 A 
ATOM     36  C   UNL     1       4.161  12.252   2.029  0.00  0.00    -0.000 A 
ATOM     37  C   UNL     1       4.743  12.709   0.866  0.00  0.00    -0.000 A 
ATOM     38  C   UNL     1       4.266  12.223  -0.340  0.00  0.00    -0.000 A 
ATOM     39  C   UNL     1       3.224  11.330  -0.374  0.00  0.00    -0.004 A 
ENDBRANCH  33  34
ENDBRANCH  32  33
ENDBRANCH  31  32
ENDBRANCH  30  31
ENDBRANCH   1  30
TORSDOF 15
ENDMDL
MODEL 8
REMARK VINA RESULT:      -7.1      2.916      9.112
REMARK  Name = 
REMARK  15 active torsions:
REMARK  status: ('A' for Active; 'I' for Inactive)
REMARK    1  A    between atoms: C_2  and  C_3
REMARK    2  A    between atoms: C_3  and  O_5
REMARK    3  A    between atoms: O_5  and  C_6
REMARK    4  A    between atoms: C_6  and  O_7
REMARK    5  A    between atoms: C_6  and  C_37
REMARK    6  A    between atoms: O_7  and  P_8
REMARK    7  A    between atoms: P_8  and  C_10
REMARK    8  A    between atoms: P_8  and  C_20
REMARK    9  A    between atoms: C_10  and  C_11
REMARK   10  A    between atoms: C_11  and  C_12
REMARK   11  A    between atoms: C_12  and  C_13
REMARK   12  A    between atoms: C_13  and  C_14
REMARK   13  A    between atoms: C_20  and  C_21
REMARK   14  A    between atoms: C_25  and  C_26
REMARK   15  A    between atoms: C_33  and  C_34
REMARK                            x       y       z     vdW  Elec       q    Type
REMARK                         _______ _______ _______ _____ _____    ______ ____
ROOT
ATOM      1  P   UNL     1       3.663   5.960 -10.625  0.00  0.00    +0.234 P 
ATOM      2  O   UNL     1       4.008   4.514 -10.526  0.00  0.00    -0.289 OA
ENDROOT
BRANCH   1   3
ATOM      3  C   UNL     1       2.733   6.558  -9.169  0.00  0.00    +0.172 C 
BRANCH   3   4
ATOM      4  C   UNL     1       2.396   5.333  -8.376  0.00  0.00    +0.236 C 
ATOM      5  N   UNL     1       2.788   5.091  -7.064  0.00  0.00    -0.271 N 
ATOM      6  C   UNL     1       1.931   5.526  -5.779  0.00  0.00    +0.179 C 
ATOM      7  C   UNL     1       2.378   7.100  -6.139  0.00  0.00    +0.033 C 
ATOM      8  C   UNL     1       3.979   6.821  -5.823  0.00  0.00    +0.022 C 
ATOM      9  C   UNL     1       4.019   5.309  -6.483  0.00  0.00    +0.094 C 
ATOM     10  O   UNL     1       1.700   4.413  -8.906  0.00  0.00    -0.274 OA
BRANCH   8  11
ATOM     11  C   UNL     1       3.641   6.212  -4.313  0.00  0.00    +0.002 C 
ATOM     12  C   UNL     1       3.070   7.373  -3.548  0.00  0.00    +0.000 C 
ATOM     13  C   UNL     1       3.328   7.134  -2.081  0.00  0.00    +0.000 C 
ATOM     14  C   UNL     1       4.775   7.463  -1.808  0.00  0.00    +0.000 C 
ATOM     15  C   UNL     1       5.558   7.199  -3.080  0.00  0.00    +0.000 C 
ATOM     16  C   UNL     1       5.052   5.960  -3.795  0.00  0.00    +0.000 C 
ENDBRANCH   8  11
BRANCH   6  17
ATOM     17  C   UNL     1       0.504   5.596  -6.593  0.00  0.00    +0.382 C 
ATOM     18  O   UNL     1       0.025   6.773  -6.992  0.00  0.00    -0.244 OA
ATOM     19  O   UNL     1      -0.208   4.586  -6.403  0.00  0.00    -0.244 OA
ENDBRANCH   6  17
ENDBRANCH   3   4
ENDBRANCH   1   3
BRANCH   1  20
ATOM     20  O   UNL     1       5.045   6.955 -10.711  0.00  0.00    -0.276 OA
BRANCH  20  21
ATOM     21  C   UNL     1       6.028   5.970 -11.438  0.00  0.00    +0.295 C 
BRANCH  21  22
ATOM     22  C   UNL     1       7.382   6.747 -10.752  0.00  0.00    +0.071 C 
ATOM     23  C   UNL     1       8.508   6.159 -11.592  0.00  0.00    +0.006 C 
ATOM     24  C   UNL     1       7.433   6.122  -9.372  0.00  0.00    +0.006 C 
ENDBRANCH  21  22
BRANCH  21  25
ATOM     25  O   UNL     1       6.088   6.916 -12.722  0.00  0.00    -0.424 OA
BRANCH  25  26
ATOM     26  C   UNL     1       5.864   6.142 -13.869  0.00  0.00    +0.319 C 
ATOM     27  O   UNL     1       5.389   4.968 -13.793  0.00  0.00    -0.250 OA
BRANCH  26  29
ATOM     28  C   UNL     1       5.851   7.170 -15.658  0.00  0.00    +0.012 C 
ATOM     29  C   UNL     1       5.564   6.885 -15.130  0.00  0.00    +0.110 C 
ENDBRANCH  26  29
ENDBRANCH  25  26
ENDBRANCH  21  25
ENDBRANCH  20  21
ENDBRANCH   1  20
BRANCH   1  30
ATOM     30  C   UNL     1       2.596   6.356 -12.026  0.00  0.00    +0.088 C 
BRANCH  30  31
ATOM     31  C   UNL     1       1.447   5.405 -12.186  0.00  0.00    +0.011 C 
BRANCH  31  32
ATOM     32  C   UNL     1       1.087   5.416 -13.667  0.00  0.00    +0.005 C 
BRANCH  32  33
ATOM     33  C   UNL     1       2.086   6.343 -14.343  0.00  0.00    +0.026 C 
BRANCH  33  34
ATOM     34  C   UNL     1       1.283   7.218 -15.254  0.00  0.00    -0.022 A 
ATOM     35  C   UNL     1      -0.014   6.783 -15.499  0.00  0.00    -0.004 A 
ATOM     36  C   UNL     1      -0.718   7.241 -16.601  0.00  0.00    -0.000 A 
ATOM     37  C   UNL     1      -0.174   8.207 -17.419  0.00  0.00    -0.000 A 
ATOM     38  C   UNL     1       1.151   8.559 -17.226  0.00  0.00    -0.000 A 
ATOM     39  C   UNL     1       1.908   7.943 -16.261  0.00  0.00    -0.004 A 
ENDBRANCH  33  34
ENDBRANCH  32  33
ENDBRANCH  31  32
ENDBRANCH  30  31
ENDBRANCH   1  30
TORSDOF 15
ENDMDL
MODEL 9
REMARK VINA RESULT:      -6.9      2.785      5.668
REMARK  Name = 
REMARK  15 active torsions:
REMARK  status: ('A' for Active; 'I' for Inactive)
REMARK    1  A    between atoms: C_2  and  C_3
REMARK    2  A    between atoms: C_3  and  O_5
REMARK    3  A    between atoms: O_5  and  C_6
REMARK    4  A    between atoms: C_6  and  O_7
REMARK    5  A    between atoms: C_6  and  C_37
REMARK    6  A    between atoms: O_7  and  P_8
REMARK    7  A    between atoms: P_8  and  C_10
REMARK    8  A    between atoms: P_8  and  C_20
REMARK    9  A    between atoms: C_10  and  C_11
REMARK   10  A    between atoms: C_11  and  C_12
REMARK   11  A    between atoms: C_12  and  C_13
REMARK   12  A    between atoms: C_13  and  C_14
REMARK   13  A    between atoms: C_20  and  C_21
REMARK   14  A    between atoms: C_25  and  C_26
REMARK   15  A    between atoms: C_33  and  C_34
REMARK                            x       y       z     vdW  Elec       q    Type
REMARK                         _______ _______ _______ _____ _____    ______ ____
ROOT
ATOM      1  P   UNL     1       1.362   5.979  -4.440  0.00  0.00    +0.234 P 
ATOM      2  O   UNL     1       0.979   4.545  -4.304  0.00  0.00    -0.289 OA
ENDROOT
BRANCH   1   3
ATOM      3  C   UNL     1       2.173   6.338  -6.038  0.00  0.00    +0.172 C 
BRANCH   3   4
ATOM      4  C   UNL     1       2.161   5.046  -6.795  0.00  0.00    +0.236 C 
ATOM      5  N   UNL     1       1.579   4.850  -8.042  0.00  0.00    -0.271 N 
ATOM      6  C   UNL     1       2.351   5.058  -9.434  0.00  0.00    +0.179 C 
ATOM      7  C   UNL     1       2.277   6.700  -9.114  0.00  0.00    +0.033 C 
ATOM      8  C   UNL     1       0.627   6.750  -9.240  0.00  0.00    +0.022 C 
ATOM      9  C   UNL     1       0.358   5.300  -8.499  0.00  0.00    +0.094 C 
ATOM     10  O   UNL     1       2.713   4.018  -6.293  0.00  0.00    -0.274 OA
BRANCH   8  11
ATOM     11  C   UNL     1       0.657   6.037 -10.743  0.00  0.00    +0.002 C 
ATOM     12  C   UNL     1       1.734   6.769 -11.494  0.00  0.00    +0.000 C 
ATOM     13  C   UNL     1       1.421   6.668 -12.967  0.00  0.00    +0.000 C 
ATOM     14  C   UNL     1       0.320   7.653 -13.273  0.00  0.00    +0.000 C 
ATOM     15  C   UNL     1      -0.518   7.815 -12.018  0.00  0.00    +0.000 C 
ATOM     16  C   UNL     1      -0.689   6.493 -11.292  0.00  0.00    +0.000 C 
ENDBRANCH   8  11
BRANCH   6  17
ATOM     17  C   UNL     1       3.847   4.856  -8.782  0.00  0.00    +0.382 C 
ATOM     18  O   UNL     1       4.617   5.917  -8.546  0.00  0.00    -0.244 OA
ATOM     19  O   UNL     1       4.292   3.699  -8.949  0.00  0.00    -0.244 OA
ENDBRANCH   6  17
ENDBRANCH   3   4
ENDBRANCH   1   3
BRANCH   1  20
ATOM     20  O   UNL     1       0.012   7.020  -4.380  0.00  0.00    -0.276 OA
BRANCH  20  21
ATOM     21  C   UNL     1      -1.051   6.032  -3.782  0.00  0.00    +0.295 C 
BRANCH  21  22
ATOM     22  C   UNL     1      -2.331   6.938  -4.452  0.00  0.00    +0.071 C 
ATOM     23  C   UNL     1      -3.505   6.435  -3.622  0.00  0.00    +0.006 C 
ATOM     24  C   UNL     1      -2.437   6.346  -5.843  0.00  0.00    +0.006 C 
ENDBRANCH  21  22
BRANCH  21  25
ATOM     25  O   UNL     1      -1.120   6.867  -2.424  0.00  0.00    -0.424 OA
BRANCH  25  26
ATOM     26  C   UNL     1      -1.074   5.979  -1.341  0.00  0.00    +0.319 C 
ATOM     27  O   UNL     1      -0.320   4.960  -1.352  0.00  0.00    -0.250 OA
BRANCH  26  29
ATOM     28  C   UNL     1      -1.263   7.078   0.396  0.00  0.00    +0.012 C 
ATOM     29  C   UNL     1      -1.377   6.550   0.006  0.00  0.00    +0.110 C 
ENDBRANCH  26  29
ENDBRANCH  25  26
ENDBRANCH  21  25
ENDBRANCH  20  21
ENDBRANCH   1  20
BRANCH   1  30
ATOM     30  C   UNL     1       2.554   6.531  -3.202  0.00  0.00    +0.088 C 
BRANCH  30  31
ATOM     31  C   UNL     1       3.763   7.192  -3.794  0.00  0.00    +0.011 C 
BRANCH  31  32
ATOM     32  C   UNL     1       4.218   8.236  -2.781  0.00  0.00    +0.005 C 
BRANCH  32  33
ATOM     33  C   UNL     1       4.216   7.544  -1.426  0.00  0.00    +0.026 C 
BRANCH  33  34
ATOM     34  C   UNL     1       3.662   8.541  -0.457  0.00  0.00    -0.022 A 
ATOM     35  C   UNL     1       2.659   8.061   0.376  0.00  0.00    -0.004 A 
ATOM     36  C   UNL     1       1.794   8.933   1.018  0.00  0.00    -0.000 A 
ATOM     37  C   UNL     1       1.975  10.295   0.910  0.00  0.00    -0.000 A 
ATOM     38  C   UNL     1       2.910  10.762   0.002  0.00  0.00    -0.000 A 
ATOM     39  C   UNL     1       3.619   9.891  -0.787  0.00  0.00    -0.004 A 
ENDBRANCH  33  34
ENDBRANCH  32  33
ENDBRANCH  31  32
ENDBRANCH  30  31
ENDBRANCH   1  30
TORSDOF 15
ENDMDL
