MODEL 1
REMARK VINA RESULT:      -8.1      0.000      0.000
REMARK  Name = 
REMARK  9 active torsions:
REMARK  status: ('A' for Active; 'I' for Inactive)
REMARK    1  A    between atoms: C_2  and  C_4
REMARK    2  A    between atoms: N_7  and  S_9
REMARK    3  A    between atoms: C_14  and  C_15
REMARK    4  A    between atoms: C_22  and  C_23
REMARK    5  A    between atoms: C_24  and  C_25
REMARK    6  A    between atoms: C_25  and  C_27
REMARK    7  A    between atoms: C_27  and  C_28
REMARK    8  A    between atoms: C_28  and  C_30
REMARK    9  A    between atoms: C_30  and  C_31
REMARK                            x       y       z     vdW  Elec       q    Type
REMARK                         _______ _______ _______ _____ _____    ______ ____
ROOT
ATOM      1  C   UNL     1      -0.350   6.105  -5.605  0.00  0.00    +0.063 A 
ATOM      2  C   UNL     1       0.303   6.259  -4.390  0.00  0.00    +0.031 A 
ATOM      3  C   UNL     1       1.691   6.262  -4.476  0.00  0.00    +0.085 A 
ATOM      4  N   UNL     1       2.270   6.276  -5.699  0.00  0.00    -0.212 NA
ATOM      5  C   UNL     1       1.606   5.731  -6.742  0.00  0.00    +0.239 A 
ATOM      6  N   UNL     1       2.268   5.249  -7.893  0.00  0.00    -0.160 N 
ATOM      7  C   UNL     1       2.465   3.822  -8.052  0.00  0.00    +0.142 C 
ATOM      8  N   UNL     1       0.261   5.573  -6.690  0.00  0.00    -0.217 NA
ENDROOT
BRANCH   3   9
ATOM      9  C   UNL     1       2.522   6.319  -3.280  0.00  0.00    +0.018 A 
ATOM     10  C   UNL     1       2.917   5.186  -2.612  0.00  0.00    +0.004 A 
ATOM     11  C   UNL     1       3.632   5.349  -1.448  0.00  0.00    +0.030 A 
ATOM     12  C   UNL     1       3.815   6.602  -0.897  0.00  0.00    +0.140 A 
ATOM     13  F   UNL     1       3.998   6.739   0.444  0.00  0.00    -0.204 F 
ATOM     14  C   UNL     1       3.715   7.678  -1.742  0.00  0.00    +0.030 A 
ATOM     15  C   UNL     1       3.059   7.547  -2.936  0.00  0.00    +0.004 A 
ENDBRANCH   3   9
BRANCH   6  16
ATOM     16  S   UNL     1       2.401   6.287  -9.271  0.00  0.00    +0.061 S 
ATOM     17  O   UNL     1       3.862   6.598  -9.498  0.00  0.00    -0.154 OA
ATOM     18  O   UNL     1       1.714   7.583  -8.992  0.00  0.00    -0.154 OA
ATOM     19  C   UNL     1       1.689   5.442 -10.658  0.00  0.00    +0.200 C 
ENDBRANCH   6  16
BRANCH   1  21
ATOM     20  C   UNL     1      -2.070   5.773  -5.896  0.00  0.00    +0.006 C 
ATOM     21  C   UNL     1      -1.831   6.106  -5.553  0.00  0.00    +0.040 C 
ATOM     22  C   UNL     1      -2.399   7.474  -5.241  0.00  0.00    +0.006 C 
ENDBRANCH   1  21
BRANCH   2  23
ATOM     23  C   UNL     1      -0.268   5.854  -3.121  0.00  0.00    +0.001 C 
ATOM     24  C   UNL     1      -0.594   6.652  -2.127  0.00  0.00    +0.006 C 
BRANCH  24  25
ATOM     25  C   UNL     1      -2.154   6.394  -1.638  0.00  0.00    +0.177 C 
ATOM     26  O   UNL     1      -2.010   4.865  -1.862  0.00  0.00    -0.218 OA
BRANCH  25  27
ATOM     27  C   UNL     1      -1.684   6.238  -0.024  0.00  0.00    +0.071 C 
BRANCH  27  28
ATOM     28  C   UNL     1      -1.682   7.913   0.156  0.00  0.00    +0.166 C 
ATOM     29  O   UNL     1      -2.731   7.854   1.291  0.00  0.00    -0.222 OA
BRANCH  28  30
ATOM     30  C   UNL     1      -0.414   7.890   1.257  0.00  0.00    +0.147 C 
BRANCH  30  31
ATOM     31  C   UNL     1       0.350   9.098   1.060  0.00  0.00    +0.367 C 
ATOM     32  O   UNL     1       1.653   9.240   0.647  0.00  0.00    -0.246 OA
ATOM     33  O   UNL     1      -0.258  10.194   1.265  0.00  0.00    -0.246 OA
ENDBRANCH  30  31
ENDBRANCH  28  30
ENDBRANCH  27  28
ENDBRANCH  25  27
ENDBRANCH  24  25
ENDBRANCH   2  23
TORSDOF 9
ENDMDL
MODEL 2
REMARK VINA RESULT:      -7.7      5.196     10.938
REMARK  Name = 
REMARK  9 active torsions:
REMARK  status: ('A' for Active; 'I' for Inactive)
REMARK    1  A    between atoms: C_2  and  C_4
REMARK    2  A    between atoms: N_7  and  S_9
REMARK    3  A    between atoms: C_14  and  C_15
REMARK    4  A    between atoms: C_22  and  C_23
REMARK    5  A    between atoms: C_24  and  C_25
REMARK    6  A    between atoms: C_25  and  C_27
REMARK    7  A    between atoms: C_27  and  C_28
REMARK    8  A    between atoms: C_28  and  C_30
REMARK    9  A    between atoms: C_30  and  C_31
REMARK                            x       y       z     vdW  Elec       q    Type
REMARK                         _______ _______ _______ _____ _____    ______ ____
ROOT
ATOM      1  C   UNL     1       1.363   5.629 -10.133  0.00  0.00    +0.063 A 
ATOM      2  C   UNL     1       2.449   5.790 -10.982  0.00  0.00    +0.031 A 
ATOM      3  C   UNL     1       3.684   5.796 -10.343  0.00  0.00    +0.085 A 
ATOM      4  N   UNL     1       3.741   5.498  -9.024  0.00  0.00    -0.212 NA
ATOM      5  C   UNL     1       2.665   5.759  -8.250  0.00  0.00    +0.239 A 
ATOM      6  N   UNL     1       2.767   5.960  -6.855  0.00  0.00    -0.160 N 
ATOM      7  C   UNL     1       2.717   7.309  -6.329  0.00  0.00    +0.142 C 
ATOM      8  N   UNL     1       1.437   5.895  -8.807  0.00  0.00    -0.217 NA
ENDROOT
BRANCH   3   9
ATOM      9  C   UNL     1       4.915   6.050 -11.082  0.00  0.00    +0.018 A 
ATOM     10  C   UNL     1       5.414   5.158 -11.998  0.00  0.00    +0.004 A 
ATOM     11  C   UNL     1       6.624   5.452 -12.583  0.00  0.00    +0.030 A 
ATOM     12  C   UNL     1       7.376   6.527 -12.152  0.00  0.00    +0.140 A 
ATOM     13  F   UNL     1       8.729   6.512 -12.290  0.00  0.00    -0.204 F 
ATOM     14  C   UNL     1       6.710   7.543 -11.515  0.00  0.00    +0.030 A 
ATOM     15  C   UNL     1       5.478   7.310 -10.966  0.00  0.00    +0.004 A 
ENDBRANCH   3   9
BRANCH   6  16
ATOM     16  S   UNL     1       2.476   4.621  -5.798  0.00  0.00    +0.061 S 
ATOM     17  O   UNL     1       3.702   4.412  -4.941  0.00  0.00    -0.154 OA
ATOM     18  O   UNL     1       2.285   3.379  -6.603  0.00  0.00    -0.154 OA
ATOM     19  C   UNL     1       1.049   5.004  -4.817  0.00  0.00    +0.200 C 
ENDBRANCH   6  16
BRANCH   1  21
ATOM     20  C   UNL     1      -0.340   5.916 -10.546  0.00  0.00    +0.006 C 
ATOM     21  C   UNL     1       0.029   5.609 -10.779  0.00  0.00    +0.040 C 
ATOM     22  C   UNL     1      -0.312   4.254 -11.362  0.00  0.00    +0.006 C 
ENDBRANCH   1  21
BRANCH   2  23
ATOM     23  C   UNL     1       2.372   6.479 -12.254  0.00  0.00    +0.001 C 
ATOM     24  C   UNL     1       2.302   5.912 -13.439  0.00  0.00    +0.006 C 
BRANCH  24  25
ATOM     25  C   UNL     1       1.025   6.505 -14.311  0.00  0.00    +0.177 C 
ATOM     26  O   UNL     1       0.936   7.757 -13.399  0.00  0.00    -0.218 OA
BRANCH  25  27
ATOM     27  C   UNL     1       2.054   7.313 -15.379  0.00  0.00    +0.071 C 
BRANCH  27  28
ATOM     28  C   UNL     1       0.831   8.410 -15.755  0.00  0.00    +0.166 C 
ATOM     29  O   UNL     1       1.847   9.466 -16.249  0.00  0.00    -0.222 OA
BRANCH  28  30
ATOM     30  C   UNL     1       0.631   7.802 -17.308  0.00  0.00    +0.147 C 
BRANCH  30  31
ATOM     31  C   UNL     1      -0.773   7.517 -17.482  0.00  0.00    +0.367 C 
ATOM     32  O   UNL     1      -1.741   8.278 -18.090  0.00  0.00    -0.246 OA
ATOM     33  O   UNL     1      -1.183   6.398 -17.044  0.00  0.00    -0.246 OA
ENDBRANCH  30  31
ENDBRANCH  28  30
ENDBRANCH  27  28
ENDBRANCH  25  27
ENDBRANCH  24  25
ENDBRANCH   2  23
TORSDOF 9
ENDMDL
MODEL 3
REMARK VINA RESULT:      -7.7      3.415      8.441
REMARK  Name = 
REMARK  9 active torsions:
REMARK  status: ('A' for Active; 'I' for Inactive)
REMARK    1  A    between atoms: C_2  and  C_4
REMARK    2  A    between atoms: N_7  and  S_9
REMARK    3  A    between atoms: C_14  and  C_15
REMARK    4  A    between atoms: C_22  and  C_23
REMARK    5  A    between atoms: C_24  and  C_25
REMARK    6  A    between atoms: C_25  and  C_27
REMARK    7  A    between atoms: C_27  and  C_28
REMARK    8  A    between atoms: C_28  and  C_30
REMARK    9  A    between atoms: C_30  and  C_31
REMARK                            x       y       z     vdW  Elec       q    Type
REMARK                         _______ _______ _______ _____ _____    ______ ____
ROOT
ATOM      1  C   UNL     1       0.460   5.829  -6.944  0.00  0.00    +0.063 A 
ATOM      2  C   UNL     1       1.768   5.970  -6.502  0.00  0.00    +0.031 A 
ATOM      3  C   UNL     1       1.891   6.230  -5.141  0.00  0.00    +0.085 A 
ATOM      4  N   UNL     1       0.787   6.168  -4.360  0.00  0.00    -0.212 NA
ATOM      5  C   UNL     1      -0.418   6.428  -4.913  0.00  0.00    +0.239 A 
ATOM      6  N   UNL     1      -1.520   6.873  -4.150  0.00  0.00    -0.160 N 
ATOM      7  C   UNL     1      -1.880   8.276  -4.177  0.00  0.00    +0.142 C 
ATOM      8  N   UNL     1      -0.594   6.322  -6.252  0.00  0.00    -0.217 NA
ENDROOT
BRANCH   3   9
ATOM      9  C   UNL     1       3.191   6.497  -4.537  0.00  0.00    +0.018 A 
ATOM     10  C   UNL     1       3.518   7.729  -4.026  0.00  0.00    +0.004 A 
ATOM     11  C   UNL     1       4.797   7.904  -3.552  0.00  0.00    +0.030 A 
ATOM     12  C   UNL     1       5.756   6.925  -3.722  0.00  0.00    +0.140 A 
ATOM     13  F   UNL     1       7.073   7.262  -3.784  0.00  0.00    -0.204 F 
ATOM     14  C   UNL     1       5.314   5.640  -3.909  0.00  0.00    +0.030 A 
ATOM     15  C   UNL     1       4.030   5.417  -4.328  0.00  0.00    +0.004 A 
ENDBRANCH   3   9
BRANCH   6  16
ATOM     16  S   UNL     1      -2.674   5.708  -3.597  0.00  0.00    +0.061 S 
ATOM     17  O   UNL     1      -1.970   4.731  -2.687  0.00  0.00    -0.154 OA
ATOM     18  O   UNL     1      -3.196   4.929  -4.759  0.00  0.00    -0.154 OA
ATOM     19  C   UNL     1      -3.963   6.581  -2.749  0.00  0.00    +0.200 C 
ENDBRANCH   6  16
BRANCH   1  21
ATOM     20  C   UNL     1      -0.175   5.703  -8.598  0.00  0.00    +0.006 C 
ATOM     21  C   UNL     1       0.290   5.544  -8.389  0.00  0.00    +0.040 C 
ATOM     22  C   UNL     1       0.948   4.245  -8.804  0.00  0.00    +0.006 C 
ENDBRANCH   1  21
BRANCH   2  23
ATOM     23  C   UNL     1       2.854   6.419  -7.349  0.00  0.00    +0.001 C 
ATOM     24  C   UNL     1       3.910   5.716  -7.694  0.00  0.00    +0.006 C 
BRANCH  24  25
ATOM     25  C   UNL     1       4.117   5.713  -9.337  0.00  0.00    +0.177 C 
ATOM     26  O   UNL     1       3.646   7.188  -9.436  0.00  0.00    -0.218 OA
BRANCH  25  27
ATOM     27  C   UNL     1       5.727   6.199  -9.194  0.00  0.00    +0.071 C 
BRANCH  27  28
ATOM     28  C   UNL     1       5.977   5.919 -10.837  0.00  0.00    +0.166 C 
ATOM     29  O   UNL     1       6.389   7.388 -11.087  0.00  0.00    -0.222 OA
BRANCH  28  30
ATOM     30  C   UNL     1       7.575   5.455 -10.613  0.00  0.00    +0.147 C 
BRANCH  30  31
ATOM     31  C   UNL     1       8.190   5.384 -11.917  0.00  0.00    +0.367 C 
ATOM     32  O   UNL     1       9.298   6.046 -12.388  0.00  0.00    -0.246 OA
ATOM     33  O   UNL     1       7.664   4.582 -12.750  0.00  0.00    -0.246 OA
ENDBRANCH  30  31
ENDBRANCH  28  30
ENDBRANCH  27  28
ENDBRANCH  25  27
ENDBRANCH  24  25
ENDBRANCH   2  23
TORSDOF 9
ENDMDL
MODEL 4
REMARK VINA RESULT:      -7.5      5.707     12.212
REMARK  Name = 
REMARK  9 active torsions:
REMARK  status: ('A' for Active; 'I' for Inactive)
REMARK    1  A    between atoms: C_2  and  C_4
REMARK    2  A    between atoms: N_7  and  S_9
REMARK    3  A    between atoms: C_14  and  C_15
REMARK    4  A    between atoms: C_22  and  C_23
REMARK    5  A    between atoms: C_24  and  C_25
REMARK    6  A    between atoms: C_25  and  C_27
REMARK    7  A    between atoms: C_27  and  C_28
REMARK    8  A    between atoms: C_28  and  C_30
REMARK    9  A    between atoms: C_30  and  C_31
REMARK                            x       y       z     vdW  Elec       q    Type
REMARK                         _______ _______ _______ _____ _____    ______ ____
ROOT
ATOM      1  C   UNL     1       5.143   6.209 -10.173  0.00  0.00    +0.063 A 
ATOM      2  C   UNL     1       4.448   6.287 -11.371  0.00  0.00    +0.031 A 
ATOM      3  C   UNL     1       3.066   6.203 -11.243  0.00  0.00    +0.085 A 
ATOM      4  N   UNL     1       2.522   6.213 -10.004  0.00  0.00    -0.212 NA
ATOM      5  C   UNL     1       3.249   5.741  -8.968  0.00  0.00    +0.239 A 
ATOM      6  N   UNL     1       2.653   5.249  -7.785  0.00  0.00    -0.160 N 
ATOM      7  C   UNL     1       2.554   3.818  -7.585  0.00  0.00    +0.142 C 
ATOM      8  N   UNL     1       4.600   5.669  -9.056  0.00  0.00    -0.217 NA
ENDROOT
BRANCH   3   9
ATOM      9  C   UNL     1       2.199   6.174 -12.414  0.00  0.00    +0.018 A 
ATOM     10  C   UNL     1       2.069   5.054 -13.198  0.00  0.00    +0.004 A 
ATOM     11  C   UNL     1       1.289   5.151 -14.327  0.00  0.00    +0.030 A 
ATOM     12  C   UNL     1       0.782   6.369 -14.735  0.00  0.00    +0.140 A 
ATOM     13  F   UNL     1       0.517   6.593 -16.050  0.00  0.00    -0.204 F 
ATOM     14  C   UNL     1       0.646   7.344 -13.778  0.00  0.00    +0.030 A 
ATOM     15  C   UNL     1       1.362   7.258 -12.615  0.00  0.00    +0.004 A 
ENDBRANCH   3   9
BRANCH   6  16
ATOM     16  S   UNL     1       2.492   6.314  -6.431  0.00  0.00    +0.061 S 
ATOM     17  O   UNL     1       1.052   6.294  -5.974  0.00  0.00    -0.154 OA
ATOM     18  O   UNL     1       2.800   7.713  -6.852  0.00  0.00    -0.154 OA
ATOM     19  C   UNL     1       3.590   5.745  -5.160  0.00  0.00    +0.200 C 
ENDBRANCH   6  16
BRANCH   1  21
ATOM     20  C   UNL     1       6.889   5.996  -9.927  0.00  0.00    +0.006 C 
ATOM     21  C   UNL     1       6.620   6.304 -10.270  0.00  0.00    +0.040 C 
ATOM     22  C   UNL     1       7.089   7.698 -10.628  0.00  0.00    +0.006 C 
ENDBRANCH   1  21
BRANCH   2  23
ATOM     23  C   UNL     1       5.007   5.886 -12.646  0.00  0.00    +0.001 C 
ATOM     24  C   UNL     1       5.367   6.690 -13.623  0.00  0.00    +0.006 C 
BRANCH  24  25
ATOM     25  C   UNL     1       6.919   6.381 -14.112  0.00  0.00    +0.177 C 
ATOM     26  O   UNL     1       6.746   4.865 -13.827  0.00  0.00    -0.218 OA
BRANCH  25  27
ATOM     27  C   UNL     1       6.433   6.171 -15.715  0.00  0.00    +0.071 C 
BRANCH  27  28
ATOM     28  C   UNL     1       6.842   7.767 -16.067  0.00  0.00    +0.166 C 
ATOM     29  O   UNL     1       8.044   7.332 -16.938  0.00  0.00    -0.222 OA
BRANCH  28  30
ATOM     30  C   UNL     1       5.830   7.833 -17.405  0.00  0.00    +0.147 C 
BRANCH  30  31
ATOM     31  C   UNL     1       4.557   8.346 -16.959  0.00  0.00    +0.367 C 
ATOM     32  O   UNL     1       3.372   7.676 -16.772  0.00  0.00    -0.246 OA
ATOM     33  O   UNL     1       4.514   9.580 -16.665  0.00  0.00    -0.246 OA
ENDBRANCH  30  31
ENDBRANCH  28  30
ENDBRANCH  27  28
ENDBRANCH  25  27
ENDBRANCH  24  25
ENDBRANCH   2  23
TORSDOF 9
ENDMDL
MODEL 5
REMARK VINA RESULT:      -7.5      2.431      4.489
REMARK  Name = 
REMARK  9 active torsions:
REMARK  status: ('A' for Active; 'I' for Inactive)
REMARK    1  A    between atoms: C_2  and  C_4
REMARK    2  A    between atoms: N_7  and  S_9
REMARK    3  A    between atoms: C_14  and  C_15
REMARK    4  A    between atoms: C_22  and  C_23
REMARK    5  A    between atoms: C_24  and  C_25
REMARK    6  A    between atoms: C_25  and  C_27
REMARK    7  A    between atoms: C_27  and  C_28
REMARK    8  A    between atoms: C_28  and  C_30
REMARK    9  A    between atoms: C_30  and  C_31
REMARK                            x       y       z     vdW  Elec       q    Type
REMARK                         _______ _______ _______ _____ _____    ______ ____
ROOT
ATOM      1  C   UNL     1       3.351   6.180  -5.075  0.00  0.00    +0.063 A 
ATOM      2  C   UNL     1       2.258   6.318  -4.230  0.00  0.00    +0.031 A 
ATOM      3  C   UNL     1       1.026   6.120  -4.844  0.00  0.00    +0.085 A 
ATOM      4  N   UNL     1       0.995   5.671  -6.120  0.00  0.00    -0.212 NA
ATOM      5  C   UNL     1       2.032   5.956  -6.937  0.00  0.00    +0.239 A 
ATOM      6  N   UNL     1       1.902   5.987  -8.344  0.00  0.00    -0.160 N 
ATOM      7  C   UNL     1       1.803   7.266  -9.017  0.00  0.00    +0.142 C 
ATOM      8  N   UNL     1       3.241   6.284  -6.420  0.00  0.00    -0.217 NA
ENDROOT
BRANCH   3   9
ATOM      9  C   UNL     1      -0.221   6.322  -4.117  0.00  0.00    +0.018 A 
ATOM     10  C   UNL     1      -0.625   5.479  -3.111  0.00  0.00    +0.004 A 
ATOM     11  C   UNL     1      -1.856   5.708  -2.542  0.00  0.00    +0.030 A 
ATOM     12  C   UNL     1      -2.713   6.656  -3.064  0.00  0.00    +0.140 A 
ATOM     13  F   UNL     1      -4.058   6.521  -2.908  0.00  0.00    -0.204 F 
ATOM     14  C   UNL     1      -2.154   7.666  -3.806  0.00  0.00    +0.030 A 
ATOM     15  C   UNL     1      -0.908   7.502  -4.346  0.00  0.00    +0.004 A 
ENDBRANCH   3   9
BRANCH   6  16
ATOM     16  S   UNL     1       2.330   4.576  -9.249  0.00  0.00    +0.061 S 
ATOM     17  O   UNL     1       1.174   4.215 -10.150  0.00  0.00    -0.154 OA
ATOM     18  O   UNL     1       2.539   3.427  -8.320  0.00  0.00    -0.154 OA
ATOM     19  C   UNL     1       3.792   4.952 -10.180  0.00  0.00    +0.200 C 
ENDBRANCH   6  16
BRANCH   1  21
ATOM     20  C   UNL     1       5.017   6.687  -4.729  0.00  0.00    +0.006 C 
ATOM     21  C   UNL     1       4.682   6.376  -4.453  0.00  0.00    +0.040 C 
ATOM     22  C   UNL     1       5.163   5.145  -3.713  0.00  0.00    +0.006 C 
ENDBRANCH   1  21
BRANCH   2  23
ATOM     23  C   UNL     1       2.267   7.150  -3.044  0.00  0.00    +0.001 C 
ATOM     24  C   UNL     1       2.345   6.727  -1.801  0.00  0.00    +0.006 C 
BRANCH  24  25
ATOM     25  C   UNL     1       3.565   7.492  -0.984  0.00  0.00    +0.177 C 
ATOM     26  O   UNL     1       3.779   8.483  -2.158  0.00  0.00    -0.218 OA
BRANCH  25  27
ATOM     27  C   UNL     1       2.482   8.551  -0.239  0.00  0.00    +0.071 C 
BRANCH  27  28
ATOM     28  C   UNL     1       1.638   7.252   0.424  0.00  0.00    +0.166 C 
ATOM     29  O   UNL     1       2.439   7.328   1.745  0.00  0.00    -0.222 OA
BRANCH  28  30
ATOM     30  C   UNL     1       0.424   8.232   1.044  0.00  0.00    +0.147 C 
BRANCH  30  31
ATOM     31  C   UNL     1      -0.832   7.737   0.536  0.00  0.00    +0.367 C 
ATOM     32  O   UNL     1      -1.474   6.555   0.818  0.00  0.00    -0.246 OA
ATOM     33  O   UNL     1      -1.461   8.497  -0.263  0.00  0.00    -0.246 OA
ENDBRANCH  30  31
ENDBRANCH  28  30
ENDBRANCH  27  28
ENDBRANCH  25  27
ENDBRANCH  24  25
ENDBRANCH   2  23
TORSDOF 9
ENDMDL
MODEL 6
REMARK VINA RESULT:      -7.3      2.867      4.789
REMARK  Name = 
REMARK  9 active torsions:
REMARK  status: ('A' for Active; 'I' for Inactive)
REMARK    1  A    between atoms: C_2  and  C_4
REMARK    2  A    between atoms: N_7  and  S_9
REMARK    3  A    between atoms: C_14  and  C_15
REMARK    4  A    between atoms: C_22  and  C_23
REMARK    5  A    between atoms: C_24  and  C_25
REMARK    6  A    between atoms: C_25  and  C_27
REMARK    7  A    between atoms: C_27  and  C_28
REMARK    8  A    between atoms: C_28  and  C_30
REMARK    9  A    between atoms: C_30  and  C_31
REMARK                            x       y       z     vdW  Elec       q    Type
REMARK                         _______ _______ _______ _____ _____    ______ ____
ROOT
ATOM      1  C   UNL     1       3.287   5.998  -5.065  0.00  0.00    +0.063 A 
ATOM      2  C   UNL     1       2.189   6.127  -4.226  0.00  0.00    +0.031 A 
ATOM      3  C   UNL     1       0.959   6.002  -4.862  0.00  0.00    +0.085 A 
ATOM      4  N   UNL     1       0.930   5.624  -6.161  0.00  0.00    -0.212 NA
ATOM      5  C   UNL     1       1.985   5.918  -6.951  0.00  0.00    +0.239 A 
ATOM      6  N   UNL     1       1.873   6.028  -8.355  0.00  0.00    -0.160 N 
ATOM      7  C   UNL     1       1.824   7.344  -8.959  0.00  0.00    +0.142 C 
ATOM      8  N   UNL     1       3.197   6.178  -6.404  0.00  0.00    -0.217 NA
ENDROOT
BRANCH   3   9
ATOM      9  C   UNL     1      -0.290   6.206  -4.138  0.00  0.00    +0.018 A 
ATOM     10  C   UNL     1      -0.698   5.363  -3.135  0.00  0.00    +0.004 A 
ATOM     11  C   UNL     1      -1.930   5.593  -2.569  0.00  0.00    +0.030 A 
ATOM     12  C   UNL     1      -2.784   6.544  -3.093  0.00  0.00    +0.140 A 
ATOM     13  F   UNL     1      -4.129   6.412  -2.940  0.00  0.00    -0.204 F 
ATOM     14  C   UNL     1      -2.221   7.554  -3.831  0.00  0.00    +0.030 A 
ATOM     15  C   UNL     1      -0.973   7.388  -4.368  0.00  0.00    +0.004 A 
ENDBRANCH   3   9
BRANCH   6  16
ATOM     16  S   UNL     1       2.267   4.655  -9.331  0.00  0.00    +0.061 S 
ATOM     17  O   UNL     1       1.073   4.320 -10.192  0.00  0.00    -0.154 OA
ATOM     18  O   UNL     1       2.522   3.473  -8.455  0.00  0.00    -0.154 OA
ATOM     19  C   UNL     1       3.684   5.074 -10.311  0.00  0.00    +0.200 C 
ENDBRANCH   6  16
BRANCH   1  21
ATOM     20  C   UNL     1       4.951   6.462  -4.652  0.00  0.00    +0.006 C 
ATOM     21  C   UNL     1       4.617   6.116  -4.420  0.00  0.00    +0.040 C 
ATOM     22  C   UNL     1       5.101   4.802  -3.846  0.00  0.00    +0.006 C 
ENDBRANCH   1  21
BRANCH   2  23
ATOM     23  C   UNL     1       2.210   6.893  -2.996  0.00  0.00    +0.001 C 
ATOM     24  C   UNL     1       2.398   6.413  -1.786  0.00  0.00    +0.006 C 
BRANCH  24  25
ATOM     25  C   UNL     1       3.607   7.227  -1.000  0.00  0.00    +0.177 C 
ATOM     26  O   UNL     1       3.529   8.397  -2.016  0.00  0.00    -0.218 OA
BRANCH  25  27
ATOM     27  C   UNL     1       2.504   7.995   0.022  0.00  0.00    +0.071 C 
BRANCH  27  28
ATOM     28  C   UNL     1       3.630   9.203   0.359  0.00  0.00    +0.166 C 
ATOM     29  O   UNL     1       2.534  10.293   0.415  0.00  0.00    -0.222 OA
BRANCH  28  30
ATOM     30  C   UNL     1       3.542   8.957   2.018  0.00  0.00    +0.147 C 
BRANCH  30  31
ATOM     31  C   UNL     1       4.557   7.992   2.364  0.00  0.00    +0.367 C 
ATOM     32  O   UNL     1       4.453   6.873   3.155  0.00  0.00    -0.246 OA
ATOM     33  O   UNL     1       5.707   8.169   1.854  0.00  0.00    -0.246 OA
ENDBRANCH  30  31
ENDBRANCH  28  30
ENDBRANCH  27  28
ENDBRANCH  25  27
ENDBRANCH  24  25
ENDBRANCH   2  23
TORSDOF 9
ENDMDL
MODEL 7
REMARK VINA RESULT:      -7.1      4.837      7.704
REMARK  Name = 
REMARK  9 active torsions:
REMARK  status: ('A' for Active; 'I' for Inactive)
REMARK    1  A    between atoms: C_2  and  C_4
REMARK    2  A    between atoms: N_7  and  S_9
REMARK    3  A    between atoms: C_14  and  C_15
REMARK    4  A    between atoms: C_22  and  C_23
REMARK    5  A    between atoms: C_24  and  C_25
REMARK    6  A    between atoms: C_25  and  C_27
REMARK    7  A    between atoms: C_27  and  C_28
REMARK    8  A    between atoms: C_28  and  C_30
REMARK    9  A    between atoms: C_30  and  C_31
REMARK                            x       y       z     vdW  Elec       q    Type
REMARK                         _______ _______ _______ _____ _____    ______ ____
ROOT
ATOM      1  C   UNL     1       2.067   5.926 -10.436  0.00  0.00    +0.063 A 
ATOM      2  C   UNL     1       3.437   5.983 -10.219  0.00  0.00    +0.031 A 
ATOM      3  C   UNL     1       4.201   6.064 -11.378  0.00  0.00    +0.085 A 
ATOM      4  N   UNL     1       3.574   6.233 -12.565  0.00  0.00    -0.212 NA
ATOM      5  C   UNL     1       2.314   5.767 -12.710  0.00  0.00    +0.239 A 
ATOM      6  N   UNL     1       1.768   5.441 -13.971  0.00  0.00    -0.160 N 
ATOM      7  C   UNL     1       1.682   4.050 -14.367  0.00  0.00    +0.142 C 
ATOM      8  N   UNL     1       1.540   5.540 -11.622  0.00  0.00    -0.217 NA
ENDROOT
BRANCH   3   9
ATOM      9  C   UNL     1       5.658   6.036 -11.326  0.00  0.00    +0.018 A 
ATOM     10  C   UNL     1       6.375   6.884 -10.518  0.00  0.00    +0.004 A 
ATOM     11  C   UNL     1       7.747   6.835 -10.601  0.00  0.00    +0.030 A 
ATOM     12  C   UNL     1       8.373   6.071 -11.566  0.00  0.00    +0.140 A 
ATOM     13  F   UNL     1       9.606   6.420 -12.020  0.00  0.00    -0.204 F 
ATOM     14  C   UNL     1       7.663   5.020 -12.090  0.00  0.00    +0.030 A 
ATOM     15  C   UNL     1       6.299   5.000 -11.983  0.00  0.00    +0.004 A 
ENDBRANCH   3   9
BRANCH   6  16
ATOM     16  S   UNL     1       0.804   6.622 -14.791  0.00  0.00    +0.061 S 
ATOM     17  O   UNL     1       0.042   7.419 -13.759  0.00  0.00    -0.154 OA
ATOM     18  O   UNL     1      -0.205   5.938 -15.651  0.00  0.00    -0.154 OA
ATOM     19  C   UNL     1       1.896   7.651 -15.737  0.00  0.00    +0.200 C 
ENDBRANCH   6  16
BRANCH   1  21
ATOM     20  C   UNL     1       0.838   5.474  -9.236  0.00  0.00    +0.006 C 
ATOM     21  C   UNL     1       1.219   5.848  -9.223  0.00  0.00    +0.040 C 
ATOM     22  C   UNL     1       0.984   7.205  -8.593  0.00  0.00    +0.006 C 
ENDBRANCH   1  21
BRANCH   2  23
ATOM     23  C   UNL     1       4.084   5.422  -9.051  0.00  0.00    +0.001 C 
ATOM     24  C   UNL     1       4.227   6.012  -7.885  0.00  0.00    +0.006 C 
BRANCH  24  25
ATOM     25  C   UNL     1       3.672   5.050  -6.656  0.00  0.00    +0.177 C 
ATOM     26  O   UNL     1       4.978   5.269  -5.846  0.00  0.00    -0.218 OA
BRANCH  25  27
ATOM     27  C   UNL     1       2.934   6.360  -5.886  0.00  0.00    +0.071 C 
BRANCH  27  28
ATOM     28  C   UNL     1       1.719   5.352  -5.297  0.00  0.00    +0.166 C 
ATOM     29  O   UNL     1       2.283   5.411  -3.859  0.00  0.00    -0.222 OA
BRANCH  28  30
ATOM     30  C   UNL     1       0.673   6.631  -4.994  0.00  0.00    +0.147 C 
BRANCH  30  31
ATOM     31  C   UNL     1      -0.638   6.232  -5.448  0.00  0.00    +0.367 C 
ATOM     32  O   UNL     1      -1.837   6.889  -5.312  0.00  0.00    -0.246 OA
ATOM     33  O   UNL     1      -0.708   5.139  -6.089  0.00  0.00    -0.246 OA
ENDBRANCH  30  31
ENDBRANCH  28  30
ENDBRANCH  27  28
ENDBRANCH  25  27
ENDBRANCH  24  25
ENDBRANCH   2  23
TORSDOF 9
ENDMDL
MODEL 8
REMARK VINA RESULT:      -7.0      2.645      4.563
REMARK  Name = 
REMARK  9 active torsions:
REMARK  status: ('A' for Active; 'I' for Inactive)
REMARK    1  A    between atoms: C_2  and  C_4
REMARK    2  A    between atoms: N_7  and  S_9
REMARK    3  A    between atoms: C_14  and  C_15
REMARK    4  A    between atoms: C_22  and  C_23
REMARK    5  A    between atoms: C_24  and  C_25
REMARK    6  A    between atoms: C_25  and  C_27
REMARK    7  A    between atoms: C_27  and  C_28
REMARK    8  A    between atoms: C_28  and  C_30
REMARK    9  A    between atoms: C_30  and  C_31
REMARK                            x       y       z     vdW  Elec       q    Type
REMARK                         _______ _______ _______ _____ _____    ______ ____
ROOT
ATOM      1  C   UNL     1       3.043   5.941  -4.355  0.00  0.00    +0.063 A 
ATOM      2  C   UNL     1       1.785   6.060  -3.780  0.00  0.00    +0.031 A 
ATOM      3  C   UNL     1       0.731   6.026  -4.687  0.00  0.00    +0.085 A 
ATOM      4  N   UNL     1       0.991   5.732  -5.982  0.00  0.00    -0.212 NA
ATOM      5  C   UNL     1       2.207   6.033  -6.488  0.00  0.00    +0.239 A 
ATOM      6  N   UNL     1       2.423   6.237  -7.869  0.00  0.00    -0.160 N 
ATOM      7  C   UNL     1       2.546   7.590  -8.374  0.00  0.00    +0.142 C 
ATOM      8  N   UNL     1       3.267   6.209  -5.663  0.00  0.00    -0.217 NA
ENDROOT
BRANCH   3   9
ATOM      9  C   UNL     1      -0.645   6.234  -4.254  0.00  0.00    +0.018 A 
ATOM     10  C   UNL     1      -1.289   7.436  -4.419  0.00  0.00    +0.004 A 
ATOM     11  C   UNL     1      -2.558   7.556  -3.903  0.00  0.00    +0.030 A 
ATOM     12  C   UNL     1      -3.103   6.558  -3.120  0.00  0.00    +0.140 A 
ATOM     13  F   UNL     1      -4.045   6.859  -2.186  0.00  0.00    -0.204 F 
ATOM     14  C   UNL     1      -2.592   5.293  -3.271  0.00  0.00    +0.030 A 
ATOM     15  C   UNL     1      -1.354   5.123  -3.830  0.00  0.00    +0.004 A 
ENDBRANCH   3   9
BRANCH   6  16
ATOM     16  S   UNL     1       2.996   4.914  -8.826  0.00  0.00    +0.061 S 
ATOM     17  O   UNL     1       2.360   4.999 -10.193  0.00  0.00    -0.154 OA
ATOM     18  O   UNL     1       2.554   3.625  -8.215  0.00  0.00    -0.154 OA
ATOM     19  C   UNL     1       4.763   5.036  -8.917  0.00  0.00    +0.200 C 
ENDBRANCH   6  16
BRANCH   1  21
ATOM     20  C   UNL     1       4.590   6.290  -3.558  0.00  0.00    +0.006 C 
ATOM     21  C   UNL     1       4.191   5.964  -3.418  0.00  0.00    +0.040 C 
ATOM     22  C   UNL     1       4.448   4.614  -2.783  0.00  0.00    +0.006 C 
ENDBRANCH   1  21
BRANCH   2  23
ATOM     23  C   UNL     1       1.542   6.745  -2.527  0.00  0.00    +0.001 C 
ATOM     24  C   UNL     1       0.667   6.396  -1.610  0.00  0.00    +0.006 C 
BRANCH  24  25
ATOM     25  C   UNL     1       1.377   6.278  -0.118  0.00  0.00    +0.177 C 
ATOM     26  O   UNL     1       2.186   5.031  -0.562  0.00  0.00    -0.218 OA
BRANCH  25  27
ATOM     27  C   UNL     1       2.639   7.303  -0.574  0.00  0.00    +0.071 C 
BRANCH  27  28
ATOM     28  C   UNL     1       2.720   7.927   0.990  0.00  0.00    +0.166 C 
ATOM     29  O   UNL     1       3.872   6.971   1.376  0.00  0.00    -0.222 OA
BRANCH  28  30
ATOM     30  C   UNL     1       3.801   9.136   0.554  0.00  0.00    +0.147 C 
BRANCH  30  31
ATOM     31  C   UNL     1       3.024  10.288   0.163  0.00  0.00    +0.367 C 
ATOM     32  O   UNL     1       3.321  11.256  -0.766  0.00  0.00    -0.246 OA
ATOM     33  O   UNL     1       1.893  10.427   0.723  0.00  0.00    -0.246 OA
ENDBRANCH  30  31
ENDBRANCH  28  30
ENDBRANCH  27  28
ENDBRANCH  25  27
ENDBRANCH  24  25
ENDBRANCH   2  23
TORSDOF 9
ENDMDL
MODEL 9
REMARK VINA RESULT:      -6.4      4.932      7.577
REMARK  Name = 
REMARK  9 active torsions:
REMARK  status: ('A' for Active; 'I' for Inactive)
REMARK    1  A    between atoms: C_2  and  C_4
REMARK    2  A    between atoms: N_7  and  S_9
REMARK    3  A    between atoms: C_14  and  C_15
REMARK    4  A    between atoms: C_22  and  C_23
REMARK    5  A    between atoms: C_24  and  C_25
REMARK    6  A    between atoms: C_25  and  C_27
REMARK    7  A    between atoms: C_27  and  C_28
REMARK    8  A    between atoms: C_28  and  C_30
REMARK    9  A    between atoms: C_30  and  C_31
REMARK                            x       y       z     vdW  Elec       q    Type
REMARK                         _______ _______ _______ _____ _____    ______ ____
ROOT
ATOM      1  C   UNL     1       2.004   6.140 -10.273  0.00  0.00    +0.063 A 
ATOM      2  C   UNL     1       3.379   6.130 -10.083  0.00  0.00    +0.031 A 
ATOM      3  C   UNL     1       4.124   6.242 -11.252  0.00  0.00    +0.085 A 
ATOM      4  N   UNL     1       3.481   6.501 -12.414  0.00  0.00    -0.212 NA
ATOM      5  C   UNL     1       2.201   6.096 -12.557  0.00  0.00    +0.239 A 
ATOM      6  N   UNL     1       1.616   5.863 -13.821  0.00  0.00    -0.160 N 
ATOM      7  C   UNL     1       1.464   4.500 -14.290  0.00  0.00    +0.142 C 
ATOM      8  N   UNL     1       1.438   5.842 -11.466  0.00  0.00    -0.217 NA
ENDROOT
BRANCH   3   9
ATOM      9  C   UNL     1       5.579   6.151 -11.232  0.00  0.00    +0.018 A 
ATOM     10  C   UNL     1       6.352   6.999 -10.478  0.00  0.00    +0.004 A 
ATOM     11  C   UNL     1       7.719   6.886 -10.591  0.00  0.00    +0.030 A 
ATOM     12  C   UNL     1       8.286   6.055 -11.537  0.00  0.00    +0.140 A 
ATOM     13  F   UNL     1       9.521   6.330 -12.035  0.00  0.00    -0.204 F 
ATOM     14  C   UNL     1       7.518   5.016 -12.000  0.00  0.00    +0.030 A 
ATOM     15  C   UNL     1       6.157   5.061 -11.860  0.00  0.00    +0.004 A 
ENDBRANCH   3   9
BRANCH   6  16
ATOM     16  S   UNL     1       0.688   7.126 -14.555  0.00  0.00    +0.061 S 
ATOM     17  O   UNL     1       1.639   8.129 -15.162  0.00  0.00    -0.154 OA
ATOM     18  O   UNL     1      -0.098   7.843 -13.509  0.00  0.00    -0.154 OA
ATOM     19  C   UNL     1      -0.357   6.388 -15.783  0.00  0.00    +0.200 C 
ENDBRANCH   6  16
BRANCH   1  21
ATOM     20  C   UNL     1       0.737   5.733  -9.097  0.00  0.00    +0.006 C 
ATOM     21  C   UNL     1       1.178   6.031  -9.047  0.00  0.00    +0.040 C 
ATOM     22  C   UNL     1       1.192   7.302  -8.224  0.00  0.00    +0.006 C 
ENDBRANCH   1  21
BRANCH   2  23
ATOM     23  C   UNL     1       4.025   5.479  -8.961  0.00  0.00    +0.001 C 
ATOM     24  C   UNL     1       4.470   6.069  -7.873  0.00  0.00    +0.006 C 
BRANCH  24  25
ATOM     25  C   UNL     1       3.873   5.342  -6.510  0.00  0.00    +0.177 C 
ATOM     26  O   UNL     1       5.287   5.288  -5.875  0.00  0.00    -0.218 OA
BRANCH  25  27
ATOM     27  C   UNL     1       3.563   6.833  -5.781  0.00  0.00    +0.071 C 
BRANCH  27  28
ATOM     28  C   UNL     1       4.650   6.474  -4.544  0.00  0.00    +0.166 C 
ATOM     29  O   UNL     1       5.046   7.959  -4.377  0.00  0.00    -0.222 OA
BRANCH  28  30
ATOM     30  C   UNL     1       3.478   6.599  -3.347  0.00  0.00    +0.147 C 
BRANCH  30  31
ATOM     31  C   UNL     1       4.005   5.970  -2.160  0.00  0.00    +0.367 C 
ATOM     32  O   UNL     1       4.386   6.548  -0.973  0.00  0.00    -0.246 OA
ATOM     33  O   UNL     1       4.112   4.706  -2.187  0.00  0.00    -0.246 OA
ENDBRANCH  30  31
ENDBRANCH  28  30
ENDBRANCH  27  28
ENDBRANCH  25  27
ENDBRANCH  24  25
ENDBRANCH   2  23
TORSDOF 9
ENDMDL
