MODEL 1
REMARK VINA RESULT:      -7.0      0.000      0.000
REMARK  Name = 
REMARK  6 active torsions:
REMARK  status: ('A' for Active; 'I' for Inactive)
REMARK    1  A    between atoms: C_2  and  C_18
REMARK    2  A    between atoms: N_3  and  CA_4
REMARK    3  A    between atoms: CA_4  and  C_5
REMARK    4  A    between atoms: CA_4  and  C_7
REMARK    5  A    between atoms: C_7  and  C_9
REMARK    6  A    between atoms: C_12  and  N_13
REMARK                            x       y       z     vdW  Elec       q    Type
REMARK                         _______ _______ _______ _____ _____    ______ ____
ROOT
ATOM      1  C   UNL     1       2.435   6.715  -6.841  0.00  0.00    +0.197 C 
ATOM      2  O   UNL     1       1.737   7.735  -7.762  0.00  0.00    -0.216 OA
ENDROOT
BRANCH   1   3
ATOM      3  C   UNL     1       3.383   6.162  -8.060  0.00  0.00    +0.010 A 
ATOM      4  C   UNL     1       4.562   5.634  -7.590  0.00  0.00    +0.005 A 
ATOM      5  C   UNL     1       5.528   5.330  -8.542  0.00  0.00    +0.075 A 
ATOM      6  C   UNL     1       5.458   5.910  -9.802  0.00  0.00    +0.290 A 
ATOM      7  C   UNL     1       4.285   6.519 -10.191  0.00  0.00    +0.075 A 
ATOM      8  C   UNL     1       3.420   6.919  -9.182  0.00  0.00    +0.005 A 
BRANCH   6   9
ATOM      9  N   UNL     1       6.337   5.500 -10.858  0.00  0.00    +0.081 N 
ATOM     10  O   UNL     1       5.834   5.429 -12.146  0.00  0.00    -0.576 OA
ATOM     11  O   UNL     1       7.563   5.731 -10.736  0.00  0.00    +0.041 OA
ENDBRANCH   6   9
ENDBRANCH   1   3
BRANCH   1  12
ATOM     12  CA  UNL     1       1.209   5.489  -7.134  0.00  0.00    +0.163 C 
BRANCH  12  15
ATOM     13  O   UNL     1      -1.435   4.974  -6.891  0.00  0.00    -0.271 OA
ATOM     14  C   UNL     1      -1.179   5.722  -6.272  0.00  0.00    +0.272 C 
ATOM     15  N   UNL     1       0.139   6.188  -6.210  0.00  0.00    -0.199 NA
BRANCH  14  16
ATOM     16  C   UNL     1      -2.197   6.532  -5.526  0.00  0.00    +0.236 C 
ATOM     17 CL   UNL     1      -1.322   7.897  -4.773  0.00  0.00    -0.087 Cl
ATOM     18 CL   UNL     1      -2.794   5.549  -4.153  0.00  0.00    -0.087 Cl
ENDBRANCH  14  16
ENDBRANCH  12  15
BRANCH  12  19
ATOM     19  C   UNL     1       1.774   4.546  -5.905  0.00  0.00    +0.207 C 
ATOM     20  O   UNL     1       2.046   3.327  -6.485  0.00  0.00    -0.218 OA
ENDBRANCH  12  19
ENDBRANCH   1  12
TORSDOF 6
ENDMDL
MODEL 2
REMARK VINA RESULT:      -6.9      3.777      7.355
REMARK  Name = 
REMARK  6 active torsions:
REMARK  status: ('A' for Active; 'I' for Inactive)
REMARK    1  A    between atoms: C_2  and  C_18
REMARK    2  A    between atoms: N_3  and  CA_4
REMARK    3  A    between atoms: CA_4  and  C_5
REMARK    4  A    between atoms: CA_4  and  C_7
REMARK    5  A    between atoms: C_7  and  C_9
REMARK    6  A    between atoms: C_12  and  N_13
REMARK                            x       y       z     vdW  Elec       q    Type
REMARK                         _______ _______ _______ _____ _____    ______ ____
ROOT
ATOM      1  C   UNL     1       1.298   6.729  -7.315  0.00  0.00    +0.197 C 
ATOM      2  O   UNL     1       2.658   6.600  -6.601  0.00  0.00    -0.216 OA
ENDROOT
BRANCH   1   3
ATOM      3  C   UNL     1       0.495   6.060  -6.052  0.00  0.00    +0.010 A 
ATOM      4  C   UNL     1      -0.812   6.483  -5.996  0.00  0.00    +0.005 A 
ATOM      5  C   UNL     1      -1.525   6.148  -4.851  0.00  0.00    +0.075 A 
ATOM      6  C   UNL     1      -0.841   5.791  -3.696  0.00  0.00    +0.290 A 
ATOM      7  C   UNL     1       0.496   5.473  -3.785  0.00  0.00    +0.075 A 
ATOM      8  C   UNL     1       1.184   5.952  -4.891  0.00  0.00    +0.005 A 
BRANCH   6   9
ATOM      9  N   UNL     1      -1.536   5.285  -2.549  0.00  0.00    +0.081 N 
ATOM     10  O   UNL     1      -2.760   4.665  -2.738  0.00  0.00    -0.576 OA
ATOM     11  O   UNL     1      -0.861   4.924  -1.556  0.00  0.00    +0.041 OA
ENDBRANCH   6   9
ENDBRANCH   1   3
BRANCH   1  12
ATOM     12  CA  UNL     1       1.484   5.176  -8.120  0.00  0.00    +0.163 C 
BRANCH  12  15
ATOM     13  O   UNL     1       3.708   3.874  -8.939  0.00  0.00    -0.271 OA
ATOM     14  C   UNL     1       3.693   4.797  -9.334  0.00  0.00    +0.272 C 
ATOM     15  N   UNL     1       2.645   5.682  -9.059  0.00  0.00    -0.199 NA
BRANCH  14  16
ATOM     16  C   UNL     1       4.865   5.375 -10.070  0.00  0.00    +0.236 C 
ATOM     17 CL   UNL     1       6.223   5.437  -8.910  0.00  0.00    -0.087 Cl
ATOM     18 CL   UNL     1       4.497   7.087 -10.447  0.00  0.00    -0.087 Cl
ENDBRANCH  14  16
ENDBRANCH  12  15
BRANCH  12  19
ATOM     19  C   UNL     1       0.317   5.545  -9.227  0.00  0.00    +0.207 C 
ATOM     20  O   UNL     1       0.389   4.544 -10.170  0.00  0.00    -0.218 OA
ENDBRANCH  12  19
ENDBRANCH   1  12
TORSDOF 6
ENDMDL
MODEL 3
REMARK VINA RESULT:      -6.8      4.013      7.433
REMARK  Name = 
REMARK  6 active torsions:
REMARK  status: ('A' for Active; 'I' for Inactive)
REMARK    1  A    between atoms: C_2  and  C_18
REMARK    2  A    between atoms: N_3  and  CA_4
REMARK    3  A    between atoms: CA_4  and  C_5
REMARK    4  A    between atoms: CA_4  and  C_7
REMARK    5  A    between atoms: C_7  and  C_9
REMARK    6  A    between atoms: C_12  and  N_13
REMARK                            x       y       z     vdW  Elec       q    Type
REMARK                         _______ _______ _______ _____ _____    ______ ____
ROOT
ATOM      1  C   UNL     1       1.538   6.843  -8.640  0.00  0.00    +0.197 C 
ATOM      2  O   UNL     1       2.136   8.036  -7.868  0.00  0.00    -0.216 OA
ENDROOT
BRANCH   1   3
ATOM      3  C   UNL     1       0.826   6.240  -7.291  0.00  0.00    +0.010 A 
ATOM      4  C   UNL     1      -0.396   5.676  -7.569  0.00  0.00    +0.005 A 
ATOM      5  C   UNL     1      -1.180   5.324  -6.476  0.00  0.00    +0.075 A 
ATOM      6  C   UNL     1      -0.922   5.890  -5.234  0.00  0.00    +0.290 A 
ATOM      7  C   UNL     1       0.278   6.537  -5.034  0.00  0.00    +0.075 A 
ATOM      8  C   UNL     1       0.950   6.981  -6.164  0.00  0.00    +0.005 A 
BRANCH   6   9
ATOM      9  N   UNL     1      -1.598   5.435  -4.056  0.00  0.00    +0.081 N 
ATOM     10  O   UNL     1      -0.845   5.156  -2.928  0.00  0.00    -0.576 OA
ATOM     11  O   UNL     1      -2.786   5.794  -3.874  0.00  0.00    +0.041 OA
ENDBRANCH   6   9
ENDBRANCH   1   3
BRANCH   1  12
ATOM     12  CA  UNL     1       2.982   5.866  -8.407  0.00  0.00    +0.163 C 
BRANCH  12  15
ATOM     13  O   UNL     1       5.547   5.553  -9.205  0.00  0.00    -0.271 OA
ATOM     14  C   UNL     1       5.054   6.122  -9.870  0.00  0.00    +0.272 C 
ATOM     15  N   UNL     1       3.705   6.441  -9.686  0.00  0.00    -0.199 NA
BRANCH  14  16
ATOM     16  C   UNL     1       5.752   6.838 -10.988  0.00  0.00    +0.236 C 
ATOM     17 CL   UNL     1       5.981   5.647 -12.301  0.00  0.00    -0.087 Cl
ATOM     18 CL   UNL     1       7.406   7.251 -10.440  0.00  0.00    -0.087 Cl
ENDBRANCH  14  16
ENDBRANCH  12  15
BRANCH  12  19
ATOM     19  C   UNL     1       2.332   4.601  -9.243  0.00  0.00    +0.207 C 
ATOM     20  O   UNL     1       2.741   3.475  -8.565  0.00  0.00    -0.218 OA
ENDBRANCH  12  19
ENDBRANCH   1  12
TORSDOF 6
ENDMDL
MODEL 4
REMARK VINA RESULT:      -6.8      3.095      3.980
REMARK  Name = 
REMARK  6 active torsions:
REMARK  status: ('A' for Active; 'I' for Inactive)
REMARK    1  A    between atoms: C_2  and  C_18
REMARK    2  A    between atoms: N_3  and  CA_4
REMARK    3  A    between atoms: CA_4  and  C_5
REMARK    4  A    between atoms: CA_4  and  C_7
REMARK    5  A    between atoms: C_7  and  C_9
REMARK    6  A    between atoms: C_12  and  N_13
REMARK                            x       y       z     vdW  Elec       q    Type
REMARK                         _______ _______ _______ _____ _____    ______ ____
ROOT
ATOM      1  C   UNL     1       3.479   5.356  -7.278  0.00  0.00    +0.197 C 
ATOM      2  O   UNL     1       4.695   4.973  -6.412  0.00  0.00    -0.216 OA
ENDROOT
BRANCH   1   3
ATOM      3  C   UNL     1       4.426   5.720  -8.567  0.00  0.00    +0.010 A 
ATOM      4  C   UNL     1       3.802   5.430  -9.756  0.00  0.00    +0.005 A 
ATOM      5  C   UNL     1       4.586   5.499 -10.902  0.00  0.00    +0.075 A 
ATOM      6  C   UNL     1       5.970   5.448 -10.792  0.00  0.00    +0.290 A 
ATOM      7  C   UNL     1       6.547   5.644  -9.556  0.00  0.00    +0.075 A 
ATOM      8  C   UNL     1       5.743   5.429  -8.445  0.00  0.00    +0.005 A 
BRANCH   6   9
ATOM      9  N   UNL     1       6.814   5.678 -11.926  0.00  0.00    +0.081 N 
ATOM     10  O   UNL     1       7.418   6.917 -12.061  0.00  0.00    -0.576 OA
ATOM     11  O   UNL     1       7.404   4.698 -12.438  0.00  0.00    +0.041 OA
ENDBRANCH   6   9
ENDBRANCH   1   3
BRANCH   1  12
ATOM     12  CA  UNL     1       3.491   7.018  -6.702  0.00  0.00    +0.163 C 
BRANCH  12  15
ATOM     13  O   UNL     1       4.396   7.802  -4.278  0.00  0.00    -0.271 OA
ATOM     14  C   UNL     1       3.609   7.189  -4.162  0.00  0.00    +0.272 C 
ATOM     15  N   UNL     1       2.957   6.636  -5.269  0.00  0.00    -0.199 NA
BRANCH  14  16
ATOM     16  C   UNL     1       3.196   6.656  -2.822  0.00  0.00    +0.236 C 
ATOM     17 CL   UNL     1       3.943   7.716  -1.592  0.00  0.00    -0.087 Cl
ATOM     18 CL   UNL     1       3.974   5.059  -2.594  0.00  0.00    -0.087 Cl
ENDBRANCH  14  16
ENDBRANCH  12  15
BRANCH  12  19
ATOM     19  C   UNL     1       1.972   7.292  -7.285  0.00  0.00    +0.207 C 
ATOM     20  O   UNL     1       2.065   8.472  -7.989  0.00  0.00    -0.218 OA
ENDBRANCH  12  19
ENDBRANCH   1  12
TORSDOF 6
ENDMDL
MODEL 5
REMARK VINA RESULT:      -6.7      4.391      7.410
REMARK  Name = 
REMARK  6 active torsions:
REMARK  status: ('A' for Active; 'I' for Inactive)
REMARK    1  A    between atoms: C_2  and  C_18
REMARK    2  A    between atoms: N_3  and  CA_4
REMARK    3  A    between atoms: CA_4  and  C_5
REMARK    4  A    between atoms: CA_4  and  C_7
REMARK    5  A    between atoms: C_7  and  C_9
REMARK    6  A    between atoms: C_12  and  N_13
REMARK                            x       y       z     vdW  Elec       q    Type
REMARK                         _______ _______ _______ _____ _____    ______ ____
ROOT
ATOM      1  C   UNL     1       0.933   5.279  -8.195  0.00  0.00    +0.197 C 
ATOM      2  O   UNL     1      -0.305   4.780  -8.968  0.00  0.00    -0.216 OA
ENDROOT
BRANCH   1   3
ATOM      3  C   UNL     1       0.036   5.673  -6.880  0.00  0.00    +0.010 A 
ATOM      4  C   UNL     1       0.700   5.396  -5.708  0.00  0.00    +0.005 A 
ATOM      5  C   UNL     1      -0.041   5.493  -4.537  0.00  0.00    +0.075 A 
ATOM      6  C   UNL     1      -1.428   5.454  -4.596  0.00  0.00    +0.290 A 
ATOM      7  C   UNL     1      -2.048   5.635  -5.813  0.00  0.00    +0.075 A 
ATOM      8  C   UNL     1      -1.287   5.394  -6.949  0.00  0.00    +0.005 A 
BRANCH   6   9
ATOM      9  N   UNL     1      -2.228   5.712  -3.436  0.00  0.00    +0.081 N 
ATOM     10  O   UNL     1      -2.991   6.867  -3.402  0.00  0.00    -0.576 OA
ATOM     11  O   UNL     1      -2.644   4.734  -2.770  0.00  0.00    +0.041 OA
ENDBRANCH   6   9
ENDBRANCH   1   3
BRANCH   1  12
ATOM     12  CA  UNL     1       0.800   6.898  -8.868  0.00  0.00    +0.163 C 
BRANCH  12  15
ATOM     13  O   UNL     1      -0.213   7.651 -11.259  0.00  0.00    -0.271 OA
ATOM     14  C   UNL     1       0.535   6.996 -11.401  0.00  0.00    +0.272 C 
ATOM     15  N   UNL     1       1.226   6.446 -10.317  0.00  0.00    -0.199 NA
BRANCH  14  16
ATOM     16  C   UNL     1       0.839   6.401 -12.744  0.00  0.00    +0.236 C 
ATOM     17 CL   UNL     1       2.575   5.977 -12.741  0.00  0.00    -0.087 Cl
ATOM     18 CL   UNL     1       0.678   7.692 -13.975  0.00  0.00    -0.087 Cl
ENDBRANCH  14  16
ENDBRANCH  12  15
BRANCH  12  19
ATOM     19  C   UNL     1       2.350   7.267  -8.438  0.00  0.00    +0.207 C 
ATOM     20  O   UNL     1       2.272   8.507  -7.846  0.00  0.00    -0.218 OA
ENDBRANCH  12  19
ENDBRANCH   1  12
TORSDOF 6
ENDMDL
MODEL 6
REMARK VINA RESULT:      -6.7      1.693      2.308
REMARK  Name = 
REMARK  6 active torsions:
REMARK  status: ('A' for Active; 'I' for Inactive)
REMARK    1  A    between atoms: C_2  and  C_18
REMARK    2  A    between atoms: N_3  and  CA_4
REMARK    3  A    between atoms: CA_4  and  C_5
REMARK    4  A    between atoms: CA_4  and  C_7
REMARK    5  A    between atoms: C_7  and  C_9
REMARK    6  A    between atoms: C_12  and  N_13
REMARK                            x       y       z     vdW  Elec       q    Type
REMARK                         _______ _______ _______ _____ _____    ______ ____
ROOT
ATOM      1  C   UNL     1       3.159   6.760  -8.441  0.00  0.00    +0.197 C 
ATOM      2  O   UNL     1       1.857   6.376  -9.171  0.00  0.00    -0.216 OA
ENDROOT
BRANCH   1   3
ATOM      3  C   UNL     1       4.088   5.992  -9.553  0.00  0.00    +0.010 A 
ATOM      4  C   UNL     1       5.420   6.298  -9.404  0.00  0.00    +0.005 A 
ATOM      5  C   UNL     1       6.272   5.873 -10.417  0.00  0.00    +0.075 A 
ATOM      6  C   UNL     1       5.750   5.548 -11.662  0.00  0.00    +0.290 A 
ATOM      7  C   UNL     1       4.392   5.350 -11.784  0.00  0.00    +0.075 A 
ATOM      8  C   UNL     1       3.584   5.915 -10.807  0.00  0.00    +0.005 A 
BRANCH   6   9
ATOM      9  N   UNL     1       6.568   4.954 -12.678  0.00  0.00    +0.081 N 
ATOM     10  O   UNL     1       6.300   5.254 -14.003  0.00  0.00    -0.576 OA
ATOM     11  O   UNL     1       7.750   4.652 -12.389  0.00  0.00    +0.041 OA
ENDBRANCH   6   9
ENDBRANCH   1   3
BRANCH   1  12
ATOM     12  CA  UNL     1       3.092   5.342  -7.403  0.00  0.00    +0.163 C 
BRANCH  12  15
ATOM     13  O   UNL     1       1.270   3.878  -6.044  0.00  0.00    -0.271 OA
ATOM     14  C   UNL     1       1.008   4.847  -6.021  0.00  0.00    +0.272 C 
ATOM     15  N   UNL     1       1.786   5.819  -6.659  0.00  0.00    -0.199 NA
BRANCH  14  16
ATOM     16  C   UNL     1      -0.316   5.309  -5.491  0.00  0.00    +0.236 C 
ATOM     17 CL   UNL     1      -1.481   5.194  -6.842  0.00  0.00    -0.087 Cl
ATOM     18 CL   UNL     1      -0.193   7.059  -5.130  0.00  0.00    -0.087 Cl
ENDBRANCH  14  16
ENDBRANCH  12  15
BRANCH  12  19
ATOM     19  C   UNL     1       4.083   6.042  -6.285  0.00  0.00    +0.207 C 
ATOM     20  O   UNL     1       4.395   5.032  -5.402  0.00  0.00    -0.218 OA
ENDBRANCH  12  19
ENDBRANCH   1  12
TORSDOF 6
ENDMDL
MODEL 7
REMARK VINA RESULT:      -6.5      3.892      7.501
REMARK  Name = 
REMARK  6 active torsions:
REMARK  status: ('A' for Active; 'I' for Inactive)
REMARK    1  A    between atoms: C_2  and  C_18
REMARK    2  A    between atoms: N_3  and  CA_4
REMARK    3  A    between atoms: CA_4  and  C_5
REMARK    4  A    between atoms: CA_4  and  C_7
REMARK    5  A    between atoms: C_7  and  C_9
REMARK    6  A    between atoms: C_12  and  N_13
REMARK                            x       y       z     vdW  Elec       q    Type
REMARK                         _______ _______ _______ _____ _____    ______ ____
ROOT
ATOM      1  C   UNL     1       2.310   4.787  -6.432  0.00  0.00    +0.197 C 
ATOM      2  O   UNL     1       1.579   4.660  -7.783  0.00  0.00    -0.216 OA
ENDROOT
BRANCH   1   3
ATOM      3  C   UNL     1       0.987   5.418  -5.698  0.00  0.00    +0.010 A 
ATOM      4  C   UNL     1       0.966   5.135  -4.353  0.00  0.00    +0.005 A 
ATOM      5  C   UNL     1      -0.208   5.437  -3.674  0.00  0.00    +0.075 A 
ATOM      6  C   UNL     1      -1.389   5.608  -4.384  0.00  0.00    +0.290 A 
ATOM      7  C   UNL     1      -1.325   5.786  -5.749  0.00  0.00    +0.075 A 
ATOM      8  C   UNL     1      -0.176   5.342  -6.388  0.00  0.00    +0.005 A 
BRANCH   6   9
ATOM      9  N   UNL     1      -2.581   6.078  -3.742  0.00  0.00    +0.081 N 
ATOM     10  O   UNL     1      -3.424   5.150  -3.154  0.00  0.00    -0.576 OA
ATOM     11  O   UNL     1      -2.581   7.235  -3.259  0.00  0.00    +0.041 OA
ENDBRANCH   6   9
ENDBRANCH   1   3
BRANCH   1  12
ATOM     12  CA  UNL     1       2.943   6.379  -6.833  0.00  0.00    +0.163 C 
BRANCH  12  15
ATOM     13  O   UNL     1       3.532   7.126  -9.363  0.00  0.00    -0.271 OA
ATOM     14  C   UNL     1       4.147   6.385  -9.079  0.00  0.00    +0.272 C 
ATOM     15  N   UNL     1       4.045   5.812  -7.807  0.00  0.00    -0.199 NA
BRANCH  14  16
ATOM     16  C   UNL     1       5.072   5.696 -10.038  0.00  0.00    +0.236 C 
ATOM     17 CL   UNL     1       6.673   5.621  -9.247  0.00  0.00    -0.087 Cl
ATOM     18 CL   UNL     1       5.303   6.765 -11.456  0.00  0.00    -0.087 Cl
ENDBRANCH  14  16
ENDBRANCH  12  15
BRANCH  12  19
ATOM     19  C   UNL     1       3.964   6.363  -5.537  0.00  0.00    +0.207 C 
ATOM     20  O   UNL     1       4.060   7.678  -5.140  0.00  0.00    -0.218 OA
ENDBRANCH  12  19
ENDBRANCH   1  12
TORSDOF 6
ENDMDL
MODEL 8
REMARK VINA RESULT:      -6.3      4.114      6.174
REMARK  Name = 
REMARK  6 active torsions:
REMARK  status: ('A' for Active; 'I' for Inactive)
REMARK    1  A    between atoms: C_2  and  C_18
REMARK    2  A    between atoms: N_3  and  CA_4
REMARK    3  A    between atoms: CA_4  and  C_5
REMARK    4  A    between atoms: CA_4  and  C_7
REMARK    5  A    between atoms: C_7  and  C_9
REMARK    6  A    between atoms: C_12  and  N_13
REMARK                            x       y       z     vdW  Elec       q    Type
REMARK                         _______ _______ _______ _____ _____    ______ ____
ROOT
ATOM      1  C   UNL     1       2.351   4.330  -6.398  0.00  0.00    +0.197 C 
ATOM      2  O   UNL     1       0.897   4.785  -6.161  0.00  0.00    -0.216 OA
ENDROOT
BRANCH   1   3
ATOM      3  C   UNL     1       2.890   5.137  -5.075  0.00  0.00    +0.010 A 
ATOM      4  C   UNL     1       4.064   4.606  -4.598  0.00  0.00    +0.005 A 
ATOM      5  C   UNL     1       4.500   5.073  -3.363  0.00  0.00    +0.075 A 
ATOM      6  C   UNL     1       3.601   5.698  -2.509  0.00  0.00    +0.290 A 
ATOM      7  C   UNL     1       2.390   6.122  -3.011  0.00  0.00    +0.075 A 
ATOM      8  C   UNL     1       1.948   5.520  -4.181  0.00  0.00    +0.005 A 
BRANCH   6   9
ATOM      9  N   UNL     1       4.042   6.335  -1.303  0.00  0.00    +0.081 N 
ATOM     10  O   UNL     1       4.050   5.598  -0.131  0.00  0.00    -0.576 OA
ATOM     11  O   UNL     1       4.871   7.271  -1.394  0.00  0.00    +0.041 OA
ENDBRANCH   6   9
ENDBRANCH   1   3
BRANCH   1  12
ATOM     12  CA  UNL     1       2.688   5.690  -7.461  0.00  0.00    +0.163 C 
BRANCH  12  15
ATOM     13  O   UNL     1       1.373   7.244  -9.240  0.00  0.00    -0.271 OA
ATOM     14  C   UNL     1       1.054   6.296  -9.321  0.00  0.00    +0.272 C 
ATOM     15  N   UNL     1       1.575   5.288  -8.503  0.00  0.00    -0.199 NA
BRANCH  14  16
ATOM     16  C   UNL     1      -0.129   5.914 -10.160  0.00  0.00    +0.236 C 
ATOM     17 CL   UNL     1       0.374   4.519 -11.158  0.00  0.00    -0.087 Cl
ATOM     18 CL   UNL     1      -0.433   7.237 -11.329  0.00  0.00    -0.087 Cl
ENDBRANCH  14  16
ENDBRANCH  12  15
BRANCH  12  19
ATOM     19  C   UNL     1       3.859   4.848  -8.262  0.00  0.00    +0.207 C 
ATOM     20  O   UNL     1       4.615   5.805  -8.901  0.00  0.00    -0.218 OA
ENDBRANCH  12  19
ENDBRANCH   1  12
TORSDOF 6
ENDMDL
MODEL 9
REMARK VINA RESULT:      -6.2      4.418      7.459
REMARK  Name = 
REMARK  6 active torsions:
REMARK  status: ('A' for Active; 'I' for Inactive)
REMARK    1  A    between atoms: C_2  and  C_18
REMARK    2  A    between atoms: N_3  and  CA_4
REMARK    3  A    between atoms: CA_4  and  C_5
REMARK    4  A    between atoms: CA_4  and  C_7
REMARK    5  A    between atoms: C_7  and  C_9
REMARK    6  A    between atoms: C_12  and  N_13
REMARK                            x       y       z     vdW  Elec       q    Type
REMARK                         _______ _______ _______ _____ _____    ______ ____
ROOT
ATOM      1  C   UNL     1       2.242   6.555  -6.652  0.00  0.00    +0.197 C 
ATOM      2  O   UNL     1       3.433   7.421  -6.198  0.00  0.00    -0.216 OA
ENDROOT
BRANCH   1   3
ATOM      3  C   UNL     1       2.011   5.959  -5.142  0.00  0.00    +0.010 A 
ATOM      4  C   UNL     1       0.682   5.715  -4.888  0.00  0.00    +0.005 A 
ATOM      5  C   UNL     1       0.348   5.410  -3.574  0.00  0.00    +0.075 A 
ATOM      6  C   UNL     1       1.220   5.747  -2.546  0.00  0.00    +0.290 A 
ATOM      7  C   UNL     1       2.518   6.086  -2.859  0.00  0.00    +0.075 A 
ATOM      8  C   UNL     1       2.762   6.509  -4.159  0.00  0.00    +0.005 A 
BRANCH   6   9
ATOM      9  N   UNL     1       0.989   5.307  -1.202  0.00  0.00    +0.081 N 
ATOM     10  O   UNL     1       1.883   4.415  -0.636  0.00  0.00    -0.576 OA
ATOM     11  O   UNL     1       0.377   6.074  -0.422  0.00  0.00    +0.041 OA
ENDBRANCH   6   9
ENDBRANCH   1   3
BRANCH   1  12
ATOM     12  CA  UNL     1       3.286   5.214  -7.105  0.00  0.00    +0.163 C 
BRANCH  12  15
ATOM     13  O   UNL     1       5.637   4.961  -8.416  0.00  0.00    -0.271 OA
ATOM     14  C   UNL     1       5.036   5.588  -8.920  0.00  0.00    +0.272 C 
ATOM     15  N   UNL     1       3.757   5.895  -8.447  0.00  0.00    -0.199 NA
BRANCH  14  16
ATOM     16  C   UNL     1       5.517   6.397 -10.088  0.00  0.00    +0.236 C 
ATOM     17 CL   UNL     1       5.111   5.469 -11.561  0.00  0.00    -0.087 Cl
ATOM     18 CL   UNL     1       7.307   6.435 -10.041  0.00  0.00    -0.087 Cl
ENDBRANCH  14  16
ENDBRANCH  12  15
BRANCH  12  19
ATOM     19  C   UNL     1       2.044   4.421  -7.848  0.00  0.00    +0.207 C 
ATOM     20  O   UNL     1       2.641   3.403  -8.556  0.00  0.00    -0.218 OA
ENDBRANCH  12  19
ENDBRANCH   1  12
TORSDOF 6
ENDMDL
