MODEL 1
REMARK VINA RESULT:      -7.6      0.000      0.000
REMARK  Name = 
REMARK  6 active torsions:
REMARK  status: ('A' for Active; 'I' for Inactive)
REMARK    1  A    between atoms: C_2  and  N_5
REMARK    2  A    between atoms: N_5  and  C_6
REMARK    3  A    between atoms: C_6  and  C_7
REMARK    4  A    between atoms: C_7  and  C_9
REMARK    5  A    between atoms: C_9  and  O_10
REMARK    6  A    between atoms: O_10  and  C_11
REMARK                            x       y       z     vdW  Elec       q    Type
REMARK                         _______ _______ _______ _____ _____    ______ ____
ROOT
ATOM      1  C   UNL     1       2.157   5.472 -10.550  0.00  0.00    +0.134 A 
ATOM      2  C   UNL     1       2.039   6.212 -11.722  0.00  0.00    +0.011 A 
ATOM      3  C   UNL     1       2.718   5.669 -12.951  0.00  0.00    +0.065 C 
ATOM      4  C   UNL     1       1.416   4.835 -13.530  0.00  0.00    +0.187 C 
ATOM      5  C   UNL     1       0.845   6.108 -14.579  0.00  0.00    +0.187 C 
ATOM      6  C   UNL     1       0.875   7.295 -13.437  0.00  0.00    +0.062 C 
ATOM      7  O   UNL     1       2.225   6.483 -15.099  0.00  0.00    -0.220 OA
ATOM      8  O   UNL     1       2.224   4.176 -14.632  0.00  0.00    -0.220 OA
ATOM      9  C   UNL     1       0.781   6.685 -12.115  0.00  0.00    -0.021 A 
ATOM     10  C   UNL     1      -0.210   6.864 -11.181  0.00  0.00    -0.004 A 
ATOM     11  C   UNL     1      -0.087   6.134 -10.001  0.00  0.00    +0.003 A 
ATOM     12  C   UNL     1       1.116   5.541  -9.634  0.00  0.00    +0.037 A 
ENDROOT
BRANCH   1  13
ATOM     13  O   UNL     1       3.468   5.192 -10.192  0.00  0.00    -0.473 OA
BRANCH  13  14
ATOM     14  C   UNL     1       3.715   4.339  -9.075  0.00  0.00    +0.239 C 
BRANCH  14  15
ATOM     15  C   UNL     1       5.032   5.036  -8.334  0.00  0.00    +0.213 C 
ATOM     16  O   UNL     1       4.175   6.175  -7.778  0.00  0.00    -0.218 OA
BRANCH  15  17
ATOM     17  C   UNL     1       5.407   5.917  -9.696  0.00  0.00    +0.125 C 
BRANCH  17  18
ATOM     18  N   UNL     1       6.831   5.791  -9.811  0.00  0.00    -0.218 NA
BRANCH  18  20
ATOM     19  C   UNL     1       7.698   6.821 -10.536  0.00  0.00    +0.017 C 
ATOM     20  C   UNL     1       7.466   6.655 -10.726  0.00  0.00    +0.060 C 
ATOM     21  C   UNL     1       6.681   7.828 -11.205  0.00  0.00    +0.017 C 
ATOM     22  C   UNL     1       8.414   6.063 -11.689  0.00  0.00    +0.017 C 
ENDBRANCH  18  20
ENDBRANCH  17  18
ENDBRANCH  15  17
ENDBRANCH  14  15
ENDBRANCH  13  14
ENDBRANCH   1  13
TORSDOF 6
ENDMDL
MODEL 2
REMARK VINA RESULT:      -7.4      6.403     10.255
REMARK  Name = 
REMARK  6 active torsions:
REMARK  status: ('A' for Active; 'I' for Inactive)
REMARK    1  A    between atoms: C_2  and  N_5
REMARK    2  A    between atoms: N_5  and  C_6
REMARK    3  A    between atoms: C_6  and  C_7
REMARK    4  A    between atoms: C_7  and  C_9
REMARK    5  A    between atoms: C_9  and  O_10
REMARK    6  A    between atoms: O_10  and  C_11
REMARK                            x       y       z     vdW  Elec       q    Type
REMARK                         _______ _______ _______ _____ _____    ______ ____
ROOT
ATOM      1  C   UNL     1       2.778   6.787  -4.406  0.00  0.00    +0.134 A 
ATOM      2  C   UNL     1       3.065   7.154  -3.096  0.00  0.00    +0.011 A 
ATOM      3  C   UNL     1       2.303   6.455  -2.001  0.00  0.00    +0.065 C 
ATOM      4  C   UNL     1       3.410   5.256  -1.741  0.00  0.00    +0.187 C 
ATOM      5  C   UNL     1       4.249   6.070  -0.445  0.00  0.00    +0.187 C 
ATOM      6  C   UNL     1       4.453   7.496  -1.245  0.00  0.00    +0.062 C 
ATOM      7  O   UNL     1       2.985   6.563   0.245  0.00  0.00    -0.220 OA
ATOM      8  O   UNL     1       2.496   4.507  -0.791  0.00  0.00    -0.220 OA
ATOM      9  C   UNL     1       4.399   7.247  -2.681  0.00  0.00    -0.021 A 
ATOM     10  C   UNL     1       5.392   7.464  -3.605  0.00  0.00    -0.004 A 
ATOM     11  C   UNL     1       5.104   7.108  -4.920  0.00  0.00    +0.003 A 
ATOM     12  C   UNL     1       3.798   6.885  -5.342  0.00  0.00    +0.037 A 
ENDROOT
BRANCH   1  13
ATOM     13  O   UNL     1       1.433   6.877  -4.733  0.00  0.00    -0.473 OA
BRANCH  13  14
ATOM     14  C   UNL     1       1.024   6.600  -6.073  0.00  0.00    +0.239 C 
BRANCH  14  15
ATOM     15  C   UNL     1       0.432   5.048  -5.989  0.00  0.00    +0.213 C 
ATOM     16  O   UNL     1      -0.665   5.361  -7.009  0.00  0.00    -0.218 OA
BRANCH  15  17
ATOM     17  C   UNL     1      -0.571   5.436  -4.717  0.00  0.00    +0.125 C 
BRANCH  17  18
ATOM     18  N   UNL     1      -1.687   6.086  -5.340  0.00  0.00    -0.218 NA
BRANCH  18  20
ATOM     19  C   UNL     1      -2.681   7.076  -4.730  0.00  0.00    +0.017 C 
ATOM     20  C   UNL     1      -2.396   7.011  -4.549  0.00  0.00    +0.060 C 
ATOM     21  C   UNL     1      -1.853   8.398  -4.479  0.00  0.00    +0.017 C 
ATOM     22  C   UNL     1      -3.068   6.509  -3.335  0.00  0.00    +0.017 C 
ENDBRANCH  18  20
ENDBRANCH  17  18
ENDBRANCH  15  17
ENDBRANCH  14  15
ENDBRANCH  13  14
ENDBRANCH   1  13
TORSDOF 6
ENDMDL
MODEL 3
REMARK VINA RESULT:      -7.3      3.249      5.857
REMARK  Name = 
REMARK  6 active torsions:
REMARK  status: ('A' for Active; 'I' for Inactive)
REMARK    1  A    between atoms: C_2  and  N_5
REMARK    2  A    between atoms: N_5  and  C_6
REMARK    3  A    between atoms: C_6  and  C_7
REMARK    4  A    between atoms: C_7  and  C_9
REMARK    5  A    between atoms: C_9  and  O_10
REMARK    6  A    between atoms: O_10  and  C_11
REMARK                            x       y       z     vdW  Elec       q    Type
REMARK                         _______ _______ _______ _____ _____    ______ ____
ROOT
ATOM      1  C   UNL     1       1.747   4.856  -7.492  0.00  0.00    +0.134 A 
ATOM      2  C   UNL     1       1.633   4.742  -6.110  0.00  0.00    +0.011 A 
ATOM      3  C   UNL     1       2.834   5.122  -5.285  0.00  0.00    +0.065 C 
ATOM      4  C   UNL     1       2.397   6.695  -5.035  0.00  0.00    +0.187 C 
ATOM      5  C   UNL     1       1.610   6.416  -3.502  0.00  0.00    +0.187 C 
ATOM      6  C   UNL     1       0.672   5.164  -4.020  0.00  0.00    +0.062 C 
ATOM      7  O   UNL     1       2.682   5.479  -2.969  0.00  0.00    -0.220 OA
ATOM      8  O   UNL     1       3.722   7.045  -4.384  0.00  0.00    -0.220 OA
ATOM      9  C   UNL     1       0.504   5.261  -5.466  0.00  0.00    -0.021 A 
ATOM     10  C   UNL     1      -0.669   5.427  -6.161  0.00  0.00    -0.004 A 
ATOM     11  C   UNL     1      -0.559   5.529  -7.545  0.00  0.00    +0.003 A 
ATOM     12  C   UNL     1       0.596   5.139  -8.213  0.00  0.00    +0.037 A 
ENDROOT
BRANCH   1  13
ATOM     13  O   UNL     1       2.831   4.173  -8.024  0.00  0.00    -0.473 OA
BRANCH  13  14
ATOM     14  C   UNL     1       3.372   4.597  -9.275  0.00  0.00    +0.239 C 
BRANCH  14  15
ATOM     15  C   UNL     1       4.462   5.779  -8.850  0.00  0.00    +0.213 C 
ATOM     16  O   UNL     1       3.649   6.856  -9.572  0.00  0.00    -0.218 OA
BRANCH  15  17
ATOM     17  C   UNL     1       5.387   5.498 -10.206  0.00  0.00    +0.125 C 
BRANCH  17  18
ATOM     18  N   UNL     1       6.711   5.881  -9.810  0.00  0.00    -0.218 NA
BRANCH  18  20
ATOM     19  C   UNL     1       7.649   6.870 -10.503  0.00  0.00    +0.017 C 
ATOM     20  C   UNL     1       7.416   6.714 -10.702  0.00  0.00    +0.060 C 
ATOM     21  C   UNL     1       6.703   7.921 -11.208  0.00  0.00    +0.017 C 
ATOM     22  C   UNL     1       8.370   6.079 -11.631  0.00  0.00    +0.017 C 
ENDBRANCH  18  20
ENDBRANCH  17  18
ENDBRANCH  15  17
ENDBRANCH  14  15
ENDBRANCH  13  14
ENDBRANCH   1  13
TORSDOF 6
ENDMDL
MODEL 4
REMARK VINA RESULT:      -7.3      6.192      9.315
REMARK  Name = 
REMARK  6 active torsions:
REMARK  status: ('A' for Active; 'I' for Inactive)
REMARK    1  A    between atoms: C_2  and  N_5
REMARK    2  A    between atoms: N_5  and  C_6
REMARK    3  A    between atoms: C_6  and  C_7
REMARK    4  A    between atoms: C_7  and  C_9
REMARK    5  A    between atoms: C_9  and  O_10
REMARK    6  A    between atoms: O_10  and  C_11
REMARK                            x       y       z     vdW  Elec       q    Type
REMARK                         _______ _______ _______ _____ _____    ______ ____
ROOT
ATOM      1  C   UNL     1       2.742   6.574  -3.343  0.00  0.00    +0.134 A 
ATOM      2  C   UNL     1       3.202   5.945  -4.495  0.00  0.00    +0.011 A 
ATOM      3  C   UNL     1       2.172   5.521  -5.508  0.00  0.00    +0.065 C 
ATOM      4  C   UNL     1       2.235   6.896  -6.422  0.00  0.00    +0.187 C 
ATOM      5  C   UNL     1       3.404   6.291  -7.567  0.00  0.00    +0.187 C 
ATOM      6  C   UNL     1       4.484   5.760  -6.442  0.00  0.00    +0.062 C 
ATOM      7  O   UNL     1       2.765   4.917  -7.698  0.00  0.00    -0.220 OA
ATOM      8  O   UNL     1       1.055   6.478  -7.279  0.00  0.00    -0.220 OA
ATOM      9  C   UNL     1       4.278   6.497  -5.200  0.00  0.00    -0.021 A 
ATOM     10  C   UNL     1       5.172   7.319  -4.558  0.00  0.00    -0.004 A 
ATOM     11  C   UNL     1       4.717   7.941  -3.398  0.00  0.00    +0.003 A 
ATOM     12  C   UNL     1       3.579   7.499  -2.734  0.00  0.00    +0.037 A 
ENDROOT
BRANCH   1  13
ATOM     13  O   UNL     1       1.777   5.852  -2.655  0.00  0.00    -0.473 OA
BRANCH  13  14
ATOM     14  C   UNL     1       0.572   6.507  -2.258  0.00  0.00    +0.239 C 
BRANCH  14  15
ATOM     15  C   UNL     1       0.140   5.716  -0.860  0.00  0.00    +0.213 C 
ATOM     16  O   UNL     1       0.219   4.353  -1.551  0.00  0.00    -0.218 OA
BRANCH  15  17
ATOM     17  C   UNL     1      -1.481   5.855  -1.212  0.00  0.00    +0.125 C 
BRANCH  17  18
ATOM     18  N   UNL     1      -1.641   5.105  -2.424  0.00  0.00    -0.218 NA
BRANCH  18  20
ATOM     19  C   UNL     1      -2.902   5.203  -3.283  0.00  0.00    +0.017 C 
ATOM     20  C   UNL     1      -2.708   5.485  -3.262  0.00  0.00    +0.060 C 
ATOM     21  C   UNL     1      -2.402   5.660  -4.710  0.00  0.00    +0.017 C 
ATOM     22  C   UNL     1      -3.744   6.373  -2.700  0.00  0.00    +0.017 C 
ENDBRANCH  18  20
ENDBRANCH  17  18
ENDBRANCH  15  17
ENDBRANCH  14  15
ENDBRANCH  13  14
ENDBRANCH   1  13
TORSDOF 6
ENDMDL
MODEL 5
REMARK VINA RESULT:      -7.2      7.925     10.514
REMARK  Name = 
REMARK  6 active torsions:
REMARK  status: ('A' for Active; 'I' for Inactive)
REMARK    1  A    between atoms: C_2  and  N_5
REMARK    2  A    between atoms: N_5  and  C_6
REMARK    3  A    between atoms: C_6  and  C_7
REMARK    4  A    between atoms: C_7  and  C_9
REMARK    5  A    between atoms: C_9  and  O_10
REMARK    6  A    between atoms: O_10  and  C_11
REMARK                            x       y       z     vdW  Elec       q    Type
REMARK                         _______ _______ _______ _____ _____    ______ ____
ROOT
ATOM      1  C   UNL     1       0.852   5.392  -3.038  0.00  0.00    +0.134 A 
ATOM      2  C   UNL     1       1.712   6.416  -2.656  0.00  0.00    +0.011 A 
ATOM      3  C   UNL     1       2.335   6.320  -1.289  0.00  0.00    +0.065 C 
ATOM      4  C   UNL     1       3.716   5.551  -1.768  0.00  0.00    +0.187 C 
ATOM      5  C   UNL     1       4.670   7.002  -1.946  0.00  0.00    +0.187 C 
ATOM      6  C   UNL     1       3.576   7.812  -2.873  0.00  0.00    +0.062 C 
ATOM      7  O   UNL     1       4.166   7.652  -0.667  0.00  0.00    -0.220 OA
ATOM      8  O   UNL     1       4.180   5.321  -0.343  0.00  0.00    -0.220 OA
ATOM      9  C   UNL     1       2.709   6.845  -3.540  0.00  0.00    -0.021 A 
ATOM     10  C   UNL     1       2.564   6.646  -4.891  0.00  0.00    -0.004 A 
ATOM     11  C   UNL     1       1.694   5.629  -5.276  0.00  0.00    +0.003 A 
ATOM     12  C   UNL     1       0.770   5.088  -4.390  0.00  0.00    +0.037 A 
ENDROOT
BRANCH   1  13
ATOM     13  O   UNL     1      -0.182   5.161  -2.142  0.00  0.00    -0.473 OA
BRANCH  13  14
ATOM     14  C   UNL     1      -0.851   6.276  -1.553  0.00  0.00    +0.239 C 
BRANCH  14  15
ATOM     15  C   UNL     1      -2.426   5.758  -1.414  0.00  0.00    +0.213 C 
ATOM     16  O   UNL     1      -2.214   4.677  -2.476  0.00  0.00    -0.218 OA
BRANCH  15  17
ATOM     17  C   UNL     1      -2.948   6.849  -2.559  0.00  0.00    +0.125 C 
BRANCH  17  18
ATOM     18  N   UNL     1      -2.856   6.128  -3.795  0.00  0.00    -0.218 NA
BRANCH  18  20
ATOM     19  C   UNL     1      -2.701   7.057  -5.001  0.00  0.00    +0.017 C 
ATOM     20  C   UNL     1      -2.430   6.862  -4.920  0.00  0.00    +0.060 C 
ATOM     21  C   UNL     1      -2.296   6.117  -6.204  0.00  0.00    +0.017 C 
ATOM     22  C   UNL     1      -1.477   7.967  -4.702  0.00  0.00    +0.017 C 
ENDBRANCH  18  20
ENDBRANCH  17  18
ENDBRANCH  15  17
ENDBRANCH  14  15
ENDBRANCH  13  14
ENDBRANCH   1  13
TORSDOF 6
ENDMDL
MODEL 6
REMARK VINA RESULT:      -7.2      2.231      5.088
REMARK  Name = 
REMARK  6 active torsions:
REMARK  status: ('A' for Active; 'I' for Inactive)
REMARK    1  A    between atoms: C_2  and  N_5
REMARK    2  A    between atoms: N_5  and  C_6
REMARK    3  A    between atoms: C_6  and  C_7
REMARK    4  A    between atoms: C_7  and  C_9
REMARK    5  A    between atoms: C_9  and  O_10
REMARK    6  A    between atoms: O_10  and  C_11
REMARK                            x       y       z     vdW  Elec       q    Type
REMARK                         _______ _______ _______ _____ _____    ______ ____
ROOT
ATOM      1  C   UNL     1       2.519   6.359  -9.397  0.00  0.00    +0.134 A 
ATOM      2  C   UNL     1       2.617   5.606  -8.231  0.00  0.00    +0.011 A 
ATOM      3  C   UNL     1       3.673   6.009  -7.237  0.00  0.00    +0.065 C 
ATOM      4  C   UNL     1       2.708   6.998  -6.331  0.00  0.00    +0.187 C 
ATOM      5  C   UNL     1       2.266   5.784  -5.157  0.00  0.00    +0.187 C 
ATOM      6  C   UNL     1       1.816   4.642  -6.256  0.00  0.00    +0.062 C 
ATOM      7  O   UNL     1       3.667   5.204  -5.030  0.00  0.00    -0.220 OA
ATOM      8  O   UNL     1       3.869   7.502  -5.496  0.00  0.00    -0.220 OA
ATOM      9  C   UNL     1       1.458   5.301  -7.507  0.00  0.00    -0.021 A 
ATOM     10  C   UNL     1       0.237   5.292  -8.136  0.00  0.00    -0.004 A 
ATOM     11  C   UNL     1       0.139   6.035  -9.310  0.00  0.00    +0.003 A 
ATOM     12  C   UNL     1       1.271   6.465  -9.994  0.00  0.00    +0.037 A 
ENDROOT
BRANCH   1  13
ATOM     13  O   UNL     1       3.711   6.465 -10.099  0.00  0.00    -0.473 OA
BRANCH  13  14
ATOM     14  C   UNL     1       4.164   5.352 -10.869  0.00  0.00    +0.239 C 
BRANCH  14  15
ATOM     15  C   UNL     1       4.218   5.946 -12.422  0.00  0.00    +0.213 C 
ATOM     16  O   UNL     1       4.845   4.653 -12.946  0.00  0.00    -0.218 OA
BRANCH  15  17
ATOM     17  C   UNL     1       5.716   6.629 -12.172  0.00  0.00    +0.125 C 
BRANCH  17  18
ATOM     18  N   UNL     1       6.573   5.507 -11.919  0.00  0.00    -0.218 NA
BRANCH  18  20
ATOM     19  C   UNL     1       7.891   5.495 -11.143  0.00  0.00    +0.017 C 
ATOM     20  C   UNL     1       7.810   5.787 -11.305  0.00  0.00    +0.060 C 
ATOM     21  C   UNL     1       7.789   6.700 -10.127  0.00  0.00    +0.017 C 
ATOM     22  C   UNL     1       9.007   5.853 -12.164  0.00  0.00    +0.017 C 
ENDBRANCH  18  20
ENDBRANCH  17  18
ENDBRANCH  15  17
ENDBRANCH  14  15
ENDBRANCH  13  14
ENDBRANCH   1  13
TORSDOF 6
ENDMDL
MODEL 7
REMARK VINA RESULT:      -7.0      1.719      4.007
REMARK  Name = 
REMARK  6 active torsions:
REMARK  status: ('A' for Active; 'I' for Inactive)
REMARK    1  A    between atoms: C_2  and  N_5
REMARK    2  A    between atoms: N_5  and  C_6
REMARK    3  A    between atoms: C_6  and  C_7
REMARK    4  A    between atoms: C_7  and  C_9
REMARK    5  A    between atoms: C_9  and  O_10
REMARK    6  A    between atoms: O_10  and  C_11
REMARK                            x       y       z     vdW  Elec       q    Type
REMARK                         _______ _______ _______ _____ _____    ______ ____
ROOT
ATOM      1  C   UNL     1       1.834   6.382 -12.161  0.00  0.00    +0.134 A 
ATOM      2  C   UNL     1       1.348   5.747 -11.023  0.00  0.00    +0.011 A 
ATOM      3  C   UNL     1       2.338   5.436  -9.931  0.00  0.00    +0.065 C 
ATOM      4  C   UNL     1       2.101   6.823  -9.066  0.00  0.00    +0.187 C 
ATOM      5  C   UNL     1       0.909   6.153  -7.983  0.00  0.00    +0.187 C 
ATOM      6  C   UNL     1      -0.045   5.506  -9.160  0.00  0.00    +0.062 C 
ATOM      7  O   UNL     1       1.646   4.840  -7.767  0.00  0.00    -0.220 OA
ATOM      8  O   UNL     1       3.249   6.526  -8.121  0.00  0.00    -0.220 OA
ATOM      9  C   UNL     1       0.185   6.226 -10.408  0.00  0.00    -0.021 A 
ATOM     10  C   UNL     1      -0.726   6.954 -11.132  0.00  0.00    -0.004 A 
ATOM     11  C   UNL     1      -0.245   7.582 -12.279  0.00  0.00    +0.003 A 
ATOM     12  C   UNL     1       0.969   7.219 -12.851  0.00  0.00    +0.037 A 
ENDROOT
BRANCH   1  13
ATOM     13  O   UNL     1       2.899   5.726 -12.760  0.00  0.00    -0.473 OA
BRANCH  13  14
ATOM     14  C   UNL     1       4.231   6.127 -12.439  0.00  0.00    +0.239 C 
BRANCH  14  15
ATOM     15  C   UNL     1       5.030   6.030 -13.895  0.00  0.00    +0.213 C 
ATOM     16  O   UNL     1       5.416   4.572 -13.640  0.00  0.00    -0.218 OA
BRANCH  15  17
ATOM     17  C   UNL     1       6.450   6.576 -13.219  0.00  0.00    +0.125 C 
BRANCH  17  18
ATOM     18  N   UNL     1       6.633   5.738 -12.069  0.00  0.00    -0.218 NA
BRANCH  18  20
ATOM     19  C   UNL     1       7.892   5.584 -11.215  0.00  0.00    +0.017 C 
ATOM     20  C   UNL     1       7.848   5.887 -11.371  0.00  0.00    +0.060 C 
ATOM     21  C   UNL     1       7.833   6.764 -10.166  0.00  0.00    +0.017 C 
ATOM     22  C   UNL     1       9.099   5.869 -12.152  0.00  0.00    +0.017 C 
ENDBRANCH  18  20
ENDBRANCH  17  18
ENDBRANCH  15  17
ENDBRANCH  14  15
ENDBRANCH  13  14
ENDBRANCH   1  13
TORSDOF 6
ENDMDL
MODEL 8
REMARK VINA RESULT:      -6.9      2.042      4.363
REMARK  Name = 
REMARK  6 active torsions:
REMARK  status: ('A' for Active; 'I' for Inactive)
REMARK    1  A    between atoms: C_2  and  N_5
REMARK    2  A    between atoms: N_5  and  C_6
REMARK    3  A    between atoms: C_6  and  C_7
REMARK    4  A    between atoms: C_7  and  C_9
REMARK    5  A    between atoms: C_9  and  O_10
REMARK    6  A    between atoms: O_10  and  C_11
REMARK                            x       y       z     vdW  Elec       q    Type
REMARK                         _______ _______ _______ _____ _____    ______ ____
ROOT
ATOM      1  C   UNL     1       2.284   5.930 -10.613  0.00  0.00    +0.134 A 
ATOM      2  C   UNL     1       1.826   5.504  -9.371  0.00  0.00    +0.011 A 
ATOM      3  C   UNL     1       2.689   5.810  -8.175  0.00  0.00    +0.065 C 
ATOM      4  C   UNL     1       1.960   7.239  -7.780  0.00  0.00    +0.187 C 
ATOM      5  C   UNL     1       0.847   6.553  -6.624  0.00  0.00    +0.187 C 
ATOM      6  C   UNL     1       0.289   5.360  -7.613  0.00  0.00    +0.062 C 
ATOM      7  O   UNL     1       1.872   5.631  -5.980  0.00  0.00    -0.220 OA
ATOM      8  O   UNL     1       2.992   7.565  -6.718  0.00  0.00    -0.220 OA
ATOM      9  C   UNL     1       0.499   5.756  -9.002  0.00  0.00    -0.021 A 
ATOM     10  C   UNL     1      -0.458   5.954  -9.967  0.00  0.00    -0.004 A 
ATOM     11  C   UNL     1      -0.000   6.369 -11.215  0.00  0.00    +0.003 A 
ATOM     12  C   UNL     1       1.337   6.251 -11.575  0.00  0.00    +0.037 A 
ENDROOT
BRANCH   1  13
ATOM     13  O   UNL     1       3.564   5.491 -10.920  0.00  0.00    -0.473 OA
BRANCH  13  14
ATOM     14  C   UNL     1       4.460   6.378 -11.590  0.00  0.00    +0.239 C 
BRANCH  14  15
ATOM     15  C   UNL     1       5.291   7.106 -10.346  0.00  0.00    +0.213 C 
ATOM     16  O   UNL     1       5.968   8.085 -11.309  0.00  0.00    -0.218 OA
BRANCH  15  17
ATOM     17  C   UNL     1       6.552   6.028 -10.478  0.00  0.00    +0.125 C 
BRANCH  17  18
ATOM     18  N   UNL     1       7.451   6.653 -11.405  0.00  0.00    -0.218 NA
BRANCH  18  20
ATOM     19  C   UNL     1       8.112   5.486 -12.139  0.00  0.00    +0.017 C 
ATOM     20  C   UNL     1       8.146   5.797 -12.282  0.00  0.00    +0.060 C 
ATOM     21  C   UNL     1       9.633   5.887 -12.278  0.00  0.00    +0.017 C 
ATOM     22  C   UNL     1       7.512   5.471 -13.574  0.00  0.00    +0.017 C 
ENDBRANCH  18  20
ENDBRANCH  17  18
ENDBRANCH  15  17
ENDBRANCH  14  15
ENDBRANCH  13  14
ENDBRANCH   1  13
TORSDOF 6
ENDMDL
MODEL 9
REMARK VINA RESULT:      -6.9      3.972      6.708
REMARK  Name = 
REMARK  6 active torsions:
REMARK  status: ('A' for Active; 'I' for Inactive)
REMARK    1  A    between atoms: C_2  and  N_5
REMARK    2  A    between atoms: N_5  and  C_6
REMARK    3  A    between atoms: C_6  and  C_7
REMARK    4  A    between atoms: C_7  and  C_9
REMARK    5  A    between atoms: C_9  and  O_10
REMARK    6  A    between atoms: O_10  and  C_11
REMARK                            x       y       z     vdW  Elec       q    Type
REMARK                         _______ _______ _______ _____ _____    ______ ____
ROOT
ATOM      1  C   UNL     1       1.316   5.938  -8.362  0.00  0.00    +0.134 A 
ATOM      2  C   UNL     1       2.338   6.390  -9.191  0.00  0.00    +0.011 A 
ATOM      3  C   UNL     1       3.749   6.253  -8.683  0.00  0.00    +0.065 C 
ATOM      4  C   UNL     1       4.052   4.783  -9.371  0.00  0.00    +0.187 C 
ATOM      5  C   UNL     1       4.786   5.417 -10.822  0.00  0.00    +0.187 C 
ATOM      6  C   UNL     1       3.577   6.480 -11.172  0.00  0.00    +0.062 C 
ATOM      7  O   UNL     1       5.604   6.481 -10.106  0.00  0.00    -0.220 OA
ATOM      8  O   UNL     1       5.385   4.635  -8.663  0.00  0.00    -0.220 OA
ATOM      9  C   UNL     1       2.343   6.022 -10.542  0.00  0.00    -0.021 A 
ATOM     10  C   UNL     1       1.172   5.663 -11.162  0.00  0.00    -0.004 A 
ATOM     11  C   UNL     1       0.143   5.222 -10.334  0.00  0.00    +0.003 A 
ATOM     12  C   UNL     1       0.161   5.459  -8.964  0.00  0.00    +0.037 A 
ENDROOT
BRANCH   1  13
ATOM     13  O   UNL     1       1.339   6.490  -7.090  0.00  0.00    -0.473 OA
BRANCH  13  14
ATOM     14  C   UNL     1       1.275   5.625  -5.956  0.00  0.00    +0.239 C 
BRANCH  14  15
ATOM     15  C   UNL     1       1.520   6.649  -4.668  0.00  0.00    +0.213 C 
ATOM     16  O   UNL     1       1.338   5.507  -3.665  0.00  0.00    -0.218 OA
BRANCH  15  17
ATOM     17  C   UNL     1      -0.097   7.038  -4.593  0.00  0.00    +0.125 C 
BRANCH  17  18
ATOM     18  N   UNL     1      -0.762   5.767  -4.600  0.00  0.00    -0.218 NA
BRANCH  18  20
ATOM     19  C   UNL     1      -2.235   6.118  -4.811  0.00  0.00    +0.017 C 
ATOM     20  C   UNL     1      -2.151   5.786  -4.835  0.00  0.00    +0.060 C 
ATOM     21  C   UNL     1      -3.028   5.251  -3.755  0.00  0.00    +0.017 C 
ATOM     22  C   UNL     1      -2.619   5.583  -6.219  0.00  0.00    +0.017 C 
ENDBRANCH  18  20
ENDBRANCH  17  18
ENDBRANCH  15  17
ENDBRANCH  14  15
ENDBRANCH  13  14
ENDBRANCH   1  13
TORSDOF 6
ENDMDL
