MODEL 1
REMARK VINA RESULT:      -5.4      0.000      0.000
REMARK  Name = 
REMARK  6 active torsions:
REMARK  status: ('A' for Active; 'I' for Inactive)
REMARK    1  A    between atoms: C_2  and  C_4
REMARK    2  A    between atoms: C_2  and  C_6
REMARK    3  A    between atoms: C_6  and  C_8
REMARK    4  A    between atoms: N_10  and  C_11
REMARK    5  A    between atoms: C_11  and  C_12
REMARK    6  A    between atoms: C_12  and  C_13
REMARK                            x       y       z     vdW  Elec       q    Type
REMARK                         _______ _______ _______ _____ _____    ______ ____
ROOT
ATOM      1  C   UNL     1       6.028   5.461 -11.337  0.00  0.00    +0.231 C 
ATOM      2  O   UNL     1       5.897   5.727  -9.811  0.00  0.00    -0.213 OA
ENDROOT
BRANCH   1   4
ATOM      3  C   UNL     1       6.561   7.543 -12.033  0.00  0.00    +0.006 C 
ATOM      4  C   UNL     1       7.132   6.715 -11.574  0.00  0.00    +0.067 C 
ATOM      5  C   UNL     1       7.696   7.058 -10.268  0.00  0.00    +0.006 C 
BRANCH   4   6
ATOM      6  C   UNL     1       8.071   6.003 -12.530  0.00  0.00    +0.185 C 
ATOM      7  O   UNL     1       7.697   4.672 -12.677  0.00  0.00    -0.220 OA
ENDBRANCH   4   6
ENDBRANCH   1   4
BRANCH   1   8
ATOM      8  C   UNL     1       4.744   6.448 -11.687  0.00  0.00    +0.272 C 
ATOM      9  N   UNL     1       3.879   6.636 -10.567  0.00  0.00    -0.203 NA
ATOM     10  O   UNL     1       4.173   5.972 -12.719  0.00  0.00    -0.271 OA
BRANCH   9  11
ATOM     11  C   UNL     1       2.479   6.226 -10.553  0.00  0.00    +0.118 C 
BRANCH  11  12
ATOM     12  C   UNL     1       1.803   6.474  -9.243  0.00  0.00    +0.059 C 
BRANCH  12  13
ATOM     13  C   UNL     1       2.774   7.257  -8.376  0.00  0.00    +0.184 C 
ATOM     14  O   UNL     1       2.109   8.356  -7.886  0.00  0.00    -0.220 OA
ENDBRANCH  12  13
ENDBRANCH  11  12
ENDBRANCH   9  11
ENDBRANCH   1   8
TORSDOF 6
ENDMDL
MODEL 2
REMARK VINA RESULT:      -5.2      5.552      8.841
REMARK  Name = 
REMARK  6 active torsions:
REMARK  status: ('A' for Active; 'I' for Inactive)
REMARK    1  A    between atoms: C_2  and  C_4
REMARK    2  A    between atoms: C_2  and  C_6
REMARK    3  A    between atoms: C_6  and  C_8
REMARK    4  A    between atoms: N_10  and  C_11
REMARK    5  A    between atoms: C_11  and  C_12
REMARK    6  A    between atoms: C_12  and  C_13
REMARK                            x       y       z     vdW  Elec       q    Type
REMARK                         _______ _______ _______ _____ _____    ______ ____
ROOT
ATOM      1  C   UNL     1      -0.402   6.798  -5.251  0.00  0.00    +0.231 C 
ATOM      2  O   UNL     1       0.055   6.092  -3.945  0.00  0.00    -0.213 OA
ENDROOT
BRANCH   1   4
ATOM      3  C   UNL     1      -2.599   7.262  -5.005  0.00  0.00    +0.006 C 
ATOM      4  C   UNL     1      -2.013   6.328  -5.074  0.00  0.00    +0.067 C 
ATOM      5  C   UNL     1      -2.364   5.511  -6.236  0.00  0.00    +0.006 C 
BRANCH   4   6
ATOM      6  C   UNL     1      -1.879   5.580  -3.760  0.00  0.00    +0.185 C 
ATOM      7  O   UNL     1      -3.079   4.960  -3.430  0.00  0.00    -0.220 OA
ENDBRANCH   4   6
ENDBRANCH   1   4
BRANCH   1   8
ATOM      8  C   UNL     1      -0.055   5.465  -6.172  0.00  0.00    +0.272 C 
ATOM      9  N   UNL     1       0.900   4.605  -5.549  0.00  0.00    -0.203 NA
ATOM     10  O   UNL     1       0.285   5.881  -7.325  0.00  0.00    -0.271 OA
BRANCH   9  11
ATOM     11  C   UNL     1       2.206   4.302  -6.125  0.00  0.00    +0.118 C 
BRANCH  11  12
ATOM     12  C   UNL     1       3.313   5.119  -5.543  0.00  0.00    +0.059 C 
BRANCH  12  13
ATOM     13  C   UNL     1       3.699   6.161  -6.580  0.00  0.00    +0.184 C 
ATOM     14  O   UNL     1       3.184   7.369  -6.175  0.00  0.00    -0.220 OA
ENDBRANCH  12  13
ENDBRANCH  11  12
ENDBRANCH   9  11
ENDBRANCH   1   8
TORSDOF 6
ENDMDL
MODEL 3
REMARK VINA RESULT:      -4.9      5.526      9.582
REMARK  Name = 
REMARK  6 active torsions:
REMARK  status: ('A' for Active; 'I' for Inactive)
REMARK    1  A    between atoms: C_2  and  C_4
REMARK    2  A    between atoms: C_2  and  C_6
REMARK    3  A    between atoms: C_6  and  C_8
REMARK    4  A    between atoms: N_10  and  C_11
REMARK    5  A    between atoms: C_11  and  C_12
REMARK    6  A    between atoms: C_12  and  C_13
REMARK                            x       y       z     vdW  Elec       q    Type
REMARK                         _______ _______ _______ _____ _____    ______ ____
ROOT
ATOM      1  C   UNL     1      -1.278   5.525  -4.038  0.00  0.00    +0.231 C 
ATOM      2  O   UNL     1      -1.782   5.303  -5.492  0.00  0.00    -0.213 OA
ENDROOT
BRANCH   1   4
ATOM      3  C   UNL     1      -1.840   7.479  -3.054  0.00  0.00    +0.006 C 
ATOM      4  C   UNL     1      -2.361   6.783  -3.737  0.00  0.00    +0.067 C 
ATOM      5  C   UNL     1      -2.703   7.388  -5.025  0.00  0.00    +0.006 C 
BRANCH   4   6
ATOM      6  C   UNL     1      -3.461   5.973  -3.077  0.00  0.00    +0.185 C 
ATOM      7  O   UNL     1      -2.935   4.830  -2.486  0.00  0.00    -0.220 OA
ENDBRANCH   4   6
ENDBRANCH   1   4
BRANCH   1   8
ATOM      8  C   UNL     1      -0.101   6.580  -4.536  0.00  0.00    +0.272 C 
ATOM      9  N   UNL     1       0.274   6.375  -5.898  0.00  0.00    -0.203 NA
ATOM     10  O   UNL     1       0.858   6.492  -3.706  0.00  0.00    -0.271 OA
BRANCH   9  11
ATOM     11  C   UNL     1       1.620   5.994  -6.313  0.00  0.00    +0.118 C 
BRANCH  11  12
ATOM     12  C   UNL     1       1.853   6.152  -7.781  0.00  0.00    +0.059 C 
BRANCH  12  13
ATOM     13  C   UNL     1       2.840   7.293  -7.961  0.00  0.00    +0.184 C 
ATOM     14  O   UNL     1       2.129   8.469  -7.957  0.00  0.00    -0.220 OA
ENDBRANCH  12  13
ENDBRANCH  11  12
ENDBRANCH   9  11
ENDBRANCH   1   8
TORSDOF 6
ENDMDL
MODEL 4
REMARK VINA RESULT:      -4.8      6.352      7.945
REMARK  Name = 
REMARK  6 active torsions:
REMARK  status: ('A' for Active; 'I' for Inactive)
REMARK    1  A    between atoms: C_2  and  C_4
REMARK    2  A    between atoms: C_2  and  C_6
REMARK    3  A    between atoms: C_6  and  C_8
REMARK    4  A    between atoms: N_10  and  C_11
REMARK    5  A    between atoms: C_11  and  C_12
REMARK    6  A    between atoms: C_12  and  C_13
REMARK                            x       y       z     vdW  Elec       q    Type
REMARK                         _______ _______ _______ _____ _____    ______ ____
ROOT
ATOM      1  C   UNL     1       0.627   5.342  -5.175  0.00  0.00    +0.231 C 
ATOM      2  O   UNL     1       1.094   6.411  -4.147  0.00  0.00    -0.213 OA
ENDROOT
BRANCH   1   4
ATOM      3  C   UNL     1       1.040   6.313  -7.172  0.00  0.00    +0.006 C 
ATOM      4  C   UNL     1       1.678   5.879  -6.380  0.00  0.00    +0.067 C 
ATOM      5  C   UNL     1       2.584   6.854  -5.772  0.00  0.00    +0.006 C 
BRANCH   4   6
ATOM      6  C   UNL     1       2.297   4.542  -6.743  0.00  0.00    +0.185 C 
ATOM      7  O   UNL     1       1.602   3.503  -6.135  0.00  0.00    -0.220 OA
ENDBRANCH   4   6
ENDBRANCH   1   4
BRANCH   1   8
ATOM      8  C   UNL     1      -0.597   6.312  -5.729  0.00  0.00    +0.272 C 
ATOM      9  N   UNL     1      -0.895   7.380  -4.829  0.00  0.00    -0.203 NA
ATOM     10  O   UNL     1      -1.584   5.557  -5.997  0.00  0.00    -0.271 OA
BRANCH   9  11
ATOM     11  C   UNL     1      -2.192   7.547  -4.182  0.00  0.00    +0.118 C 
BRANCH  11  12
ATOM     12  C   UNL     1      -2.193   7.131  -2.746  0.00  0.00    +0.059 C 
BRANCH  12  13
ATOM     13  C   UNL     1      -3.144   5.952  -2.619  0.00  0.00    +0.184 C 
ATOM     14  O   UNL     1      -2.401   4.800  -2.706  0.00  0.00    -0.220 OA
ENDBRANCH  12  13
ENDBRANCH  11  12
ENDBRANCH   9  11
ENDBRANCH   1   8
TORSDOF 6
ENDMDL
MODEL 5
REMARK VINA RESULT:      -4.7      1.792      2.656
REMARK  Name = 
REMARK  6 active torsions:
REMARK  status: ('A' for Active; 'I' for Inactive)
REMARK    1  A    between atoms: C_2  and  C_4
REMARK    2  A    between atoms: C_2  and  C_6
REMARK    3  A    between atoms: C_6  and  C_8
REMARK    4  A    between atoms: N_10  and  C_11
REMARK    5  A    between atoms: C_11  and  C_12
REMARK    6  A    between atoms: C_12  and  C_13
REMARK                            x       y       z     vdW  Elec       q    Type
REMARK                         _______ _______ _______ _____ _____    ______ ____
ROOT
ATOM      1  C   UNL     1       5.179   6.874 -10.471  0.00  0.00    +0.231 C 
ATOM      2  O   UNL     1       4.567   6.363 -11.805  0.00  0.00    -0.213 OA
ENDROOT
BRANCH   1   4
ATOM      3  C   UNL     1       7.272   7.281 -11.215  0.00  0.00    +0.006 C 
ATOM      4  C   UNL     1       6.741   6.376 -10.867  0.00  0.00    +0.067 C 
ATOM      5  C   UNL     1       7.333   5.786  -9.666  0.00  0.00    +0.006 C 
BRANCH   4   6
ATOM      6  C   UNL     1       6.386   5.400 -11.973  0.00  0.00    +0.185 C 
ATOM      7  O   UNL     1       7.517   4.711 -12.395  0.00  0.00    -0.220 OA
ENDBRANCH   4   6
ENDBRANCH   1   4
BRANCH   1   8
ATOM      8  C   UNL     1       4.856   5.444  -9.698  0.00  0.00    +0.272 C 
ATOM      9  N   UNL     1       3.610   4.875 -10.100  0.00  0.00    -0.203 NA
ATOM     10  O   UNL     1       4.958   5.660  -8.449  0.00  0.00    -0.271 OA
BRANCH   9  11
ATOM     11  C   UNL     1       2.496   4.649  -9.186  0.00  0.00    +0.118 C 
BRANCH  11  12
ATOM     12  C   UNL     1       1.160   4.895  -9.810  0.00  0.00    +0.059 C 
BRANCH  12  13
ATOM     13  C   UNL     1       1.406   5.371 -11.231  0.00  0.00    +0.184 C 
ATOM     14  O   UNL     1       0.484   4.760 -12.046  0.00  0.00    -0.220 OA
ENDBRANCH  12  13
ENDBRANCH  11  12
ENDBRANCH   9  11
ENDBRANCH   1   8
TORSDOF 6
ENDMDL
MODEL 6
REMARK VINA RESULT:      -4.7      5.549      9.033
REMARK  Name = 
REMARK  6 active torsions:
REMARK  status: ('A' for Active; 'I' for Inactive)
REMARK    1  A    between atoms: C_2  and  C_4
REMARK    2  A    between atoms: C_2  and  C_6
REMARK    3  A    between atoms: C_6  and  C_8
REMARK    4  A    between atoms: N_10  and  C_11
REMARK    5  A    between atoms: C_11  and  C_12
REMARK    6  A    between atoms: C_12  and  C_13
REMARK                            x       y       z     vdW  Elec       q    Type
REMARK                         _______ _______ _______ _____ _____    ______ ____
ROOT
ATOM      1  C   UNL     1      -0.470   5.513  -4.860  0.00  0.00    +0.231 C 
ATOM      2  O   UNL     1      -0.605   5.329  -6.398  0.00  0.00    -0.213 OA
ENDROOT
BRANCH   1   4
ATOM      3  C   UNL     1      -1.535   7.502  -4.745  0.00  0.00    +0.006 C 
ATOM      4  C   UNL     1      -1.869   6.448  -4.737  0.00  0.00    +0.067 C 
ATOM      5  C   UNL     1      -2.728   6.108  -5.872  0.00  0.00    +0.006 C 
BRANCH   4   6
ATOM      6  C   UNL     1      -2.343   5.957  -3.382  0.00  0.00    +0.185 C 
ATOM      7  O   UNL     1      -3.244   4.909  -3.534  0.00  0.00    -0.220 OA
ENDBRANCH   4   6
ENDBRANCH   1   4
BRANCH   1   8
ATOM      8  C   UNL     1       0.482   6.857  -5.037  0.00  0.00    +0.272 C 
ATOM      9  N   UNL     1       1.102   6.921  -6.322  0.00  0.00    -0.203 NA
ATOM     10  O   UNL     1       1.295   6.875  -4.059  0.00  0.00    -0.271 OA
BRANCH   9  11
ATOM     11  C   UNL     1       2.547   6.904  -6.520  0.00  0.00    +0.118 C 
BRANCH  11  12
ATOM     12  C   UNL     1       3.044   5.640  -7.144  0.00  0.00    +0.059 C 
BRANCH  12  13
ATOM     13  C   UNL     1       3.041   4.572  -6.063  0.00  0.00    +0.184 C 
ATOM     14  O   UNL     1       2.168   3.583  -6.450  0.00  0.00    -0.220 OA
ENDBRANCH  12  13
ENDBRANCH  11  12
ENDBRANCH   9  11
ENDBRANCH   1   8
TORSDOF 6
ENDMDL
MODEL 7
REMARK VINA RESULT:      -4.7      1.865      5.555
REMARK  Name = 
REMARK  6 active torsions:
REMARK  status: ('A' for Active; 'I' for Inactive)
REMARK    1  A    between atoms: C_2  and  C_4
REMARK    2  A    between atoms: C_2  and  C_6
REMARK    3  A    between atoms: C_6  and  C_8
REMARK    4  A    between atoms: N_10  and  C_11
REMARK    5  A    between atoms: C_11  and  C_12
REMARK    6  A    between atoms: C_12  and  C_13
REMARK                            x       y       z     vdW  Elec       q    Type
REMARK                         _______ _______ _______ _____ _____    ______ ____
ROOT
ATOM      1  C   UNL     1       3.783   6.458  -8.736  0.00  0.00    +0.231 C 
ATOM      2  O   UNL     1       4.642   5.444  -7.929  0.00  0.00    -0.213 OA
ENDROOT
BRANCH   1   4
ATOM      3  C   UNL     1       2.528   5.399 -10.287  0.00  0.00    +0.006 C 
ATOM      4  C   UNL     1       2.644   5.300  -9.192  0.00  0.00    +0.067 C 
ATOM      5  C   UNL     1       3.156   3.993  -8.782  0.00  0.00    +0.006 C 
BRANCH   4   6
ATOM      6  C   UNL     1       1.465   5.825  -8.393  0.00  0.00    +0.185 C 
ATOM      7  O   UNL     1       1.192   4.984  -7.321  0.00  0.00    -0.220 OA
ENDBRANCH   4   6
ENDBRANCH   1   4
BRANCH   1   8
ATOM      8  C   UNL     1       4.669   6.213 -10.115  0.00  0.00    +0.272 C 
ATOM      9  N   UNL     1       5.957   5.660  -9.844  0.00  0.00    -0.203 NA
ATOM     10  O   UNL     1       4.691   7.315 -10.749  0.00  0.00    -0.271 OA
BRANCH   9  11
ATOM     11  C   UNL     1       7.208   6.338 -10.168  0.00  0.00    +0.118 C 
BRANCH  11  12
ATOM     12  C   UNL     1       8.144   5.497 -10.975  0.00  0.00    +0.059 C 
BRANCH  12  13
ATOM     13  C   UNL     1       7.928   5.856 -12.436  0.00  0.00    +0.184 C 
ATOM     14  O   UNL     1       7.708   4.689 -13.128  0.00  0.00    -0.220 OA
ENDBRANCH  12  13
ENDBRANCH  11  12
ENDBRANCH   9  11
ENDBRANCH   1   8
TORSDOF 6
ENDMDL
MODEL 8
REMARK VINA RESULT:      -4.6      5.991      7.452
REMARK  Name = 
REMARK  6 active torsions:
REMARK  status: ('A' for Active; 'I' for Inactive)
REMARK    1  A    between atoms: C_2  and  C_4
REMARK    2  A    between atoms: C_2  and  C_6
REMARK    3  A    between atoms: C_6  and  C_8
REMARK    4  A    between atoms: N_10  and  C_11
REMARK    5  A    between atoms: C_11  and  C_12
REMARK    6  A    between atoms: C_12  and  C_13
REMARK                            x       y       z     vdW  Elec       q    Type
REMARK                         _______ _______ _______ _____ _____    ______ ____
ROOT
ATOM      1  C   UNL     1       1.948   5.507  -4.957  0.00  0.00    +0.231 C 
ATOM      2  O   UNL     1       1.747   6.440  -3.730  0.00  0.00    -0.213 OA
ENDROOT
BRANCH   1   4
ATOM      3  C   UNL     1       4.034   5.664  -5.809  0.00  0.00    +0.006 C 
ATOM      4  C   UNL     1       3.245   6.399  -5.563  0.00  0.00    +0.067 C 
ATOM      5  C   UNL     1       2.763   7.139  -6.730  0.00  0.00    +0.006 C 
BRANCH   4   6
ATOM      6  C   UNL     1       3.535   7.232  -4.329  0.00  0.00    +0.185 C 
ATOM      7  O   UNL     1       4.784   7.835  -4.432  0.00  0.00    -0.220 OA
ENDBRANCH   4   6
ENDBRANCH   1   4
BRANCH   1   8
ATOM      8  C   UNL     1       0.859   6.360  -5.869  0.00  0.00    +0.272 C 
ATOM      9  N   UNL     1      -0.087   7.068  -5.067  0.00  0.00    -0.203 NA
ATOM     10  O   UNL     1       0.343   5.547  -6.698  0.00  0.00    -0.271 OA
BRANCH   9  11
ATOM     11  C   UNL     1      -1.523   6.819  -5.109  0.00  0.00    +0.118 C 
BRANCH  11  12
ATOM     12  C   UNL     1      -2.143   6.701  -3.753  0.00  0.00    +0.059 C 
BRANCH  12  13
ATOM     13  C   UNL     1      -1.622   5.418  -3.129  0.00  0.00    +0.184 C 
ATOM     14  O   UNL     1      -2.677   4.794  -2.506  0.00  0.00    -0.220 OA
ENDBRANCH  12  13
ENDBRANCH  11  12
ENDBRANCH   9  11
ENDBRANCH   1   8
TORSDOF 6
ENDMDL
MODEL 9
REMARK VINA RESULT:      -4.6      5.509      7.432
REMARK  Name = 
REMARK  6 active torsions:
REMARK  status: ('A' for Active; 'I' for Inactive)
REMARK    1  A    between atoms: C_2  and  C_4
REMARK    2  A    between atoms: C_2  and  C_6
REMARK    3  A    between atoms: C_6  and  C_8
REMARK    4  A    between atoms: N_10  and  C_11
REMARK    5  A    between atoms: C_11  and  C_12
REMARK    6  A    between atoms: C_12  and  C_13
REMARK                            x       y       z     vdW  Elec       q    Type
REMARK                         _______ _______ _______ _____ _____    ______ ____
ROOT
ATOM      1  C   UNL     1       3.346   5.477  -3.991  0.00  0.00    +0.231 C 
ATOM      2  O   UNL     1       3.171   6.596  -2.926  0.00  0.00    -0.213 OA
ENDROOT
BRANCH   1   4
ATOM      3  C   UNL     1       3.241   7.150  -5.505  0.00  0.00    +0.006 C 
ATOM      4  C   UNL     1       4.056   6.509  -5.121  0.00  0.00    +0.067 C 
ATOM      5  C   UNL     1       5.105   7.261  -4.432  0.00  0.00    +0.006 C 
BRANCH   4   6
ATOM      6  C   UNL     1       4.537   5.459  -6.105  0.00  0.00    +0.185 C 
ATOM      7  O   UNL     1       4.086   5.752  -7.387  0.00  0.00    -0.220 OA
ENDBRANCH   4   6
ENDBRANCH   1   4
BRANCH   1   8
ATOM      8  C   UNL     1       1.833   5.741  -4.613  0.00  0.00    +0.272 C 
ATOM      9  N   UNL     1       0.917   6.227  -3.632  0.00  0.00    -0.203 NA
ATOM     10  O   UNL     1       1.469   4.667  -5.188  0.00  0.00    -0.271 OA
BRANCH   9  11
ATOM     11  C   UNL     1      -0.290   5.512  -3.234  0.00  0.00    +0.118 C 
BRANCH  11  12
ATOM     12  C   UNL     1      -1.550   6.241  -3.576  0.00  0.00    +0.059 C 
BRANCH  12  13
ATOM     13  C   UNL     1      -2.698   5.259  -3.413  0.00  0.00    +0.184 C 
ATOM     14  O   UNL     1      -2.716   4.847  -2.102  0.00  0.00    -0.220 OA
ENDBRANCH  12  13
ENDBRANCH  11  12
ENDBRANCH   9  11
ENDBRANCH   1   8
TORSDOF 6
ENDMDL
