MODEL 1
REMARK VINA RESULT:      -4.4      0.000      0.000
REMARK  Name = 
REMARK  3 active torsions:
REMARK  status: ('A' for Active; 'I' for Inactive)
REMARK    1  A    between atoms: CG_2  and  CB_4
REMARK    2  A    between atoms: CB_4  and  CA_5
REMARK    3  A    between atoms: CA_5  and  C_7
REMARK                            x       y       z     vdW  Elec       q    Type
REMARK                         _______ _______ _______ _____ _____    ______ ____
ROOT
ATOM      1  CA  LEU A   1      -0.840   6.550  -3.130  0.00  0.00    +0.194 C 
ATOM      2  N   LEU A   1       0.692   6.187  -3.033  0.00  0.00    -0.121 NA
ENDROOT
BRANCH   1   3
ATOM      3  C   LEU A   1      -1.254   5.413  -2.067  0.00  0.00    +0.382 C 
ATOM      4  OXT LEU A   1      -2.509   4.895  -2.109  0.00  0.00    -0.244 OA
ATOM      5  O   LEU A   1      -0.276   4.743  -1.655  0.00  0.00    -0.244 OA
ENDBRANCH   1   3
BRANCH   1   6
ATOM      6  CB  LEU A   1      -1.049   5.557  -4.427  0.00  0.00    +0.031 C 
BRANCH   6   8
ATOM      7  CD1 LEU A   1      -2.462   5.834  -6.387  0.00  0.00    +0.000 C 
ATOM      8  CG  LEU A   1      -2.003   6.346  -5.234  0.00  0.00    +0.002 C 
ATOM      9  CD2 LEU A   1      -2.235   7.748  -4.880  0.00  0.00    +0.000 C 
ENDBRANCH   6   8
ENDBRANCH   1   6
TORSDOF 3
ENDMDL
MODEL 2
REMARK VINA RESULT:      -4.3     11.368     12.007
REMARK  Name = 
REMARK  3 active torsions:
REMARK  status: ('A' for Active; 'I' for Inactive)
REMARK    1  A    between atoms: CG_2  and  CB_4
REMARK    2  A    between atoms: CB_4  and  CA_5
REMARK    3  A    between atoms: CA_5  and  C_7
REMARK                            x       y       z     vdW  Elec       q    Type
REMARK                         _______ _______ _______ _____ _____    ______ ____
ROOT
ATOM      1  CA  LEU A   1       7.097   6.808 -12.213  0.00  0.00    +0.194 C 
ATOM      2  N   LEU A   1       6.479   6.941 -13.658  0.00  0.00    -0.121 NA
ENDROOT
BRANCH   1   3
ATOM      3  C   LEU A   1       8.230   5.776 -12.709  0.00  0.00    +0.382 C 
ATOM      4  OXT LEU A   1       9.479   5.863 -12.182  0.00  0.00    -0.244 OA
ATOM      5  O   LEU A   1       7.760   4.687 -13.117  0.00  0.00    -0.244 OA
ENDBRANCH   1   3
BRANCH   1   6
ATOM      6  CB  LEU A   1       6.039   5.612 -11.810  0.00  0.00    +0.031 C 
BRANCH   6   8
ATOM      7  CD1 LEU A   1       4.621   6.796 -10.229  0.00  0.00    +0.000 C 
ATOM      8  CG  LEU A   1       5.686   6.003 -10.430  0.00  0.00    +0.002 C 
ATOM      9  CD2 LEU A   1       6.633   5.715  -9.351  0.00  0.00    +0.000 C 
ENDBRANCH   6   8
ENDBRANCH   1   6
TORSDOF 3
ENDMDL
MODEL 3
REMARK VINA RESULT:      -4.3      1.518      1.881
REMARK  Name = 
REMARK  3 active torsions:
REMARK  status: ('A' for Active; 'I' for Inactive)
REMARK    1  A    between atoms: CG_2  and  CB_4
REMARK    2  A    between atoms: CB_4  and  CA_5
REMARK    3  A    between atoms: CA_5  and  C_7
REMARK                            x       y       z     vdW  Elec       q    Type
REMARK                         _______ _______ _______ _____ _____    ______ ____
ROOT
ATOM      1  CA  LEU A   1      -2.325   6.197  -4.063  0.00  0.00    +0.194 C 
ATOM      2  N   LEU A   1      -1.967   7.639  -3.533  0.00  0.00    -0.121 NA
ENDROOT
BRANCH   1   3
ATOM      3  C   LEU A   1      -1.802   5.488  -2.715  0.00  0.00    +0.382 C 
ATOM      4  OXT LEU A   1      -2.706   4.926  -1.871  0.00  0.00    -0.244 OA
ATOM      5  O   LEU A   1      -0.628   5.056  -2.810  0.00  0.00    -0.244 OA
ENDBRANCH   1   3
BRANCH   1   6
ATOM      6  CB  LEU A   1      -0.871   6.056  -4.824  0.00  0.00    +0.031 C 
BRANCH   6   8
ATOM      7  CD1 LEU A   1      -2.613   5.605  -6.459  0.00  0.00    +0.000 C 
ATOM      8  CG  LEU A   1      -1.304   5.768  -6.206  0.00  0.00    +0.002 C 
ATOM      9  CD2 LEU A   1      -0.290   5.436  -7.209  0.00  0.00    +0.000 C 
ENDBRANCH   6   8
ENDBRANCH   1   6
TORSDOF 3
ENDMDL
MODEL 4
REMARK VINA RESULT:      -4.2      2.247      2.828
REMARK  Name = 
REMARK  3 active torsions:
REMARK  status: ('A' for Active; 'I' for Inactive)
REMARK    1  A    between atoms: CG_2  and  CB_4
REMARK    2  A    between atoms: CB_4  and  CA_5
REMARK    3  A    between atoms: CA_5  and  C_7
REMARK                            x       y       z     vdW  Elec       q    Type
REMARK                         _______ _______ _______ _____ _____    ______ ____
ROOT
ATOM      1  CA  LEU A   1      -1.652   5.661  -3.280  0.00  0.00    +0.194 C 
ATOM      2  N   LEU A   1      -2.867   4.763  -2.826  0.00  0.00    -0.121 NA
ENDROOT
BRANCH   1   3
ATOM      3  C   LEU A   1      -2.367   7.015  -2.781  0.00  0.00    +0.382 C 
ATOM      4  OXT LEU A   1      -2.098   8.180  -3.425  0.00  0.00    -0.244 OA
ATOM      5  O   LEU A   1      -3.470   6.811  -2.217  0.00  0.00    -0.244 OA
ENDBRANCH   1   3
BRANCH   1   6
ATOM      6  CB  LEU A   1      -2.247   5.789  -4.810  0.00  0.00    +0.031 C 
BRANCH   6   8
ATOM      7  CD1 LEU A   1       0.167   5.586  -5.025  0.00  0.00    +0.000 C 
ATOM      8  CG  LEU A   1      -1.040   5.489  -5.607  0.00  0.00    +0.002 C 
ATOM      9  CD2 LEU A   1      -1.173   5.327  -7.056  0.00  0.00    +0.000 C 
ENDBRANCH   6   8
ENDBRANCH   1   6
TORSDOF 3
ENDMDL
MODEL 5
REMARK VINA RESULT:      -4.1      1.898      2.252
REMARK  Name = 
REMARK  3 active torsions:
REMARK  status: ('A' for Active; 'I' for Inactive)
REMARK    1  A    between atoms: CG_2  and  CB_4
REMARK    2  A    between atoms: CB_4  and  CA_5
REMARK    3  A    between atoms: CA_5  and  C_7
REMARK                            x       y       z     vdW  Elec       q    Type
REMARK                         _______ _______ _______ _____ _____    ______ ____
ROOT
ATOM      1  CA  LEU A   1      -1.483   5.508  -3.150  0.00  0.00    +0.194 C 
ATOM      2  N   LEU A   1      -2.769   4.830  -2.540  0.00  0.00    -0.121 NA
ENDROOT
BRANCH   1   3
ATOM      3  C   LEU A   1      -1.378   6.571  -1.945  0.00  0.00    +0.382 C 
ATOM      4  OXT LEU A   1      -0.252   6.600  -1.185  0.00  0.00    -0.244 OA
ATOM      5  O   LEU A   1      -2.076   7.597  -2.130  0.00  0.00    -0.244 OA
ENDBRANCH   1   3
BRANCH   1   6
ATOM      6  CB  LEU A   1      -2.391   6.510  -4.090  0.00  0.00    +0.031 C 
BRANCH   6   8
ATOM      7  CD1 LEU A   1      -2.400   5.663  -6.370  0.00  0.00    +0.000 C 
ATOM      8  CG  LEU A   1      -1.742   6.326  -5.405  0.00  0.00    +0.002 C 
ATOM      9  CD2 LEU A   1      -0.322   6.656  -5.544  0.00  0.00    +0.000 C 
ENDBRANCH   6   8
ENDBRANCH   1   6
TORSDOF 3
ENDMDL
MODEL 6
REMARK VINA RESULT:      -4.1     11.739     12.401
REMARK  Name = 
REMARK  3 active torsions:
REMARK  status: ('A' for Active; 'I' for Inactive)
REMARK    1  A    between atoms: CG_2  and  CB_4
REMARK    2  A    between atoms: CB_4  and  CA_5
REMARK    3  A    between atoms: CA_5  and  C_7
REMARK                            x       y       z     vdW  Elec       q    Type
REMARK                         _______ _______ _______ _____ _____    ______ ____
ROOT
ATOM      1  CA  LEU A   1       6.306   5.534 -12.844  0.00  0.00    +0.194 C 
ATOM      2  N   LEU A   1       7.697   4.850 -13.133  0.00  0.00    -0.121 NA
ENDROOT
BRANCH   1   3
ATOM      3  C   LEU A   1       6.382   6.429 -14.181  0.00  0.00    +0.382 C 
ATOM      4  OXT LEU A   1       6.362   7.783 -14.071  0.00  0.00    -0.244 OA
ATOM      5  O   LEU A   1       6.967   5.852 -15.128  0.00  0.00    -0.244 OA
ENDBRANCH   1   3
BRANCH   1   6
ATOM      6  CB  LEU A   1       7.008   6.692 -11.906  0.00  0.00    +0.031 C 
BRANCH   6   8
ATOM      7  CD1 LEU A   1       5.162   6.629 -10.325  0.00  0.00    +0.000 C 
ATOM      8  CG  LEU A   1       6.451   6.355 -10.580  0.00  0.00    +0.002 C 
ATOM      9  CD2 LEU A   1       7.368   5.954  -9.511  0.00  0.00    +0.000 C 
ENDBRANCH   6   8
ENDBRANCH   1   6
TORSDOF 3
ENDMDL
MODEL 7
REMARK VINA RESULT:      -4.1     10.914     11.492
REMARK  Name = 
REMARK  3 active torsions:
REMARK  status: ('A' for Active; 'I' for Inactive)
REMARK    1  A    between atoms: CG_2  and  CB_4
REMARK    2  A    between atoms: CB_4  and  CA_5
REMARK    3  A    between atoms: CA_5  and  C_7
REMARK                            x       y       z     vdW  Elec       q    Type
REMARK                         _______ _______ _______ _____ _____    ______ ____
ROOT
ATOM      1  CA  LEU A   1       5.701   5.331 -11.989  0.00  0.00    +0.194 C 
ATOM      2  N   LEU A   1       5.372   4.856 -13.458  0.00  0.00    -0.121 NA
ENDROOT
BRANCH   1   3
ATOM      3  C   LEU A   1       4.327   6.163 -11.870  0.00  0.00    +0.382 C 
ATOM      4  OXT LEU A   1       3.188   5.636 -12.389  0.00  0.00    -0.244 OA
ATOM      5  O   LEU A   1       4.306   6.941 -10.885  0.00  0.00    -0.244 OA
ENDBRANCH   1   3
BRANCH   1   6
ATOM      6  CB  LEU A   1       6.556   6.626 -12.541  0.00  0.00    +0.031 C 
BRANCH   6   8
ATOM      7  CD1 LEU A   1       8.840   5.837 -12.263  0.00  0.00    +0.000 C 
ATOM      8  CG  LEU A   1       7.795   6.502 -11.745  0.00  0.00    +0.002 C 
ATOM      9  CD2 LEU A   1       7.770   6.897 -10.335  0.00  0.00    +0.000 C 
ENDBRANCH   6   8
ENDBRANCH   1   6
TORSDOF 3
ENDMDL
MODEL 8
REMARK VINA RESULT:      -4.0      2.578      3.174
REMARK  Name = 
REMARK  3 active torsions:
REMARK  status: ('A' for Active; 'I' for Inactive)
REMARK    1  A    between atoms: CG_2  and  CB_4
REMARK    2  A    between atoms: CB_4  and  CA_5
REMARK    3  A    between atoms: CA_5  and  C_7
REMARK                            x       y       z     vdW  Elec       q    Type
REMARK                         _______ _______ _______ _____ _____    ______ ____
ROOT
ATOM      1  CA  LEU A   1       0.050   5.394  -4.425  0.00  0.00    +0.194 C 
ATOM      2  N   LEU A   1       0.948   6.268  -3.467  0.00  0.00    -0.121 NA
ENDROOT
BRANCH   1   3
ATOM      3  C   LEU A   1       1.322   4.863  -5.258  0.00  0.00    +0.382 C 
ATOM      4  OXT LEU A   1       2.570   5.082  -4.769  0.00  0.00    -0.244 OA
ATOM      5  O   LEU A   1       1.060   3.870  -5.979  0.00  0.00    -0.244 OA
ENDBRANCH   1   3
BRANCH   1   6
ATOM      6  CB  LEU A   1      -0.209   6.668  -5.435  0.00  0.00    +0.031 C 
BRANCH   6   8
ATOM      7  CD1 LEU A   1      -2.446   7.449  -4.888  0.00  0.00    +0.000 C 
ATOM      8  CG  LEU A   1      -1.676   6.606  -5.596  0.00  0.00    +0.002 C 
ATOM      9  CD2 LEU A   1      -2.258   5.481  -6.331  0.00  0.00    +0.000 C 
ENDBRANCH   6   8
ENDBRANCH   1   6
TORSDOF 3
ENDMDL
MODEL 9
REMARK VINA RESULT:      -4.0      5.877      6.645
REMARK  Name = 
REMARK  3 active torsions:
REMARK  status: ('A' for Active; 'I' for Inactive)
REMARK    1  A    between atoms: CG_2  and  CB_4
REMARK    2  A    between atoms: CB_4  and  CA_5
REMARK    3  A    between atoms: CA_5  and  C_7
REMARK                            x       y       z     vdW  Elec       q    Type
REMARK                         _______ _______ _______ _____ _____    ______ ____
ROOT
ATOM      1  CA  LEU A   1       2.705   6.802  -5.987  0.00  0.00    +0.194 C 
ATOM      2  N   LEU A   1       1.947   5.440  -6.228  0.00  0.00    -0.121 NA
ENDROOT
BRANCH   1   3
ATOM      3  C   LEU A   1       2.629   7.208  -7.543  0.00  0.00    +0.382 C 
ATOM      4  OXT LEU A   1       2.137   8.428  -7.884  0.00  0.00    -0.244 OA
ATOM      5  O   LEU A   1       3.485   6.621  -8.249  0.00  0.00    -0.244 OA
ENDBRANCH   1   3
BRANCH   1   6
ATOM      6  CB  LEU A   1       4.175   6.074  -6.143  0.00  0.00    +0.031 C 
BRANCH   6   8
ATOM      7  CD1 LEU A   1       4.837   5.230  -3.961  0.00  0.00    +0.000 C 
ATOM      8  CG  LEU A   1       4.735   6.280  -4.792  0.00  0.00    +0.002 C 
ATOM      9  CD2 LEU A   1       4.941   7.649  -4.314  0.00  0.00    +0.000 C 
ENDBRANCH   6   8
ENDBRANCH   1   6
TORSDOF 3
ENDMDL
