MODEL 1
REMARK VINA RESULT:      -8.5      0.000      0.000
REMARK  Name = 
REMARK  10 active torsions:
REMARK  status: ('A' for Active; 'I' for Inactive)
REMARK    1  A    between atoms: S_2  and  O_5
REMARK    2  A    between atoms: O_5  and  C_6
REMARK    3  A    between atoms: C_11  and  O_12
REMARK    4  A    between atoms: O_12  and  C_13
REMARK    5  A    between atoms: C_18  and  O_19
REMARK    6  A    between atoms: O_19  and  S_20
REMARK    7  A    between atoms: C_24  and  O_25
REMARK    8  A    between atoms: O_25  and  S_26
REMARK    9  A    between atoms: C_30  and  O_31
REMARK   10  A    between atoms: O_31  and  S_32
REMARK                            x       y       z     vdW  Elec       q    Type
REMARK                         _______ _______ _______ _____ _____    ______ ____
ROOT
ATOM      1  O   UNL     1       2.683   6.196  -7.226  0.00  0.00    -0.326 OA
ENDROOT
BRANCH   1   2
ATOM      2  C   UNL     1       2.948   7.248  -8.322  0.00  0.00    +0.269 C 
ATOM      3  C   UNL     1       3.324   6.026  -9.509  0.00  0.00    +0.231 C 
ATOM      4  C   UNL     1       2.032   6.383 -10.570  0.00  0.00    +0.210 C 
ATOM      5  C   UNL     1       0.993   5.255  -9.767  0.00  0.00    +0.213 C 
ATOM      6  O   UNL     1      -0.244   5.870 -10.401  0.00  0.00    -0.218 OA
ATOM      7  C   UNL     1       0.840   6.218  -8.440  0.00  0.00    +0.180 C 
ATOM      8  O   UNL     1       1.458   7.368  -8.681  0.00  0.00    -0.326 OA
BRANCH   3   9
ATOM      9  O   UNL     1       4.197   6.985 -10.262  0.00  0.00    -0.236 OA
BRANCH   9  10
ATOM     10  S   UNL     1       5.703   6.384 -10.482  0.00  0.00    +0.000 S 
ATOM     11  O   UNL     1       5.767   5.335 -11.805  0.00  0.00    -0.268 OA
ATOM     12  O   UNL     1       6.296   5.660  -9.335  0.00  0.00    -0.345 OA
ATOM     13  O   UNL     1       6.580   7.561 -10.856  0.00  0.00    -0.345 OA
ENDBRANCH   9  10
ENDBRANCH   3   9
BRANCH   4  14
ATOM     14  O   UNL     1       2.520   5.312 -11.498  0.00  0.00    -0.238 OA
BRANCH  14  15
ATOM     15  S   UNL     1       2.122   5.680 -13.053  0.00  0.00    -0.000 S 
ATOM     16  O   UNL     1       0.965   4.509 -13.462  0.00  0.00    -0.268 OA
ATOM     17  O   UNL     1       3.233   5.461 -14.043  0.00  0.00    -0.345 OA
ATOM     18  O   UNL     1       1.463   7.004 -13.234  0.00  0.00    -0.345 OA
ENDBRANCH  14  15
ENDBRANCH   4  14
ENDBRANCH   1   2
BRANCH   1  21
ATOM     19  C   UNL     1       3.315   6.416  -3.571  0.00  0.00    +0.234 C 
ATOM     20  C   UNL     1       2.585   5.779  -4.978  0.00  0.00    +0.207 C 
ATOM     21  C   UNL     1       3.349   6.896  -6.054  0.00  0.00    +0.179 C 
ATOM     22  C   UNL     1       4.696   5.956  -6.225  0.00  0.00    +0.177 C 
ATOM     23  O   UNL     1       4.603   5.121  -5.196  0.00  0.00    -0.324 OA
ATOM     24  C   UNL     1       4.935   5.857  -3.891  0.00  0.00    +0.301 C 
ATOM     25  O   UNL     1       5.313   7.202  -4.555  0.00  0.00    -0.187 OA
BRANCH  19  26
ATOM     26  O   UNL     1       3.032   5.142  -2.832  0.00  0.00    -0.236 OA
BRANCH  26  28
ATOM     27  O   UNL     1       2.871   5.124  -1.223  0.00  0.00    -0.345 OA
ATOM     28  S   UNL     1       2.811   5.359  -1.272  0.00  0.00    +0.000 S 
ATOM     29  O   UNL     1       4.031   5.598  -0.252  0.00  0.00    -0.268 OA
ATOM     30  O   UNL     1       1.620   4.641  -0.763  0.00  0.00    -0.345 OA
ENDBRANCH  26  28
ENDBRANCH  19  26
BRANCH  20  31
ATOM     31  O   UNL     1       1.422   6.717  -4.820  0.00  0.00    -0.238 OA
BRANCH  31  32
ATOM     32  S   UNL     1       0.023   5.840  -4.753  0.00  0.00    -0.000 S 
ATOM     33  O   UNL     1      -0.432   5.394  -3.214  0.00  0.00    -0.268 OA
ATOM     34  O   UNL     1      -1.060   6.599  -5.484  0.00  0.00    -0.345 OA
ATOM     35  O   UNL     1       0.231   4.604  -5.605  0.00  0.00    -0.345 OA
ENDBRANCH  31  32
ENDBRANCH  20  31
ENDBRANCH   1  21
TORSDOF 10
ENDMDL
MODEL 2
REMARK VINA RESULT:      -8.4      1.335      8.746
REMARK  Name = 
REMARK  10 active torsions:
REMARK  status: ('A' for Active; 'I' for Inactive)
REMARK    1  A    between atoms: S_2  and  O_5
REMARK    2  A    between atoms: O_5  and  C_6
REMARK    3  A    between atoms: C_11  and  O_12
REMARK    4  A    between atoms: O_12  and  C_13
REMARK    5  A    between atoms: C_18  and  O_19
REMARK    6  A    between atoms: O_19  and  S_20
REMARK    7  A    between atoms: C_24  and  O_25
REMARK    8  A    between atoms: O_25  and  S_26
REMARK    9  A    between atoms: C_30  and  O_31
REMARK   10  A    between atoms: O_31  and  S_32
REMARK                            x       y       z     vdW  Elec       q    Type
REMARK                         _______ _______ _______ _____ _____    ______ ____
ROOT
ATOM      1  O   UNL     1       1.979   6.149  -8.084  0.00  0.00    -0.326 OA
ENDROOT
BRANCH   1   2
ATOM      2  C   UNL     1       1.629   7.184  -6.996  0.00  0.00    +0.269 C 
ATOM      3  C   UNL     1       1.266   5.942  -5.826  0.00  0.00    +0.231 C 
ATOM      4  C   UNL     1       2.502   6.352  -4.718  0.00  0.00    +0.210 C 
ATOM      5  C   UNL     1       3.618   5.276  -5.486  0.00  0.00    +0.213 C 
ATOM      6  O   UNL     1       4.803   5.943  -4.807  0.00  0.00    -0.218 OA
ATOM      7  C   UNL     1       3.776   6.249  -6.805  0.00  0.00    +0.180 C 
ATOM      8  O   UNL     1       3.098   7.369  -6.584  0.00  0.00    -0.326 OA
BRANCH   3   9
ATOM      9  O   UNL     1       0.325   6.858  -5.102  0.00  0.00    -0.236 OA
BRANCH   9  10
ATOM     10  S   UNL     1      -1.146   6.171  -4.897  0.00  0.00    +0.000 S 
ATOM     11  O   UNL     1      -2.387   7.312  -5.011  0.00  0.00    -0.268 OA
ATOM     12  O   UNL     1      -1.357   5.436  -3.629  0.00  0.00    -0.345 OA
ATOM     13  O   UNL     1      -1.347   5.237  -6.072  0.00  0.00    -0.345 OA
ENDBRANCH   9  10
ENDBRANCH   3   9
BRANCH   4  14
ATOM     14  O   UNL     1       2.030   5.257  -3.811  0.00  0.00    -0.238 OA
BRANCH  14  15
ATOM     15  S   UNL     1       2.313   5.657  -2.239  0.00  0.00    -0.000 S 
ATOM     16  O   UNL     1       3.650   4.704  -1.814  0.00  0.00    -0.268 OA
ATOM     17  O   UNL     1       1.234   5.222  -1.286  0.00  0.00    -0.345 OA
ATOM     18  O   UNL     1       2.720   7.074  -2.017  0.00  0.00    -0.345 OA
ENDBRANCH  14  15
ENDBRANCH   4  14
ENDBRANCH   1   2
BRANCH   1  21
ATOM     19  C   UNL     1       1.424   6.299 -11.754  0.00  0.00    +0.234 C 
ATOM     20  C   UNL     1       2.100   5.668 -10.318  0.00  0.00    +0.207 C 
ATOM     21  C   UNL     1       1.366   6.845  -9.286  0.00  0.00    +0.179 C 
ATOM     22  C   UNL     1      -0.023   5.969  -9.117  0.00  0.00    +0.177 C 
ATOM     23  O   UNL     1       0.051   5.104 -10.121  0.00  0.00    -0.324 OA
ATOM     24  C   UNL     1      -0.225   5.819 -11.451  0.00  0.00    +0.301 C 
ATOM     25  O   UNL     1      -0.555   7.196 -10.829  0.00  0.00    -0.187 OA
BRANCH  19  26
ATOM     26  O   UNL     1       1.664   4.993 -12.455  0.00  0.00    -0.236 OA
BRANCH  26  28
ATOM     27  O   UNL     1       1.858   4.927 -14.059  0.00  0.00    -0.345 OA
ATOM     28  S   UNL     1       1.928   5.160 -14.014  0.00  0.00    +0.000 S 
ATOM     29  O   UNL     1       0.743   5.431 -15.067  0.00  0.00    -0.268 OA
ATOM     30  O   UNL     1       3.093   4.373 -14.479  0.00  0.00    -0.345 OA
ENDBRANCH  26  28
ENDBRANCH  19  26
BRANCH  20  31
ATOM     31  O   UNL     1       3.305   6.550 -10.478  0.00  0.00    -0.238 OA
BRANCH  31  32
ATOM     32  S   UNL     1       4.666   5.612 -10.494  0.00  0.00    -0.000 S 
ATOM     33  O   UNL     1       5.133   5.110 -12.011  0.00  0.00    -0.268 OA
ATOM     34  O   UNL     1       5.765   6.341  -9.756  0.00  0.00    -0.345 OA
ATOM     35  O   UNL     1       4.386   4.407  -9.618  0.00  0.00    -0.345 OA
ENDBRANCH  31  32
ENDBRANCH  20  31
ENDBRANCH   1  21
TORSDOF 10
ENDMDL
MODEL 3
REMARK VINA RESULT:      -8.1      1.886      7.797
REMARK  Name = 
REMARK  10 active torsions:
REMARK  status: ('A' for Active; 'I' for Inactive)
REMARK    1  A    between atoms: S_2  and  O_5
REMARK    2  A    between atoms: O_5  and  C_6
REMARK    3  A    between atoms: C_11  and  O_12
REMARK    4  A    between atoms: O_12  and  C_13
REMARK    5  A    between atoms: C_18  and  O_19
REMARK    6  A    between atoms: O_19  and  S_20
REMARK    7  A    between atoms: C_24  and  O_25
REMARK    8  A    between atoms: O_25  and  S_26
REMARK    9  A    between atoms: C_30  and  O_31
REMARK   10  A    between atoms: O_31  and  S_32
REMARK                            x       y       z     vdW  Elec       q    Type
REMARK                         _______ _______ _______ _____ _____    ______ ____
ROOT
ATOM      1  O   UNL     1       1.826   5.468  -7.194  0.00  0.00    -0.326 OA
ENDROOT
BRANCH   1   2
ATOM      2  C   UNL     1       1.570   4.543  -5.987  0.00  0.00    +0.269 C 
ATOM      3  C   UNL     1       1.182   5.888  -4.945  0.00  0.00    +0.231 C 
ATOM      4  C   UNL     1      -0.439   5.438  -4.642  0.00  0.00    +0.210 C 
ATOM      5  C   UNL     1      -1.000   6.354  -6.000  0.00  0.00    +0.213 C 
ATOM      6  O   UNL     1      -2.334   5.625  -6.000  0.00  0.00    -0.218 OA
ATOM      7  C   UNL     1      -0.371   5.285  -7.084  0.00  0.00    +0.180 C 
ATOM      8  O   UNL     1       0.123   4.250  -6.415  0.00  0.00    -0.326 OA
BRANCH   3   9
ATOM      9  O   UNL     1       1.614   5.113  -3.736  0.00  0.00    -0.236 OA
BRANCH   9  10
ATOM     10  S   UNL     1       2.916   5.796  -3.017  0.00  0.00    +0.000 S 
ATOM     11  O   UNL     1       4.347   5.001  -3.437  0.00  0.00    -0.268 OA
ATOM     12  O   UNL     1       2.888   5.869  -1.538  0.00  0.00    -0.345 OA
ATOM     13  O   UNL     1       3.042   7.189  -3.598  0.00  0.00    -0.345 OA
ENDBRANCH   9  10
ENDBRANCH   3   9
BRANCH   4  14
ATOM     14  O   UNL     1      -0.585   6.630  -3.746  0.00  0.00    -0.238 OA
BRANCH  14  15
ATOM     15  S   UNL     1      -1.544   6.261  -2.458  0.00  0.00    -0.000 S 
ATOM     16  O   UNL     1      -0.440   5.895  -1.224  0.00  0.00    -0.268 OA
ATOM     17  O   UNL     1      -2.342   4.998  -2.624  0.00  0.00    -0.345 OA
ATOM     18  O   UNL     1      -2.378   7.390  -1.956  0.00  0.00    -0.345 OA
ENDBRANCH  14  15
ENDBRANCH   4  14
ENDBRANCH   1   2
BRANCH   1  21
ATOM     19  C   UNL     1       4.087   4.888 -10.085  0.00  0.00    +0.234 C 
ATOM     20  C   UNL     1       2.729   5.559  -9.295  0.00  0.00    +0.207 C 
ATOM     21  C   UNL     1       3.026   4.755  -7.793  0.00  0.00    +0.179 C 
ATOM     22  C   UNL     1       4.035   5.943  -7.249  0.00  0.00    +0.177 C 
ATOM     23  O   UNL     1       4.338   6.603  -8.360  0.00  0.00    -0.324 OA
ATOM     24  C   UNL     1       5.310   5.775  -9.214  0.00  0.00    +0.301 C 
ATOM     25  O   UNL     1       5.479   4.623  -8.195  0.00  0.00    -0.187 OA
BRANCH  19  26
ATOM     26  O   UNL     1       4.043   5.979 -11.114  0.00  0.00    -0.236 OA
BRANCH  26  28
ATOM     27  O   UNL     1       4.513   5.694 -12.635  0.00  0.00    -0.345 OA
ATOM     28  S   UNL     1       4.414   5.476 -12.576  0.00  0.00    +0.000 S 
ATOM     29  O   UNL     1       5.897   5.001 -12.977  0.00  0.00    -0.268 OA
ATOM     30  O   UNL     1       3.595   6.126 -13.624  0.00  0.00    -0.345 OA
ENDBRANCH  26  28
ENDBRANCH  19  26
BRANCH  20  31
ATOM     31  O   UNL     1       1.876   4.409  -9.750  0.00  0.00    -0.238 OA
BRANCH  31  32
ATOM     32  S   UNL     1       0.630   4.988 -10.668  0.00  0.00    -0.000 S 
ATOM     33  O   UNL     1       0.147   6.530 -10.271  0.00  0.00    -0.268 OA
ATOM     34  O   UNL     1       0.999   4.849 -12.128  0.00  0.00    -0.345 OA
ATOM     35  O   UNL     1      -0.530   4.027 -10.500  0.00  0.00    -0.345 OA
ENDBRANCH  31  32
ENDBRANCH  20  31
ENDBRANCH   1  21
TORSDOF 10
ENDMDL
MODEL 4
REMARK VINA RESULT:      -8.1      1.782      4.278
REMARK  Name = 
REMARK  10 active torsions:
REMARK  status: ('A' for Active; 'I' for Inactive)
REMARK    1  A    between atoms: S_2  and  O_5
REMARK    2  A    between atoms: O_5  and  C_6
REMARK    3  A    between atoms: C_11  and  O_12
REMARK    4  A    between atoms: O_12  and  C_13
REMARK    5  A    between atoms: C_18  and  O_19
REMARK    6  A    between atoms: O_19  and  S_20
REMARK    7  A    between atoms: C_24  and  O_25
REMARK    8  A    between atoms: O_25  and  S_26
REMARK    9  A    between atoms: C_30  and  O_31
REMARK   10  A    between atoms: O_31  and  S_32
REMARK                            x       y       z     vdW  Elec       q    Type
REMARK                         _______ _______ _______ _____ _____    ______ ____
ROOT
ATOM      1  O   UNL     1       2.573   5.465  -7.753  0.00  0.00    -0.326 OA
ENDROOT
BRANCH   1   2
ATOM      2  C   UNL     1       2.577   4.606  -9.034  0.00  0.00    +0.269 C 
ATOM      3  C   UNL     1       2.980   5.974 -10.039  0.00  0.00    +0.231 C 
ATOM      4  C   UNL     1       4.494   5.384 -10.573  0.00  0.00    +0.210 C 
ATOM      5  C   UNL     1       5.313   6.140  -9.248  0.00  0.00    +0.213 C 
ATOM      6  O   UNL     1       6.549   5.282  -9.460  0.00  0.00    -0.218 OA
ATOM      7  C   UNL     1       4.707   5.068  -8.155  0.00  0.00    +0.180 C 
ATOM      8  O   UNL     1       4.025   4.137  -8.813  0.00  0.00    -0.326 OA
BRANCH   3   9
ATOM      9  O   UNL     1       2.322   5.334 -11.225  0.00  0.00    -0.236 OA
BRANCH   9  10
ATOM     10  S   UNL     1       0.897   6.053 -11.584  0.00  0.00    +0.000 S 
ATOM     11  O   UNL     1       0.841   6.552 -13.197  0.00  0.00    -0.268 OA
ATOM     12  O   UNL     1       0.526   7.226 -10.761  0.00  0.00    -0.345 OA
ATOM     13  O   UNL     1      -0.165   4.980 -11.457  0.00  0.00    -0.345 OA
ENDBRANCH   9  10
ENDBRANCH   3   9
BRANCH   4  14
ATOM     14  O   UNL     1       4.659   6.614 -11.411  0.00  0.00    -0.238 OA
BRANCH  14  15
ATOM     15  S   UNL     1       5.459   6.251 -12.804  0.00  0.00    -0.000 S 
ATOM     16  O   UNL     1       4.218   6.046 -13.941  0.00  0.00    -0.268 OA
ATOM     17  O   UNL     1       6.164   4.923 -12.784  0.00  0.00    -0.345 OA
ATOM     18  O   UNL     1       6.331   7.341 -13.327  0.00  0.00    -0.345 OA
ENDBRANCH  14  15
ENDBRANCH   4  14
ENDBRANCH   1   2
BRANCH   1  21
ATOM     19  C   UNL     1       0.545   5.078  -4.664  0.00  0.00    +0.234 C 
ATOM     20  C   UNL     1       1.836   5.693  -5.599  0.00  0.00    +0.207 C 
ATOM     21  C   UNL     1       1.425   4.795  -7.018  0.00  0.00    +0.179 C 
ATOM     22  C   UNL     1       0.373   5.947  -7.558  0.00  0.00    +0.177 C 
ATOM     23  O   UNL     1       0.156   6.678  -6.471  0.00  0.00    -0.324 OA
ATOM     24  C   UNL     1      -0.744   5.910  -5.493  0.00  0.00    +0.301 C 
ATOM     25  O   UNL     1      -0.989   4.695  -6.419  0.00  0.00    -0.187 OA
BRANCH  19  26
ATOM     26  O   UNL     1       0.666   6.234  -3.714  0.00  0.00    -0.236 OA
BRANCH  26  28
ATOM     27  O   UNL     1       0.418   6.013  -2.131  0.00  0.00    -0.345 OA
ATOM     28  S   UNL     1       0.538   5.805  -2.188  0.00  0.00    +0.000 S 
ATOM     29  O   UNL     1      -0.810   5.178  -1.576  0.00  0.00    -0.268 OA
ATOM     30  O   UNL     1       1.376   6.636  -1.294  0.00  0.00    -0.345 OA
ENDBRANCH  26  28
ENDBRANCH  19  26
BRANCH  20  31
ATOM     31  O   UNL     1       2.725   4.574  -5.139  0.00  0.00    -0.238 OA
BRANCH  31  32
ATOM     32  S   UNL     1       4.018   5.206  -4.328  0.00  0.00    -0.000 S 
ATOM     33  O   UNL     1       4.335   6.802  -4.683  0.00  0.00    -0.268 OA
ATOM     34  O   UNL     1       3.828   4.965  -2.848  0.00  0.00    -0.345 OA
ATOM     35  O   UNL     1       5.223   4.355  -4.677  0.00  0.00    -0.345 OA
ENDBRANCH  31  32
ENDBRANCH  20  31
ENDBRANCH   1  21
TORSDOF 10
ENDMDL
MODEL 5
REMARK VINA RESULT:      -7.5      3.133      8.955
REMARK  Name = 
REMARK  10 active torsions:
REMARK  status: ('A' for Active; 'I' for Inactive)
REMARK    1  A    between atoms: S_2  and  O_5
REMARK    2  A    between atoms: O_5  and  C_6
REMARK    3  A    between atoms: C_11  and  O_12
REMARK    4  A    between atoms: O_12  and  C_13
REMARK    5  A    between atoms: C_18  and  O_19
REMARK    6  A    between atoms: O_19  and  S_20
REMARK    7  A    between atoms: C_24  and  O_25
REMARK    8  A    between atoms: O_25  and  S_26
REMARK    9  A    between atoms: C_30  and  O_31
REMARK   10  A    between atoms: O_31  and  S_32
REMARK                            x       y       z     vdW  Elec       q    Type
REMARK                         _______ _______ _______ _____ _____    ______ ____
ROOT
ATOM      1  O   UNL     1       1.198   6.004  -3.000  0.00  0.00    -0.326 OA
ENDROOT
BRANCH   1   2
ATOM      2  C   UNL     1       1.113   5.371  -1.597  0.00  0.00    +0.269 C 
ATOM      3  C   UNL     1       0.718   6.898  -0.850  0.00  0.00    +0.231 C 
ATOM      4  C   UNL     1      -0.834   6.446  -0.295  0.00  0.00    +0.210 C 
ATOM      5  C   UNL     1      -1.574   6.994  -1.761  0.00  0.00    +0.213 C 
ATOM      6  O   UNL     1      -2.846   6.217  -1.465  0.00  0.00    -0.218 OA
ATOM      7  C   UNL     1      -0.963   5.739  -2.634  0.00  0.00    +0.180 C 
ATOM      8  O   UNL     1      -0.340   4.912  -1.802  0.00  0.00    -0.326 OA
BRANCH   3   9
ATOM      9  O   UNL     1       1.307   6.445   0.453  0.00  0.00    -0.236 OA
BRANCH   9  10
ATOM     10  S   UNL     1       2.606   7.347   0.872  0.00  0.00    +0.000 S 
ATOM     11  O   UNL     1       4.053   6.519   0.594  0.00  0.00    -0.268 OA
ATOM     12  O   UNL     1       2.651   7.825   2.273  0.00  0.00    -0.345 OA
ATOM     13  O   UNL     1       2.629   8.528  -0.075  0.00  0.00    -0.345 OA
ENDBRANCH   9  10
ENDBRANCH   3   9
BRANCH   4  14
ATOM     14  O   UNL     1      -0.990   7.803   0.321  0.00  0.00    -0.238 OA
BRANCH  14  15
ATOM     15  S   UNL     1      -1.815   7.692   1.742  0.00  0.00    -0.000 S 
ATOM     16  O   UNL     1      -0.640   8.024   2.919  0.00  0.00    -0.268 OA
ATOM     17  O   UNL     1      -2.289   6.305   2.076  0.00  0.00    -0.345 OA
ATOM     18  O   UNL     1      -2.890   8.710   1.923  0.00  0.00    -0.345 OA
ENDBRANCH  14  15
ENDBRANCH   4  14
ENDBRANCH   1   2
BRANCH   1  21
ATOM     19  C   UNL     1       3.548   5.292  -5.788  0.00  0.00    +0.234 C 
ATOM     20  C   UNL     1       2.213   6.061  -5.050  0.00  0.00    +0.207 C 
ATOM     21  C   UNL     1       2.362   5.203  -3.557  0.00  0.00    +0.179 C 
ATOM     22  C   UNL     1       3.439   6.287  -2.932  0.00  0.00    +0.177 C 
ATOM     23  O   UNL     1       3.855   6.941  -4.010  0.00  0.00    -0.324 OA
ATOM     24  C   UNL     1       4.796   6.051  -4.835  0.00  0.00    +0.301 C 
ATOM     25  O   UNL     1       4.812   4.867  -3.839  0.00  0.00    -0.187 OA
BRANCH  19  26
ATOM     26  O   UNL     1       3.651   6.405  -6.790  0.00  0.00    -0.236 OA
BRANCH  26  28
ATOM     27  O   UNL     1       4.070   6.084  -8.319  0.00  0.00    -0.345 OA
ATOM     28  S   UNL     1       3.923   5.891  -8.270  0.00  0.00    +0.000 S 
ATOM     29  O   UNL     1       5.268   5.112  -8.682  0.00  0.00    -0.268 OA
ATOM     30  O   UNL     1       3.287   6.750  -9.294  0.00  0.00    -0.345 OA
ENDBRANCH  26  28
ENDBRANCH  19  26
BRANCH  20  31
ATOM     31  O   UNL     1       1.290   5.000  -5.577  0.00  0.00    -0.238 OA
BRANCH  31  32
ATOM     32  S   UNL     1       0.061   5.718  -6.417  0.00  0.00    -0.000 S 
ATOM     33  O   UNL     1       0.313   5.798  -8.061  0.00  0.00    -0.268 OA
ATOM     34  O   UNL     1      -1.237   5.032  -6.058  0.00  0.00    -0.345 OA
ATOM     35  O   UNL     1      -0.106   7.115  -5.855  0.00  0.00    -0.345 OA
ENDBRANCH  31  32
ENDBRANCH  20  31
ENDBRANCH   1  21
TORSDOF 10
ENDMDL
MODEL 6
REMARK VINA RESULT:      -7.4      3.063      9.084
REMARK  Name = 
REMARK  10 active torsions:
REMARK  status: ('A' for Active; 'I' for Inactive)
REMARK    1  A    between atoms: S_2  and  O_5
REMARK    2  A    between atoms: O_5  and  C_6
REMARK    3  A    between atoms: C_11  and  O_12
REMARK    4  A    between atoms: O_12  and  C_13
REMARK    5  A    between atoms: C_18  and  O_19
REMARK    6  A    between atoms: O_19  and  S_20
REMARK    7  A    between atoms: C_24  and  O_25
REMARK    8  A    between atoms: O_25  and  S_26
REMARK    9  A    between atoms: C_30  and  O_31
REMARK   10  A    between atoms: O_31  and  S_32
REMARK                            x       y       z     vdW  Elec       q    Type
REMARK                         _______ _______ _______ _____ _____    ______ ____
ROOT
ATOM      1  O   UNL     1       0.515   6.033  -3.022  0.00  0.00    -0.326 OA
ENDROOT
BRANCH   1   2
ATOM      2  C   UNL     1       0.860   5.304  -1.708  0.00  0.00    +0.269 C 
ATOM      3  C   UNL     1       1.228   6.799  -0.888  0.00  0.00    +0.231 C 
ATOM      4  C   UNL     1      -0.011   6.688   0.285  0.00  0.00    +0.210 C 
ATOM      5  C   UNL     1      -1.121   7.541  -0.733  0.00  0.00    +0.213 C 
ATOM      6  O   UNL     1      -2.310   7.073   0.091  0.00  0.00    -0.218 OA
ATOM      7  C   UNL     1      -1.282   6.268  -1.764  0.00  0.00    +0.180 C 
ATOM      8  O   UNL     1      -0.611   5.236  -1.265  0.00  0.00    -0.326 OA
BRANCH   3   9
ATOM      9  O   UNL     1       2.164   6.091   0.045  0.00  0.00    -0.236 OA
BRANCH   9  10
ATOM     10  S   UNL     1       3.722   6.502  -0.237  0.00  0.00    +0.000 S 
ATOM     11  O   UNL     1       3.838   7.958  -1.086  0.00  0.00    -0.268 OA
ATOM     12  O   UNL     1       4.540   5.512  -0.975  0.00  0.00    -0.345 OA
ATOM     13  O   UNL     1       4.343   6.774   1.117  0.00  0.00    -0.345 OA
ENDBRANCH   9  10
ENDBRANCH   3   9
BRANCH   4  14
ATOM     14  O   UNL     1       0.467   7.974   0.887  0.00  0.00    -0.238 OA
BRANCH  14  15
ATOM     15  S   UNL     1       0.256   7.952   2.520  0.00  0.00    -0.000 S 
ATOM     16  O   UNL     1       1.778   7.502   3.118  0.00  0.00    -0.268 OA
ATOM     17  O   UNL     1      -0.665   6.869   3.010  0.00  0.00    -0.345 OA
ATOM     18  O   UNL     1      -0.060   9.275   3.129  0.00  0.00    -0.345 OA
ENDBRANCH  14  15
ENDBRANCH   4  14
ENDBRANCH   1   2
BRANCH   1  21
ATOM     19  C   UNL     1       1.403   5.156  -6.522  0.00  0.00    +0.234 C 
ATOM     20  C   UNL     1       0.585   6.039  -5.310  0.00  0.00    +0.207 C 
ATOM     21  C   UNL     1       1.251   5.131  -3.998  0.00  0.00    +0.179 C 
ATOM     22  C   UNL     1       2.598   6.080  -3.900  0.00  0.00    +0.177 C 
ATOM     23  O   UNL     1       2.594   6.716  -5.065  0.00  0.00    -0.324 OA
ATOM     24  C   UNL     1       3.006   5.756  -6.190  0.00  0.00    +0.301 C 
ATOM     25  O   UNL     1       3.311   4.551  -5.269  0.00  0.00    -0.187 OA
BRANCH  19  26
ATOM     26  O   UNL     1       1.196   6.279  -7.496  0.00  0.00    -0.236 OA
BRANCH  26  28
ATOM     27  O   UNL     1       1.088   6.013  -9.088  0.00  0.00    -0.345 OA
ATOM     28  S   UNL     1       1.059   5.783  -9.001  0.00  0.00    +0.000 S 
ATOM     29  O   UNL     1       2.333   5.554  -9.956  0.00  0.00    -0.268 OA
ATOM     30  O   UNL     1      -0.200   6.236  -9.635  0.00  0.00    -0.345 OA
ENDBRANCH  26  28
ENDBRANCH  19  26
BRANCH  20  31
ATOM     31  O   UNL     1      -0.579   5.094  -5.383  0.00  0.00    -0.238 OA
BRANCH  31  32
ATOM     32  S   UNL     1      -1.981   5.964  -5.464  0.00  0.00    -0.000 S 
ATOM     33  O   UNL     1      -1.823   7.558  -5.009  0.00  0.00    -0.268 OA
ATOM     34  O   UNL     1      -2.570   5.809  -6.848  0.00  0.00    -0.345 OA
ATOM     35  O   UNL     1      -2.988   5.272  -4.567  0.00  0.00    -0.345 OA
ENDBRANCH  31  32
ENDBRANCH  20  31
ENDBRANCH   1  21
TORSDOF 10
ENDMDL
MODEL 7
REMARK VINA RESULT:      -7.4      2.817      5.582
REMARK  Name = 
REMARK  10 active torsions:
REMARK  status: ('A' for Active; 'I' for Inactive)
REMARK    1  A    between atoms: S_2  and  O_5
REMARK    2  A    between atoms: O_5  and  C_6
REMARK    3  A    between atoms: C_11  and  O_12
REMARK    4  A    between atoms: O_12  and  C_13
REMARK    5  A    between atoms: C_18  and  O_19
REMARK    6  A    between atoms: O_19  and  S_20
REMARK    7  A    between atoms: C_24  and  O_25
REMARK    8  A    between atoms: O_25  and  S_26
REMARK    9  A    between atoms: C_30  and  O_31
REMARK   10  A    between atoms: O_31  and  S_32
REMARK                            x       y       z     vdW  Elec       q    Type
REMARK                         _______ _______ _______ _____ _____    ______ ____
ROOT
ATOM      1  O   UNL     1       1.236   5.799  -4.019  0.00  0.00    -0.326 OA
ENDROOT
BRANCH   1   2
ATOM      2  C   UNL     1       1.451   4.685  -5.064  0.00  0.00    +0.269 C 
ATOM      3  C   UNL     1       1.916   5.829  -6.297  0.00  0.00    +0.231 C 
ATOM      4  C   UNL     1       3.513   5.255  -6.501  0.00  0.00    +0.210 C 
ATOM      5  C   UNL     1       4.112   6.341  -5.295  0.00  0.00    +0.213 C 
ATOM      6  O   UNL     1       5.406   5.554  -5.161  0.00  0.00    -0.218 OA
ATOM      7  C   UNL     1       3.421   5.489  -4.067  0.00  0.00    +0.180 C 
ATOM      8  O   UNL     1       2.877   4.388  -4.574  0.00  0.00    -0.326 OA
BRANCH   3   9
ATOM      9  O   UNL     1       1.452   4.898  -7.377  0.00  0.00    -0.236 OA
BRANCH   9  10
ATOM     10  S   UNL     1       0.490   5.661  -8.458  0.00  0.00    +0.000 S 
ATOM     11  O   UNL     1       0.298   4.753  -9.870  0.00  0.00    -0.268 OA
ATOM     12  O   UNL     1       0.917   7.016  -8.877  0.00  0.00    -0.345 OA
ATOM     13  O   UNL     1      -0.887   5.728  -7.830  0.00  0.00    -0.345 OA
ENDBRANCH   9  10
ENDBRANCH   3   9
BRANCH   4  14
ATOM     14  O   UNL     1       3.728   6.282  -7.570  0.00  0.00    -0.238 OA
BRANCH  14  15
ATOM     15  S   UNL     1       4.535   5.620  -8.844  0.00  0.00    -0.000 S 
ATOM     16  O   UNL     1       4.256   6.713 -10.111  0.00  0.00    -0.268 OA
ATOM     17  O   UNL     1       3.953   4.326  -9.339  0.00  0.00    -0.345 OA
ATOM     18  O   UNL     1       6.014   5.542  -8.675  0.00  0.00    -0.345 OA
ENDBRANCH  14  15
ENDBRANCH   4  14
ENDBRANCH   1   2
BRANCH   1  21
ATOM     19  C   UNL     1      -0.946   5.815  -1.012  0.00  0.00    +0.234 C 
ATOM     20  C   UNL     1       0.321   6.385  -2.005  0.00  0.00    +0.207 C 
ATOM     21  C   UNL     1       0.131   5.152  -3.202  0.00  0.00    +0.179 C 
ATOM     22  C   UNL     1      -1.016   6.002  -4.032  0.00  0.00    +0.177 C 
ATOM     23  O   UNL     1      -1.401   6.915  -3.148  0.00  0.00    -0.324 OA
ATOM     24  C   UNL     1      -2.266   6.260  -2.061  0.00  0.00    +0.301 C 
ATOM     25  O   UNL     1      -2.288   4.851  -2.699  0.00  0.00    -0.187 OA
BRANCH  19  26
ATOM     26  O   UNL     1      -1.041   7.155  -0.343  0.00  0.00    -0.236 OA
BRANCH  26  28
ATOM     27  O   UNL     1      -1.342   7.233   1.245  0.00  0.00    -0.345 OA
ATOM     28  S   UNL     1      -1.169   7.056   1.240  0.00  0.00    +0.000 S 
ATOM     29  O   UNL     1      -2.360   6.252   1.962  0.00  0.00    -0.268 OA
ATOM     30  O   UNL     1      -0.633   8.252   1.928  0.00  0.00    -0.345 OA
ENDBRANCH  26  28
ENDBRANCH  19  26
BRANCH  20  31
ATOM     31  O   UNL     1       1.308   5.527  -1.267  0.00  0.00    -0.238 OA
BRANCH  31  32
ATOM     32  S   UNL     1       2.531   6.478  -0.692  0.00  0.00    -0.000 S 
ATOM     33  O   UNL     1       2.997   7.694  -1.729  0.00  0.00    -0.268 OA
ATOM     34  O   UNL     1       2.143   6.994   0.675  0.00  0.00    -0.345 OA
ATOM     35  O   UNL     1       3.708   5.566  -0.409  0.00  0.00    -0.345 OA
ENDBRANCH  31  32
ENDBRANCH  20  31
ENDBRANCH   1  21
TORSDOF 10
ENDMDL
MODEL 8
REMARK VINA RESULT:      -7.4      2.426      8.240
REMARK  Name = 
REMARK  10 active torsions:
REMARK  status: ('A' for Active; 'I' for Inactive)
REMARK    1  A    between atoms: S_2  and  O_5
REMARK    2  A    between atoms: O_5  and  C_6
REMARK    3  A    between atoms: C_11  and  O_12
REMARK    4  A    between atoms: O_12  and  C_13
REMARK    5  A    between atoms: C_18  and  O_19
REMARK    6  A    between atoms: O_19  and  S_20
REMARK    7  A    between atoms: C_24  and  O_25
REMARK    8  A    between atoms: O_25  and  S_26
REMARK    9  A    between atoms: C_30  and  O_31
REMARK   10  A    between atoms: O_31  and  S_32
REMARK                            x       y       z     vdW  Elec       q    Type
REMARK                         _______ _______ _______ _____ _____    ______ ____
ROOT
ATOM      1  O   UNL     1       3.389   5.640 -10.340  0.00  0.00    -0.326 OA
ENDROOT
BRANCH   1   2
ATOM      2  C   UNL     1       3.223   4.638  -9.180  0.00  0.00    +0.269 C 
ATOM      3  C   UNL     1       2.624   5.872  -8.101  0.00  0.00    +0.231 C 
ATOM      4  C   UNL     1       1.070   5.195  -7.876  0.00  0.00    +0.210 C 
ATOM      5  C   UNL     1       0.433   6.084  -9.217  0.00  0.00    +0.213 C 
ATOM      6  O   UNL     1      -0.789   5.184  -9.296  0.00  0.00    -0.218 OA
ATOM      7  C   UNL     1       1.235   5.159 -10.318  0.00  0.00    +0.180 C 
ATOM      8  O   UNL     1       1.844   4.171  -9.672  0.00  0.00    -0.326 OA
BRANCH   3   9
ATOM      9  O   UNL     1       3.119   5.110  -6.908  0.00  0.00    -0.236 OA
BRANCH   9  10
ATOM     10  S   UNL     1       3.938   6.077  -5.873  0.00  0.00    +0.000 S 
ATOM     11  O   UNL     1       3.870   5.494  -4.289  0.00  0.00    -0.268 OA
ATOM     12  O   UNL     1       3.515   7.495  -5.824  0.00  0.00    -0.345 OA
ATOM     13  O   UNL     1       5.396   5.990  -6.273  0.00  0.00    -0.345 OA
ENDBRANCH   9  10
ENDBRANCH   3   9
BRANCH   4  14
ATOM     14  O   UNL     1       0.735   6.316  -6.940  0.00  0.00    -0.238 OA
BRANCH  14  15
ATOM     15  S   UNL     1      -0.159   5.755  -5.676  0.00  0.00    -0.000 S 
ATOM     16  O   UNL     1      -0.385   7.125  -4.703  0.00  0.00    -0.268 OA
ATOM     17  O   UNL     1       0.569   4.787  -4.786  0.00  0.00    -0.345 OA
ATOM     18  O   UNL     1      -1.520   5.268  -6.040  0.00  0.00    -0.345 OA
ENDBRANCH  14  15
ENDBRANCH   4  14
ENDBRANCH   1   2
BRANCH   1  21
ATOM     19  C   UNL     1       6.177   6.016 -12.767  0.00  0.00    +0.234 C 
ATOM     20  C   UNL     1       4.617   6.327 -12.145  0.00  0.00    +0.207 C 
ATOM     21  C   UNL     1       4.769   5.225 -10.821  0.00  0.00    +0.179 C 
ATOM     22  C   UNL     1       5.477   6.351  -9.842  0.00  0.00    +0.177 C 
ATOM     23  O   UNL     1       5.863   7.286 -10.702  0.00  0.00    -0.324 OA
ATOM     24  C   UNL     1       7.082   6.796 -11.497  0.00  0.00    +0.301 C 
ATOM     25  O   UNL     1       7.245   5.460 -10.736  0.00  0.00    -0.187 OA
BRANCH  19  26
ATOM     26  O   UNL     1       6.145   7.310 -13.526  0.00  0.00    -0.236 OA
BRANCH  26  28
ATOM     27  O   UNL     1       6.535   7.263 -15.096  0.00  0.00    -0.345 OA
ATOM     28  S   UNL     1       6.333   7.120 -15.094  0.00  0.00    +0.000 S 
ATOM     29  O   UNL     1       7.396   6.087 -15.719  0.00  0.00    -0.268 OA
ATOM     30  O   UNL     1       6.054   8.360 -15.853  0.00  0.00    -0.345 OA
ENDBRANCH  26  28
ENDBRANCH  19  26
BRANCH  20  31
ATOM     31  O   UNL     1       4.040   5.234 -12.998  0.00  0.00    -0.238 OA
BRANCH  31  32
ATOM     32  S   UNL     1       2.747   5.827 -13.839  0.00  0.00    -0.000 S 
ATOM     33  O   UNL     1       1.811   6.905 -12.984  0.00  0.00    -0.268 OA
ATOM     34  O   UNL     1       3.241   6.395 -15.150  0.00  0.00    -0.345 OA
ATOM     35  O   UNL     1       1.906   4.638 -14.260  0.00  0.00    -0.345 OA
ENDBRANCH  31  32
ENDBRANCH  20  31
ENDBRANCH   1  21
TORSDOF 10
ENDMDL
MODEL 9
REMARK VINA RESULT:      -7.3      2.443      5.273
REMARK  Name = 
REMARK  10 active torsions:
REMARK  status: ('A' for Active; 'I' for Inactive)
REMARK    1  A    between atoms: S_2  and  O_5
REMARK    2  A    between atoms: O_5  and  C_6
REMARK    3  A    between atoms: C_11  and  O_12
REMARK    4  A    between atoms: O_12  and  C_13
REMARK    5  A    between atoms: C_18  and  O_19
REMARK    6  A    between atoms: O_19  and  S_20
REMARK    7  A    between atoms: C_24  and  O_25
REMARK    8  A    between atoms: O_25  and  S_26
REMARK    9  A    between atoms: C_30  and  O_31
REMARK   10  A    between atoms: O_31  and  S_32
REMARK                            x       y       z     vdW  Elec       q    Type
REMARK                         _______ _______ _______ _____ _____    ______ ____
ROOT
ATOM      1  O   UNL     1       1.744   5.771  -4.688  0.00  0.00    -0.326 OA
ENDROOT
BRANCH   1   2
ATOM      2  C   UNL     1       0.856   4.782  -5.470  0.00  0.00    +0.269 C 
ATOM      3  C   UNL     1       0.384   6.004  -6.623  0.00  0.00    +0.231 C 
ATOM      4  C   UNL     1       1.077   5.254  -7.994  0.00  0.00    +0.210 C 
ATOM      5  C   UNL     1       2.576   6.087  -7.755  0.00  0.00    +0.213 C 
ATOM      6  O   UNL     1       3.312   5.125  -8.673  0.00  0.00    -0.218 OA
ATOM      7  C   UNL     1       2.961   5.183  -6.433  0.00  0.00    +0.180 C 
ATOM      8  O   UNL     1       2.039   4.239  -6.287  0.00  0.00    -0.326 OA
BRANCH   3   9
ATOM      9  O   UNL     1      -0.906   5.289  -6.895  0.00  0.00    -0.236 OA
BRANCH   9  10
ATOM     10  S   UNL     1      -2.140   5.921  -6.026  0.00  0.00    +0.000 S 
ATOM     11  O   UNL     1      -1.699   7.373  -5.284  0.00  0.00    -0.268 OA
ATOM     12  O   UNL     1      -2.708   5.056  -4.966  0.00  0.00    -0.345 OA
ATOM     13  O   UNL     1      -3.219   6.288  -7.023  0.00  0.00    -0.345 OA
ENDBRANCH   9  10
ENDBRANCH   3   9
BRANCH   4  14
ATOM     14  O   UNL     1       0.561   6.374  -8.846  0.00  0.00    -0.238 OA
BRANCH  14  15
ATOM     15  S   UNL     1       0.243   5.831 -10.368  0.00  0.00    -0.000 S 
ATOM     16  O   UNL     1       1.689   6.110 -11.208  0.00  0.00    -0.268 OA
ATOM     17  O   UNL     1      -0.778   6.646 -11.113  0.00  0.00    -0.345 OA
ATOM     18  O   UNL     1      -0.026   4.369 -10.468  0.00  0.00    -0.345 OA
ENDBRANCH  14  15
ENDBRANCH   4  14
ENDBRANCH   1   2
BRANCH   1  21
ATOM     19  C   UNL     1       2.252   5.890  -1.009  0.00  0.00    +0.234 C 
ATOM     20  C   UNL     1       2.236   6.539  -2.589  0.00  0.00    +0.207 C 
ATOM     21  C   UNL     1       1.781   5.055  -3.349  0.00  0.00    +0.179 C 
ATOM     22  C   UNL     1       0.168   5.327  -3.130  0.00  0.00    +0.177 C 
ATOM     23  O   UNL     1       0.154   6.278  -2.203  0.00  0.00    -0.324 OA
ATOM     24  C   UNL     1       0.529   5.685  -0.837  0.00  0.00    +0.301 C 
ATOM     25  O   UNL     1       0.614   4.216  -1.316  0.00  0.00    -0.187 OA
BRANCH  19  26
ATOM     26  O   UNL     1       2.135   7.269  -0.428  0.00  0.00    -0.236 OA
BRANCH  26  28
ATOM     27  O   UNL     1       2.978   7.269   0.953  0.00  0.00    -0.345 OA
ATOM     28  S   UNL     1       3.047   7.486   0.857  0.00  0.00    +0.000 S 
ATOM     29  O   UNL     1       4.486   6.788   1.023  0.00  0.00    -0.268 OA
ATOM     30  O   UNL     1       2.252   7.720   2.083  0.00  0.00    -0.345 OA
ENDBRANCH  26  28
ENDBRANCH  19  26
BRANCH  20  31
ATOM     31  O   UNL     1       3.687   6.193  -2.764  0.00  0.00    -0.238 OA
BRANCH  31  32
ATOM     32  S   UNL     1       4.524   7.554  -3.184  0.00  0.00    -0.000 S 
ATOM     33  O   UNL     1       4.156   8.894  -2.267  0.00  0.00    -0.268 OA
ATOM     34  O   UNL     1       6.001   7.235  -3.184  0.00  0.00    -0.345 OA
ATOM     35  O   UNL     1       4.219   7.832  -4.643  0.00  0.00    -0.345 OA
ENDBRANCH  31  32
ENDBRANCH  20  31
ENDBRANCH   1  21
TORSDOF 10
ENDMDL
