MODEL 1
REMARK VINA RESULT:      -9.6      0.000      0.000
REMARK  Name = 
REMARK  2 active torsions:
REMARK  status: ('A' for Active; 'I' for Inactive)
REMARK    1  A    between atoms: C_2  and  C_10
REMARK    2  A    between atoms: C_3  and  C_4
REMARK                            x       y       z     vdW  Elec       q    Type
REMARK                         _______ _______ _______ _____ _____    ______ ____
ROOT
ATOM      1  C   UNL     1      -0.233   6.985  -2.266  0.00  0.00    +0.116 C 
ATOM      2  N   UNL     1       0.994   6.050  -1.828  0.00  0.00    -0.203 NA
ATOM      3  C   UNL     1       2.059   6.997  -1.625  0.00  0.00    +0.244 C 
ATOM      4  O   UNL     1       2.754   7.018  -0.562  0.00  0.00    -0.273 OA
ATOM      5  C   UNL     1       2.717   7.101  -2.973  0.00  0.00    +0.120 C 
ATOM      6  C   UNL     1       3.790   5.829  -2.684  0.00  0.00    +0.167 C 
ATOM      7  O   UNL     1       4.719   6.761  -1.866  0.00  0.00    -0.222 OA
ATOM      8  C   UNL     1       4.612   6.046  -4.129  0.00  0.00    +0.080 C 
ATOM      9  C   UNL     1       5.317   4.728  -4.212  0.00  0.00    +0.010 C 
ATOM     10  C   UNL     1       5.508   7.195  -4.003  0.00  0.00    +0.010 C 
ATOM     11  C   UNL     1       3.522   6.190  -5.154  0.00  0.00    +0.154 C 
ATOM     12  O   UNL     1       3.463   7.336  -5.587  0.00  0.00    -0.296 OA
ATOM     13  C   UNL     1       3.542   5.025  -6.276  0.00  0.00    +0.088 C 
ATOM     14  C   UNL     1       4.976   5.550  -6.874  0.00  0.00    +0.010 C 
ATOM     15  C   UNL     1       2.633   5.930  -7.440  0.00  0.00    +0.159 C 
ATOM     16  O   UNL     1       3.296   5.208  -8.596  0.00  0.00    -0.223 OA
ATOM     17  C   UNL     1       1.313   4.815  -7.459  0.00  0.00    +0.031 C 
ATOM     18  C   UNL     1       1.267   4.573  -5.843  0.00  0.00    +0.003 C 
ATOM     19  C   UNL     1       0.238   6.045  -7.363  0.00  0.00    +0.003 C 
ATOM     20  C   UNL     1      -1.061   5.494  -6.913  0.00  0.00    +0.003 C 
ATOM     21  C   UNL     1      -1.324   5.487  -5.462  0.00  0.00    +0.030 C 
ATOM     22  C   UNL     1      -2.421   6.292  -5.087  0.00  0.00    +0.118 C 
ATOM     23  C   UNL     1      -2.274   6.827  -3.517  0.00  0.00    +0.142 C 
ATOM     24  C   UNL     1      -3.425   7.038  -5.844  0.00  0.00    +0.032 C 
ATOM     25  O   UNL     1      -3.283   5.580  -3.888  0.00  0.00    -0.356 OA
ATOM     26  C   UNL     1      -0.960   5.758  -3.141  0.00  0.00    +0.058 C 
ENDROOT
BRANCH   1  28
ATOM     27  C   UNL     1      -0.931   5.937  -0.685  0.00  0.00    +0.028 C 
ATOM     28  C   UNL     1      -1.067   6.520  -0.927  0.00  0.00    -0.023 C 
ATOM     29  C   UNL     1      -1.541   7.547  -0.228  0.00  0.00    +0.013 C 
BRANCH  29  30
ATOM     30  C   UNL     1      -1.567   7.360   1.234  0.00  0.00    +0.087 A 
ATOM     31  N   UNL     1      -2.650   7.106   2.014  0.00  0.00    -0.243 NA
ATOM     32  C   UNL     1      -2.354   6.238   3.000  0.00  0.00    +0.089 A 
ATOM     33  C   UNL     1      -3.253   5.232   3.650  0.00  0.00    +0.059 C 
ATOM     34  S   UNL     1      -0.780   6.777   3.414  0.00  0.00    -0.070 S 
ATOM     35  C   UNL     1      -0.513   7.779   2.043  0.00  0.00    +0.056 A 
ENDBRANCH  29  30
ENDBRANCH   1  28
TORSDOF 2
ENDMDL
MODEL 2
REMARK VINA RESULT:      -9.1      3.910      9.015
REMARK  Name = 
REMARK  2 active torsions:
REMARK  status: ('A' for Active; 'I' for Inactive)
REMARK    1  A    between atoms: C_2  and  C_10
REMARK    2  A    between atoms: C_3  and  C_4
REMARK                            x       y       z     vdW  Elec       q    Type
REMARK                         _______ _______ _______ _____ _____    ______ ____
ROOT
ATOM      1  C   UNL     1       2.676   6.106  -6.115  0.00  0.00    +0.116 C 
ATOM      2  N   UNL     1       1.430   5.144  -6.420  0.00  0.00    -0.203 NA
ATOM      3  C   UNL     1       0.483   6.035  -7.039  0.00  0.00    +0.244 C 
ATOM      4  O   UNL     1      -0.080   5.764  -8.144  0.00  0.00    -0.273 OA
ATOM      5  C   UNL     1      -0.314   6.577  -5.885  0.00  0.00    +0.120 C 
ATOM      6  C   UNL     1      -1.455   5.333  -5.929  0.00  0.00    +0.167 C 
ATOM      7  O   UNL     1      -2.197   6.015  -7.106  0.00  0.00    -0.222 OA
ATOM      8  C   UNL     1      -2.416   6.021  -4.740  0.00  0.00    +0.080 C 
ATOM      9  C   UNL     1      -3.240   4.827  -4.367  0.00  0.00    +0.010 C 
ATOM     10  C   UNL     1      -3.186   7.119  -5.321  0.00  0.00    +0.010 C 
ATOM     11  C   UNL     1      -1.444   6.416  -3.664  0.00  0.00    +0.154 C 
ATOM     12  O   UNL     1      -1.334   7.636  -3.586  0.00  0.00    -0.296 OA
ATOM     13  C   UNL     1      -1.696   5.652  -2.261  0.00  0.00    +0.088 C 
ATOM     14  C   UNL     1      -3.138   6.405  -2.048  0.00  0.00    +0.010 C 
ATOM     15  C   UNL     1      -0.851   6.823  -1.305  0.00  0.00    +0.159 C 
ATOM     16  O   UNL     1      -1.705   6.522  -0.089  0.00  0.00    -0.223 OA
ATOM     17  C   UNL     1       0.354   5.703  -0.776  0.00  0.00    +0.031 C 
ATOM     18  C   UNL     1       0.565   4.978  -2.225  0.00  0.00    +0.003 C 
ATOM     19  C   UNL     1       1.537   6.790  -1.083  0.00  0.00    +0.003 C 
ATOM     20  C   UNL     1       2.826   6.066  -1.167  0.00  0.00    +0.003 C 
ATOM     21  C   UNL     1       3.254   5.603  -2.501  0.00  0.00    +0.030 C 
ATOM     22  C   UNL     1       4.453   6.200  -2.944  0.00  0.00    +0.118 C 
ATOM     23  C   UNL     1       4.537   6.236  -4.606  0.00  0.00    +0.142 C 
ATOM     24  C   UNL     1       5.425   7.091  -2.312  0.00  0.00    +0.032 C 
ATOM     25  O   UNL     1       5.382   5.114  -3.748  0.00  0.00    -0.356 OA
ATOM     26  C   UNL     1       3.185   5.170  -4.825  0.00  0.00    +0.058 C 
ENDROOT
BRANCH   1  28
ATOM     27  C   UNL     1       3.335   4.711  -7.421  0.00  0.00    +0.028 C 
ATOM     28  C   UNL     1       3.615   5.213  -7.129  0.00  0.00    -0.023 C 
ATOM     29  C   UNL     1       4.656   5.892  -7.603  0.00  0.00    +0.013 C 
BRANCH  29  30
ATOM     30  C   UNL     1       5.052   5.561  -8.984  0.00  0.00    +0.087 A 
ATOM     31  N   UNL     1       4.288   4.974  -9.942  0.00  0.00    -0.243 NA
ATOM     32  C   UNL     1       4.528   5.505 -11.156  0.00  0.00    +0.089 A 
ATOM     33  C   UNL     1       3.579   5.658 -12.305  0.00  0.00    +0.059 C 
ATOM     34  S   UNL     1       6.226   5.725 -11.059  0.00  0.00    -0.070 S 
ATOM     35  C   UNL     1       6.390   5.492  -9.364  0.00  0.00    +0.056 A 
ENDBRANCH  29  30
ENDBRANCH   1  28
TORSDOF 2
ENDMDL
MODEL 3
REMARK VINA RESULT:      -8.8      3.041      5.231
REMARK  Name = 
REMARK  2 active torsions:
REMARK  status: ('A' for Active; 'I' for Inactive)
REMARK    1  A    between atoms: C_2  and  C_10
REMARK    2  A    between atoms: C_3  and  C_4
REMARK                            x       y       z     vdW  Elec       q    Type
REMARK                         _______ _______ _______ _____ _____    ______ ____
ROOT
ATOM      1  C   UNL     1       2.619   7.396  -1.186  0.00  0.00    +0.116 C 
ATOM      2  N   UNL     1       3.194   6.173  -2.048  0.00  0.00    -0.203 NA
ATOM      3  C   UNL     1       3.848   6.836  -3.146  0.00  0.00    +0.244 C 
ATOM      4  O   UNL     1       5.043   6.573  -3.482  0.00  0.00    -0.273 OA
ATOM      5  C   UNL     1       2.770   6.966  -4.187  0.00  0.00    +0.120 C 
ATOM      6  C   UNL     1       3.101   5.468  -4.893  0.00  0.00    +0.167 C 
ATOM      7  O   UNL     1       4.296   6.068  -5.675  0.00  0.00    -0.222 OA
ATOM      8  C   UNL     1       1.997   5.684  -6.136  0.00  0.00    +0.080 C 
ATOM      9  C   UNL     1       1.867   4.267  -6.601  0.00  0.00    +0.010 C 
ATOM     10  C   UNL     1       2.568   6.589  -7.132  0.00  0.00    +0.010 C 
ATOM     11  C   UNL     1       0.760   6.186  -5.446  0.00  0.00    +0.154 C 
ATOM     12  O   UNL     1       0.545   7.364  -5.714  0.00  0.00    -0.296 OA
ATOM     13  C   UNL     1      -0.509   5.197  -5.606  0.00  0.00    +0.088 C 
ATOM     14  C   UNL     1      -0.590   5.473  -7.221  0.00  0.00    +0.010 C 
ATOM     15  C   UNL     1      -1.689   6.414  -5.256  0.00  0.00    +0.159 C 
ATOM     16  O   UNL     1      -2.734   5.719  -6.106  0.00  0.00    -0.223 OA
ATOM     17  C   UNL     1      -2.268   5.619  -3.836  0.00  0.00    +0.031 C 
ATOM     18  C   UNL     1      -0.798   5.191  -3.265  0.00  0.00    +0.003 C 
ATOM     19  C   UNL     1      -2.243   7.029  -3.004  0.00  0.00    +0.003 C 
ATOM     20  C   UNL     1      -2.270   6.718  -1.558  0.00  0.00    +0.003 C 
ATOM     21  C   UNL     1      -0.971   6.583  -0.872  0.00  0.00    +0.030 C 
ATOM     22  C   UNL     1      -0.766   7.551   0.135  0.00  0.00    +0.118 C 
ATOM     23  C   UNL     1       0.856   7.839   0.380  0.00  0.00    +0.142 C 
ATOM     24  C   UNL     1      -1.616   8.584   0.724  0.00  0.00    +0.032 C 
ATOM     25  O   UNL     1       0.003   6.894   1.425  0.00  0.00    -0.356 OA
ATOM     26  C   UNL     1       1.371   6.474  -0.560  0.00  0.00    +0.058 C 
ENDROOT
BRANCH   1  28
ATOM     27  C   UNL     1       4.143   6.686  -0.063  0.00  0.00    +0.028 C 
ATOM     28  C   UNL     1       3.574   6.955   0.080  0.00  0.00    -0.023 C 
ATOM     29  C   UNL     1       3.306   7.632   1.193  0.00  0.00    +0.013 C 
BRANCH  29  30
ATOM     30  C   UNL     1       4.468   7.925   2.051  0.00  0.00    +0.087 A 
ATOM     31  N   UNL     1       4.891   7.222   3.134  0.00  0.00    -0.243 NA
ATOM     32  C   UNL     1       6.235   7.169   3.192  0.00  0.00    +0.089 A 
ATOM     33  C   UNL     1       7.097   6.079   3.750  0.00  0.00    +0.059 C 
ATOM     34  S   UNL     1       6.622   8.755   2.667  0.00  0.00    -0.070 S 
ATOM     35  C   UNL     1       5.071   9.181   2.060  0.00  0.00    +0.056 A 
ENDBRANCH  29  30
ENDBRANCH   1  28
TORSDOF 2
ENDMDL
MODEL 4
REMARK VINA RESULT:      -8.7      4.170      8.537
REMARK  Name = 
REMARK  2 active torsions:
REMARK  status: ('A' for Active; 'I' for Inactive)
REMARK    1  A    between atoms: C_2  and  C_10
REMARK    2  A    between atoms: C_3  and  C_4
REMARK                            x       y       z     vdW  Elec       q    Type
REMARK                         _______ _______ _______ _____ _____    ______ ____
ROOT
ATOM      1  C   UNL     1       3.690   4.854  -7.186  0.00  0.00    +0.116 C 
ATOM      2  N   UNL     1       4.087   5.922  -6.059  0.00  0.00    -0.203 NA
ATOM      3  C   UNL     1       4.446   5.088  -4.941  0.00  0.00    +0.244 C 
ATOM      4  O   UNL     1       5.539   5.232  -4.311  0.00  0.00    -0.273 OA
ATOM      5  C   UNL     1       3.153   4.896  -4.199  0.00  0.00    +0.120 C 
ATOM      6  C   UNL     1       3.357   6.270  -3.240  0.00  0.00    +0.167 C 
ATOM      7  O   UNL     1       4.318   5.504  -2.296  0.00  0.00    -0.222 OA
ATOM      8  C   UNL     1       1.988   5.969  -2.320  0.00  0.00    +0.080 C 
ATOM      9  C   UNL     1       1.799   7.323  -1.708  0.00  0.00    +0.010 C 
ATOM     10  C   UNL     1       2.283   4.913  -1.353  0.00  0.00    +0.010 C 
ATOM     11  C   UNL     1       0.931   5.635  -3.334  0.00  0.00    +0.154 C 
ATOM     12  O   UNL     1       0.622   4.449  -3.284  0.00  0.00    -0.296 OA
ATOM     13  C   UNL     1      -0.309   6.674  -3.332  0.00  0.00    +0.088 C 
ATOM     14  C   UNL     1      -0.772   6.203  -1.830  0.00  0.00    +0.010 C 
ATOM     15  C   UNL     1      -1.413   5.585  -4.102  0.00  0.00    +0.159 C 
ATOM     16  O   UNL     1      -2.605   6.232  -3.425  0.00  0.00    -0.223 OA
ATOM     17  C   UNL     1      -1.620   6.585  -5.496  0.00  0.00    +0.031 C 
ATOM     18  C   UNL     1      -0.045   6.990  -5.655  0.00  0.00    +0.003 C 
ATOM     19  C   UNL     1      -1.447   5.292  -6.483  0.00  0.00    +0.003 C 
ATOM     20  C   UNL     1      -1.127   5.782  -7.842  0.00  0.00    +0.003 C 
ATOM     21  C   UNL     1       0.299   5.921  -8.192  0.00  0.00    +0.030 C 
ATOM     22  C   UNL     1       0.703   5.075  -9.248  0.00  0.00    +0.118 C 
ATOM     23  C   UNL     1       2.327   4.721  -9.156  0.00  0.00    +0.142 C 
ATOM     24  C   UNL     1      -0.020   4.178 -10.148  0.00  0.00    +0.032 C 
ATOM     25  O   UNL     1       1.771   5.839 -10.229  0.00  0.00    -0.356 OA
ATOM     26  C   UNL     1       2.652   5.922  -7.947  0.00  0.00    +0.058 C 
ENDROOT
BRANCH   1  28
ATOM     27  C   UNL     1       5.399   4.968  -8.260  0.00  0.00    +0.028 C 
ATOM     28  C   UNL     1       4.927   5.389  -8.131  0.00  0.00    -0.023 C 
ATOM     29  C   UNL     1       4.584   6.417  -8.902  0.00  0.00    +0.013 C 
BRANCH  29  30
ATOM     30  C   UNL     1       5.226   6.455 -10.228  0.00  0.00    +0.087 A 
ATOM     31  N   UNL     1       6.495   6.841 -10.519  0.00  0.00    -0.243 NA
ATOM     32  C   UNL     1       7.036   6.072 -11.483  0.00  0.00    +0.089 A 
ATOM     33  C   UNL     1       8.473   5.697 -11.674  0.00  0.00    +0.059 C 
ATOM     34  S   UNL     1       5.671   5.860 -12.499  0.00  0.00    -0.070 S 
ATOM     35  C   UNL     1       4.477   6.433 -11.403  0.00  0.00    +0.056 A 
ENDBRANCH  29  30
ENDBRANCH   1  28
TORSDOF 2
ENDMDL
MODEL 5
REMARK VINA RESULT:      -8.7      1.671      4.734
REMARK  Name = 
REMARK  2 active torsions:
REMARK  status: ('A' for Active; 'I' for Inactive)
REMARK    1  A    between atoms: C_2  and  C_10
REMARK    2  A    between atoms: C_3  and  C_4
REMARK                            x       y       z     vdW  Elec       q    Type
REMARK                         _______ _______ _______ _____ _____    ______ ____
ROOT
ATOM      1  C   UNL     1      -0.005   5.159  -2.837  0.00  0.00    +0.116 C 
ATOM      2  N   UNL     1      -0.530   6.215  -3.922  0.00  0.00    -0.203 NA
ATOM      3  C   UNL     1      -1.225   5.382  -4.869  0.00  0.00    +0.244 C 
ATOM      4  O   UNL     1      -2.411   5.631  -5.249  0.00  0.00    -0.273 OA
ATOM      5  C   UNL     1      -0.165   4.999  -5.864  0.00  0.00    +0.120 C 
ATOM      6  C   UNL     1      -0.432   6.344  -6.851  0.00  0.00    +0.167 C 
ATOM      7  O   UNL     1      -1.662   5.660  -7.499  0.00  0.00    -0.222 OA
ATOM      8  C   UNL     1       0.648   5.835  -8.028  0.00  0.00    +0.080 C 
ATOM      9  C   UNL     1       0.840   7.126  -8.762  0.00  0.00    +0.010 C 
ATOM     10  C   UNL     1       0.025   4.781  -8.826  0.00  0.00    +0.010 C 
ATOM     11  C   UNL     1       1.867   5.419  -7.253  0.00  0.00    +0.154 C 
ATOM     12  O   UNL     1       2.024   4.203  -7.284  0.00  0.00    -0.296 OA
ATOM     13  C   UNL     1       3.179   6.296  -7.605  0.00  0.00    +0.088 C 
ATOM     14  C   UNL     1       3.231   5.705  -9.134  0.00  0.00    +0.010 C 
ATOM     15  C   UNL     1       4.304   5.116  -7.023  0.00  0.00    +0.159 C 
ATOM     16  O   UNL     1       5.373   5.580  -7.992  0.00  0.00    -0.223 OA
ATOM     17  C   UNL     1       4.934   6.145  -5.786  0.00  0.00    +0.031 C 
ATOM     18  C   UNL     1       3.491   6.747  -5.310  0.00  0.00    +0.003 C 
ATOM     19  C   UNL     1       4.851   4.929  -4.694  0.00  0.00    +0.003 C 
ATOM     20  C   UNL     1       4.907   5.516  -3.337  0.00  0.00    +0.003 C 
ATOM     21  C   UNL     1       3.622   5.845  -2.690  0.00  0.00    +0.030 C 
ATOM     22  C   UNL     1       3.381   5.104  -1.513  0.00  0.00    +0.118 C 
ATOM     23  C   UNL     1       1.751   4.948  -1.215  0.00  0.00    +0.142 C 
ATOM     24  C   UNL     1       4.188   4.167  -0.733  0.00  0.00    +0.032 C 
ATOM     25  O   UNL     1       2.656   6.038  -0.377  0.00  0.00    -0.356 OA
ATOM     26  C   UNL     1       1.291   6.125  -2.405  0.00  0.00    +0.058 C 
ENDROOT
BRANCH   1  28
ATOM     27  C   UNL     1      -1.154   5.508  -1.211  0.00  0.00    +0.028 C 
ATOM     28  C   UNL     1      -0.926   5.885  -1.683  0.00  0.00    -0.023 C 
ATOM     29  C   UNL     1      -0.690   7.189  -1.574  0.00  0.00    +0.013 C 
BRANCH  29  30
ATOM     30  C   UNL     1      -0.791   7.739  -0.210  0.00  0.00    +0.087 A 
ATOM     31  N   UNL     1      -1.833   8.426   0.327  0.00  0.00    -0.243 NA
ATOM     32  C   UNL     1      -2.030   8.093   1.617  0.00  0.00    +0.089 A 
ATOM     33  C   UNL     1      -3.317   8.069   2.382  0.00  0.00    +0.059 C 
ATOM     34  S   UNL     1      -0.404   7.939   2.140  0.00  0.00    -0.070 S 
ATOM     35  C   UNL     1       0.336   7.926   0.588  0.00  0.00    +0.056 A 
ENDBRANCH  29  30
ENDBRANCH   1  28
TORSDOF 2
ENDMDL
MODEL 6
REMARK VINA RESULT:      -8.6      3.484      7.598
REMARK  Name = 
REMARK  2 active torsions:
REMARK  status: ('A' for Active; 'I' for Inactive)
REMARK    1  A    between atoms: C_2  and  C_10
REMARK    2  A    between atoms: C_3  and  C_4
REMARK                            x       y       z     vdW  Elec       q    Type
REMARK                         _______ _______ _______ _____ _____    ______ ____
ROOT
ATOM      1  C   UNL     1       1.090   5.953  -5.294  0.00  0.00    +0.116 C 
ATOM      2  N   UNL     1       1.956   7.175  -4.722  0.00  0.00    -0.203 NA
ATOM      3  C   UNL     1       3.079   6.512  -4.112  0.00  0.00    +0.244 C 
ATOM      4  O   UNL     1       4.279   6.842  -4.363  0.00  0.00    -0.273 OA
ATOM      5  C   UNL     1       2.631   6.265  -2.698  0.00  0.00    +0.120 C 
ATOM      6  C   UNL     1       3.198   7.750  -2.128  0.00  0.00    +0.167 C 
ATOM      7  O   UNL     1       4.644   7.200  -2.047  0.00  0.00    -0.222 OA
ATOM      8  C   UNL     1       2.827   7.406  -0.530  0.00  0.00    +0.080 C 
ATOM      9  C   UNL     1       2.877   8.790   0.039  0.00  0.00    +0.010 C 
ATOM     10  C   UNL     1       3.838   6.501   0.012  0.00  0.00    +0.010 C 
ATOM     11  C   UNL     1       1.432   6.850  -0.588  0.00  0.00    +0.154 C 
ATOM     12  O   UNL     1       1.417   5.650  -0.333  0.00  0.00    -0.296 OA
ATOM     13  C   UNL     1       0.353   7.744   0.221  0.00  0.00    +0.088 C 
ATOM     14  C   UNL     1       1.060   7.394   1.659  0.00  0.00    +0.010 C 
ATOM     15  C   UNL     1      -0.802   6.464   0.385  0.00  0.00    +0.159 C 
ATOM     16  O   UNL     1      -1.345   7.049   1.673  0.00  0.00    -0.223 OA
ATOM     17  C   UNL     1      -2.018   7.278  -0.535  0.00  0.00    +0.031 C 
ATOM     18  C   UNL     1      -1.014   7.829  -1.700  0.00  0.00    +0.003 C 
ATOM     19  C   UNL     1      -2.334   5.910  -1.376  0.00  0.00    +0.003 C 
ATOM     20  C   UNL     1      -3.058   6.280  -2.612  0.00  0.00    +0.003 C 
ATOM     21  C   UNL     1      -2.248   6.532  -3.819  0.00  0.00    +0.030 C 
ATOM     22  C   UNL     1      -2.507   5.624  -4.869  0.00  0.00    +0.118 C 
ATOM     23  C   UNL     1      -1.187   5.459  -5.869  0.00  0.00    +0.142 C 
ATOM     24  C   UNL     1      -3.493   4.561  -5.057  0.00  0.00    +0.032 C 
ATOM     25  O   UNL     1      -2.470   6.387  -6.319  0.00  0.00    -0.356 OA
ATOM     26  C   UNL     1      -0.341   6.814  -5.190  0.00  0.00    +0.058 C 
ENDROOT
BRANCH   1  28
ATOM     27  C   UNL     1       1.459   7.137  -6.891  0.00  0.00    +0.028 C 
ATOM     28  C   UNL     1       1.310   6.512  -6.826  0.00  0.00    -0.023 C 
ATOM     29  C   UNL     1       1.643   5.553  -7.685  0.00  0.00    +0.013 C 
BRANCH  29  30
ATOM     30  C   UNL     1       2.575   5.955  -8.754  0.00  0.00    +0.087 A 
ATOM     31  N   UNL     1       3.838   6.434  -8.608  0.00  0.00    -0.243 NA
ATOM     32  C   UNL     1       4.658   5.960  -9.565  0.00  0.00    +0.089 A 
ATOM     33  C   UNL     1       6.127   5.683  -9.474  0.00  0.00    +0.059 C 
ATOM     34  S   UNL     1       3.598   5.991 -10.913  0.00  0.00    -0.070 S 
ATOM     35  C   UNL     1       2.132   6.225 -10.047  0.00  0.00    +0.056 A 
ENDBRANCH  29  30
ENDBRANCH   1  28
TORSDOF 2
ENDMDL
MODEL 7
REMARK VINA RESULT:      -8.2      3.344      7.540
REMARK  Name = 
REMARK  2 active torsions:
REMARK  status: ('A' for Active; 'I' for Inactive)
REMARK    1  A    between atoms: C_2  and  C_10
REMARK    2  A    between atoms: C_3  and  C_4
REMARK                            x       y       z     vdW  Elec       q    Type
REMARK                         _______ _______ _______ _____ _____    ______ ____
ROOT
ATOM      1  C   UNL     1       1.081   5.898  -4.792  0.00  0.00    +0.116 C 
ATOM      2  N   UNL     1       2.061   7.113  -4.427  0.00  0.00    -0.203 NA
ATOM      3  C   UNL     1       3.202   6.444  -3.860  0.00  0.00    +0.244 C 
ATOM      4  O   UNL     1       4.387   6.675  -4.252  0.00  0.00    -0.273 OA
ATOM      5  C   UNL     1       2.883   6.358  -2.393  0.00  0.00    +0.120 C 
ATOM      6  C   UNL     1       3.578   7.853  -2.029  0.00  0.00    +0.167 C 
ATOM      7  O   UNL     1       4.995   7.226  -2.028  0.00  0.00    -0.222 OA
ATOM      8  C   UNL     1       3.348   7.684  -0.377  0.00  0.00    +0.080 C 
ATOM      9  C   UNL     1       3.525   9.110   0.044  0.00  0.00    +0.010 C 
ATOM     10  C   UNL     1       4.360   6.774   0.157  0.00  0.00    +0.010 C 
ATOM     11  C   UNL     1       1.927   7.212  -0.250  0.00  0.00    +0.154 C 
ATOM     12  O   UNL     1       1.875   6.044   0.123  0.00  0.00    -0.296 OA
ATOM     13  C   UNL     1       0.981   8.241   0.562  0.00  0.00    +0.088 C 
ATOM     14  C   UNL     1       1.806   7.986   1.956  0.00  0.00    +0.010 C 
ATOM     15  C   UNL     1      -0.217   7.056   0.958  0.00  0.00    +0.159 C 
ATOM     16  O   UNL     1      -0.601   7.791   2.226  0.00  0.00    -0.223 OA
ATOM     17  C   UNL     1      -1.474   7.851   0.078  0.00  0.00    +0.031 C 
ATOM     18  C   UNL     1      -0.561   8.229  -1.224  0.00  0.00    +0.003 C 
ATOM     19  C   UNL     1      -1.941   6.432  -0.590  0.00  0.00    +0.003 C 
ATOM     20  C   UNL     1      -2.763   6.728  -1.785  0.00  0.00    +0.003 C 
ATOM     21  C   UNL     1      -2.062   6.815  -3.080  0.00  0.00    +0.030 C 
ATOM     22  C   UNL     1      -2.469   5.830  -4.006  0.00  0.00    +0.118 C 
ATOM     23  C   UNL     1      -1.263   5.491  -5.103  0.00  0.00    +0.142 C 
ATOM     24  C   UNL     1      -3.522   4.816  -3.996  0.00  0.00    +0.032 C 
ATOM     25  O   UNL     1      -2.535   6.449  -5.522  0.00  0.00    -0.356 OA
ATOM     26  C   UNL     1      -0.287   6.850  -4.643  0.00  0.00    +0.058 C 
ENDROOT
BRANCH   1  28
ATOM     27  C   UNL     1       1.326   6.908  -6.526  0.00  0.00    +0.028 C 
ATOM     28  C   UNL     1       1.179   6.296  -6.386  0.00  0.00    -0.023 C 
ATOM     29  C   UNL     1       1.433   5.250  -7.167  0.00  0.00    +0.013 C 
BRANCH  29  30
ATOM     30  C   UNL     1       2.278   5.527  -8.343  0.00  0.00    +0.087 A 
ATOM     31  N   UNL     1       2.034   5.181  -9.633  0.00  0.00    -0.243 NA
ATOM     32  C   UNL     1       2.420   6.150 -10.485  0.00  0.00    +0.089 A 
ATOM     33  C   UNL     1       1.829   6.506 -11.813  0.00  0.00    +0.059 C 
ATOM     34  S   UNL     1       3.865   6.666  -9.719  0.00  0.00    -0.070 S 
ATOM     35  C   UNL     1       3.620   5.877  -8.211  0.00  0.00    +0.056 A 
ENDBRANCH  29  30
ENDBRANCH   1  28
TORSDOF 2
ENDMDL
MODEL 8
REMARK VINA RESULT:      -7.9      6.952     11.473
REMARK  Name = 
REMARK  2 active torsions:
REMARK  status: ('A' for Active; 'I' for Inactive)
REMARK    1  A    between atoms: C_2  and  C_10
REMARK    2  A    between atoms: C_3  and  C_4
REMARK                            x       y       z     vdW  Elec       q    Type
REMARK                         _______ _______ _______ _____ _____    ______ ____
ROOT
ATOM      1  C   UNL     1       4.715   4.990 -12.189  0.00  0.00    +0.116 C 
ATOM      2  N   UNL     1       5.153   6.100 -11.120  0.00  0.00    -0.203 NA
ATOM      3  C   UNL     1       5.807   5.322 -10.100  0.00  0.00    +0.244 C 
ATOM      4  O   UNL     1       6.963   5.614  -9.662  0.00  0.00    -0.273 OA
ATOM      5  C   UNL     1       4.698   4.955  -9.154  0.00  0.00    +0.120 C 
ATOM      6  C   UNL     1       4.878   6.343  -8.210  0.00  0.00    +0.167 C 
ATOM      7  O   UNL     1       6.081   5.715  -7.463  0.00  0.00    -0.222 OA
ATOM      8  C   UNL     1       3.740   5.856  -7.078  0.00  0.00    +0.080 C 
ATOM      9  C   UNL     1       3.478   7.171  -6.410  0.00  0.00    +0.010 C 
ATOM     10  C   UNL     1       4.337   4.850  -6.201  0.00  0.00    +0.010 C 
ATOM     11  C   UNL     1       2.579   5.382  -7.905  0.00  0.00    +0.154 C 
ATOM     12  O   UNL     1       2.446   4.164  -7.833  0.00  0.00    -0.296 OA
ATOM     13  C   UNL     1       1.230   6.241  -7.667  0.00  0.00    +0.088 C 
ATOM     14  C   UNL     1       1.100   5.710  -6.120  0.00  0.00    +0.010 C 
ATOM     15  C   UNL     1       0.167   5.012  -8.265  0.00  0.00    +0.159 C 
ATOM     16  O   UNL     1      -0.967   5.489  -7.379  0.00  0.00    -0.223 OA
ATOM     17  C   UNL     1      -0.410   5.976  -9.578  0.00  0.00    +0.031 C 
ATOM     18  C   UNL     1       1.046   6.593  -9.993  0.00  0.00    +0.003 C 
ATOM     19  C   UNL     1      -0.236   4.719 -10.612  0.00  0.00    +0.003 C 
ATOM     20  C   UNL     1      -0.224   5.251 -11.993  0.00  0.00    +0.003 C 
ATOM     21  C   UNL     1       1.090   5.583 -12.577  0.00  0.00    +0.030 C 
ATOM     22  C   UNL     1       1.416   4.802 -13.706  0.00  0.00    +0.118 C 
ATOM     23  C   UNL     1       3.064   4.673 -13.901  0.00  0.00    +0.142 C 
ATOM     24  C   UNL     1       0.677   3.816 -14.492  0.00  0.00    +0.032 C 
ATOM     25  O   UNL     1       2.187   5.706 -14.835  0.00  0.00    -0.356 OA
ATOM     26  C   UNL     1       3.427   5.907 -12.736  0.00  0.00    +0.058 C 
ENDROOT
BRANCH   1  28
ATOM     27  C   UNL     1       6.029   5.294 -13.695  0.00  0.00    +0.028 C 
ATOM     28  C   UNL     1       5.688   5.690 -13.316  0.00  0.00    -0.023 C 
ATOM     29  C   UNL     1       5.299   6.918 -13.647  0.00  0.00    +0.013 C 
BRANCH  29  30
ATOM     30  C   UNL     1       5.521   7.295 -15.055  0.00  0.00    +0.087 A 
ATOM     31  N   UNL     1       6.582   7.967 -15.570  0.00  0.00    -0.243 NA
ATOM     32  C   UNL     1       6.930   7.485 -16.779  0.00  0.00    +0.089 A 
ATOM     33  C   UNL     1       8.291   7.438 -17.402  0.00  0.00    +0.059 C 
ATOM     34  S   UNL     1       5.378   7.172 -17.437  0.00  0.00    -0.070 S 
ATOM     35  C   UNL     1       4.478   7.314 -15.979  0.00  0.00    +0.056 A 
ENDBRANCH  29  30
ENDBRANCH   1  28
TORSDOF 2
ENDMDL
MODEL 9
REMARK VINA RESULT:      -7.8      3.771      8.854
REMARK  Name = 
REMARK  2 active torsions:
REMARK  status: ('A' for Active; 'I' for Inactive)
REMARK    1  A    between atoms: C_2  and  C_10
REMARK    2  A    between atoms: C_3  and  C_4
REMARK                            x       y       z     vdW  Elec       q    Type
REMARK                         _______ _______ _______ _____ _____    ______ ____
ROOT
ATOM      1  C   UNL     1       1.623   6.583  -6.262  0.00  0.00    +0.116 C 
ATOM      2  N   UNL     1       0.428   5.542  -6.022  0.00  0.00    -0.203 NA
ATOM      3  C   UNL     1      -0.743   6.377  -6.105  0.00  0.00    +0.244 C 
ATOM      4  O   UNL     1      -1.729   6.089  -6.851  0.00  0.00    -0.273 OA
ATOM      5  C   UNL     1      -0.961   6.839  -4.691  0.00  0.00    +0.120 C 
ATOM      6  C   UNL     1      -1.930   5.519  -4.278  0.00  0.00    +0.167 C 
ATOM      7  O   UNL     1      -3.159   6.171  -4.961  0.00  0.00    -0.222 OA
ATOM      8  C   UNL     1      -2.287   6.114  -2.752  0.00  0.00    +0.080 C 
ATOM      9  C   UNL     1      -2.788   4.859  -2.108  0.00  0.00    +0.010 C 
ATOM     10  C   UNL     1      -3.294   7.167  -2.871  0.00  0.00    +0.010 C 
ATOM     11  C   UNL     1      -0.956   6.556  -2.210  0.00  0.00    +0.154 C 
ATOM     12  O   UNL     1      -0.889   7.778  -2.130  0.00  0.00    -0.296 OA
ATOM     13  C   UNL     1      -0.506   5.748  -0.883  0.00  0.00    +0.088 C 
ATOM     14  C   UNL     1      -1.735   6.394  -0.008  0.00  0.00    +0.010 C 
ATOM     15  C   UNL     1       0.615   6.956  -0.351  0.00  0.00    +0.159 C 
ATOM     16  O   UNL     1       0.420   6.572   1.102  0.00  0.00    -0.223 OA
ATOM     17  C   UNL     1       1.987   5.913  -0.476  0.00  0.00    +0.031 C 
ATOM     18  C   UNL     1       1.560   5.233  -1.899  0.00  0.00    +0.003 C 
ATOM     19  C   UNL     1       2.844   7.086  -1.228  0.00  0.00    +0.003 C 
ATOM     20  C   UNL     1       3.993   6.456  -1.917  0.00  0.00    +0.003 C 
ATOM     21  C   UNL     1       3.797   6.050  -3.322  0.00  0.00    +0.030 C 
ATOM     22  C   UNL     1       4.633   6.739  -4.227  0.00  0.00    +0.118 C 
ATOM     23  C   UNL     1       3.955   6.813  -5.746  0.00  0.00    +0.142 C 
ATOM     24  C   UNL     1       5.736   7.683  -4.056  0.00  0.00    +0.032 C 
ATOM     25  O   UNL     1       5.155   5.736  -5.414  0.00  0.00    -0.356 OA
ATOM     26  C   UNL     1       2.710   5.659  -5.386  0.00  0.00    +0.058 C 
ENDROOT
BRANCH   1  28
ATOM     27  C   UNL     1       1.744   5.223  -7.753  0.00  0.00    +0.028 C 
ATOM     28  C   UNL     1       2.050   5.779  -7.632  0.00  0.00    -0.023 C 
ATOM     29  C   UNL     1       2.587   6.573  -8.554  0.00  0.00    +0.013 C 
BRANCH  29  30
ATOM     30  C   UNL     1       2.278   6.220  -9.952  0.00  0.00    +0.087 A 
ATOM     31  N   UNL     1       1.059   6.221 -10.552  0.00  0.00    -0.243 NA
ATOM     32  C   UNL     1       1.136   6.661 -11.822  0.00  0.00    +0.089 A 
ATOM     33  C   UNL     1       0.101   7.402 -12.611  0.00  0.00    +0.059 C 
ATOM     34  S   UNL     1       2.618   5.943 -12.301  0.00  0.00    -0.070 S 
ATOM     35  C   UNL     1       3.171   5.493 -10.736  0.00  0.00    +0.056 A 
ENDBRANCH  29  30
ENDBRANCH   1  28
TORSDOF 2
ENDMDL
