MODEL 1
REMARK VINA RESULT:      -6.5      0.000      0.000
REMARK  Name = 
REMARK  10 active torsions:
REMARK  status: ('A' for Active; 'I' for Inactive)
REMARK    1  A    between atoms: C_2  and  O_3
REMARK    2  A    between atoms: O_3  and  C_4
REMARK    3  A    between atoms: C_4  and  C_6
REMARK    4  A    between atoms: C_7  and  C_8
REMARK    5  A    between atoms: C_8  and  O_9
REMARK    6  A    between atoms: O_9  and  C_10
REMARK    7  A    between atoms: C_10  and  C_11
REMARK    8  A    between atoms: C_16  and  C_17
REMARK    9  A    between atoms: C_17  and  O_19
REMARK   10  A    between atoms: C_21  and  C_22
REMARK                            x       y       z     vdW  Elec       q    Type
REMARK                         _______ _______ _______ _____ _____    ______ ____
ROOT
ATOM      1  C   UNL     1       1.274   6.068  -3.267  0.00  0.00    +0.075 C 
ATOM      2  C   UNL     1       0.679   4.948  -4.320  0.00  0.00    +0.082 C 
ATOM      3  C   UNL     1      -0.801   5.646  -4.281  0.00  0.00    +0.073 C 
ATOM      4  C   UNL     1      -1.395   5.165  -3.187  0.00  0.00    +0.051 C 
ATOM      5  C   UNL     1      -2.877   5.127  -3.199  0.00  0.00    +0.049 C 
ATOM      6  N   UNL     1      -0.633   5.355  -1.986  0.00  0.00    -0.219 NA
ATOM      7  C   UNL     1       0.619   6.044  -2.107  0.00  0.00    +0.080 C 
ENDROOT
BRANCH   2   8
ATOM      8  C   UNL     1       1.168   5.769  -5.650  0.00  0.00    -0.003 A 
ATOM      9  C   UNL     1       2.021   5.050  -6.454  0.00  0.00    +0.054 A 
ATOM     10 CL   UNL     1       2.032   3.315  -6.476  0.00  0.00    -0.083 Cl
ATOM     11  C   UNL     1       2.989   5.770  -7.140  0.00  0.00    +0.011 A 
ATOM     12  C   UNL     1       2.777   7.132  -7.312  0.00  0.00    +0.001 A 
ATOM     13  C   UNL     1       1.691   7.758  -6.711  0.00  0.00    -0.000 A 
ATOM     14  C   UNL     1       1.149   7.110  -5.604  0.00  0.00    -0.003 A 
ENDBRANCH   2   8
BRANCH   1  15
ATOM     15  C   UNL     1       2.722   6.129  -3.274  0.00  0.00    +0.339 C 
ATOM     16  O   UNL     1       3.292   5.118  -2.764  0.00  0.00    -0.245 OA
BRANCH  15  17
ATOM     17  O   UNL     1       3.279   7.353  -2.982  0.00  0.00    -0.446 OA
BRANCH  17  19
ATOM     18  C   UNL     1       5.209   7.605  -4.418  0.00  0.00    +0.051 C 
ATOM     19  C   UNL     1       4.652   7.644  -3.010  0.00  0.00    +0.209 C 
ENDBRANCH  17  19
ENDBRANCH  15  17
ENDBRANCH   1  15
BRANCH   3  20
ATOM     20  C   UNL     1      -1.425   6.091  -5.458  0.00  0.00    +0.339 C 
ATOM     21  O   UNL     1      -1.674   5.445  -6.511  0.00  0.00    -0.245 OA
BRANCH  20  22
ATOM     22  O   UNL     1      -2.070   7.334  -5.397  0.00  0.00    -0.442 OA
ATOM     23  C   UNL     1      -1.796   8.339  -4.471  0.00  0.00    +0.256 C 
ENDBRANCH  20  22
ENDBRANCH   3  20
BRANCH   7  24
ATOM     24  C   UNL     1       1.129   6.942  -1.030  0.00  0.00    +0.185 C 
BRANCH  24  25
ATOM     25  O   UNL     1       0.858   6.357   0.222  0.00  0.00    -0.346 OA
BRANCH  25  26
ATOM     26  C   UNL     1       0.329   7.301   1.095  0.00  0.00    +0.163 C 
BRANCH  26  27
ATOM     27  C   UNL     1      -1.161   7.424   1.015  0.00  0.00    +0.141 C 
ATOM     28  N   UNL     1      -1.550   8.697   0.458  0.00  0.00    -0.129 NA
ENDBRANCH  26  27
ENDBRANCH  25  26
ENDBRANCH  24  25
ENDBRANCH   7  24
TORSDOF 10
ENDMDL
MODEL 2
REMARK VINA RESULT:      -6.2      1.530      1.882
REMARK  Name = 
REMARK  10 active torsions:
REMARK  status: ('A' for Active; 'I' for Inactive)
REMARK    1  A    between atoms: C_2  and  O_3
REMARK    2  A    between atoms: O_3  and  C_4
REMARK    3  A    between atoms: C_4  and  C_6
REMARK    4  A    between atoms: C_7  and  C_8
REMARK    5  A    between atoms: C_8  and  O_9
REMARK    6  A    between atoms: O_9  and  C_10
REMARK    7  A    between atoms: C_10  and  C_11
REMARK    8  A    between atoms: C_16  and  C_17
REMARK    9  A    between atoms: C_17  and  O_19
REMARK   10  A    between atoms: C_21  and  C_22
REMARK                            x       y       z     vdW  Elec       q    Type
REMARK                         _______ _______ _______ _____ _____    ______ ____
ROOT
ATOM      1  C   UNL     1       0.758   5.793  -1.976  0.00  0.00    +0.075 C 
ATOM      2  C   UNL     1       0.609   4.914  -3.362  0.00  0.00    +0.082 C 
ATOM      3  C   UNL     1      -0.679   5.808  -3.832  0.00  0.00    +0.073 C 
ATOM      4  C   UNL     1      -1.730   5.283  -3.199  0.00  0.00    +0.051 C 
ATOM      5  C   UNL     1      -3.052   5.463  -3.846  0.00  0.00    +0.049 C 
ATOM      6  N   UNL     1      -1.567   5.207  -1.775  0.00  0.00    -0.219 NA
ATOM      7  C   UNL     1      -0.343   5.717  -1.229  0.00  0.00    +0.080 C 
ENDROOT
BRANCH   2   8
ATOM      8  C   UNL     1       1.695   5.818  -4.190  0.00  0.00    -0.003 A 
ATOM      9  C   UNL     1       2.327   5.127  -5.196  0.00  0.00    +0.054 A 
ATOM     10 CL   UNL     1       1.609   3.747  -5.967  0.00  0.00    -0.083 Cl
ATOM     11  C   UNL     1       3.639   5.484  -5.473  0.00  0.00    +0.011 A 
ATOM     12  C   UNL     1       4.070   6.734  -5.045  0.00  0.00    +0.001 A 
ATOM     13  C   UNL     1       3.242   7.536  -4.268  0.00  0.00    -0.000 A 
ATOM     14  C   UNL     1       2.235   6.878  -3.569  0.00  0.00    -0.003 A 
ENDBRANCH   2   8
BRANCH   1  15
ATOM     15  C   UNL     1       2.059   5.644  -1.355  0.00  0.00    +0.339 C 
ATOM     16  O   UNL     1       2.270   4.503  -0.845  0.00  0.00    -0.245 OA
BRANCH  15  17
ATOM     17  O   UNL     1       2.517   6.725  -0.637  0.00  0.00    -0.446 OA
BRANCH  17  19
ATOM     18  C   UNL     1       4.864   7.238  -0.913  0.00  0.00    +0.051 C 
ATOM     19  C   UNL     1       3.756   6.794   0.018  0.00  0.00    +0.209 C 
ENDBRANCH  17  19
ENDBRANCH  15  17
ENDBRANCH   1  15
BRANCH   3  20
ATOM     20  C   UNL     1      -0.683   6.485  -5.063  0.00  0.00    +0.339 C 
ATOM     21  O   UNL     1      -0.832   6.013  -6.222  0.00  0.00    -0.245 OA
BRANCH  20  22
ATOM     22  O   UNL     1      -0.768   7.883  -5.012  0.00  0.00    -0.442 OA
ATOM     23  C   UNL     1      -1.850   8.607  -4.515  0.00  0.00    +0.256 C 
ENDBRANCH  20  22
ENDBRANCH   3  20
BRANCH   7  24
ATOM     24  C   UNL     1      -0.296   6.387   0.104  0.00  0.00    +0.185 C 
BRANCH  24  25
ATOM     25  O   UNL     1      -0.741   7.716  -0.034  0.00  0.00    -0.346 OA
BRANCH  25  26
ATOM     26  C   UNL     1      -1.895   7.923   0.714  0.00  0.00    +0.163 C 
BRANCH  26  27
ATOM     27  C   UNL     1      -1.857   9.169   1.544  0.00  0.00    +0.141 C 
ATOM     28  N   UNL     1      -0.661   9.932   1.283  0.00  0.00    -0.129 NA
ENDBRANCH  26  27
ENDBRANCH  25  26
ENDBRANCH  24  25
ENDBRANCH   7  24
TORSDOF 10
ENDMDL
MODEL 3
REMARK VINA RESULT:      -6.1      6.436      9.441
REMARK  Name = 
REMARK  10 active torsions:
REMARK  status: ('A' for Active; 'I' for Inactive)
REMARK    1  A    between atoms: C_2  and  O_3
REMARK    2  A    between atoms: O_3  and  C_4
REMARK    3  A    between atoms: C_4  and  C_6
REMARK    4  A    between atoms: C_7  and  C_8
REMARK    5  A    between atoms: C_8  and  O_9
REMARK    6  A    between atoms: O_9  and  C_10
REMARK    7  A    between atoms: C_10  and  C_11
REMARK    8  A    between atoms: C_16  and  C_17
REMARK    9  A    between atoms: C_17  and  O_19
REMARK   10  A    between atoms: C_21  and  C_22
REMARK                            x       y       z     vdW  Elec       q    Type
REMARK                         _______ _______ _______ _____ _____    ______ ____
ROOT
ATOM      1  C   UNL     1       4.338   6.050 -11.026  0.00  0.00    +0.075 C 
ATOM      2  C   UNL     1       3.069   6.733 -10.227  0.00  0.00    +0.082 C 
ATOM      3  C   UNL     1       2.085   5.499 -10.663  0.00  0.00    +0.073 C 
ATOM      4  C   UNL     1       1.669   5.791 -11.897  0.00  0.00    +0.051 C 
ATOM      5  C   UNL     1       0.365   5.220 -12.310  0.00  0.00    +0.049 C 
ATOM      6  N   UNL     1       2.738   6.035 -12.823  0.00  0.00    -0.219 NA
ATOM      7  C   UNL     1       4.077   5.907 -12.325  0.00  0.00    +0.080 C 
ENDROOT
BRANCH   2   8
ATOM      8  C   UNL     1       3.469   6.067  -8.785  0.00  0.00    -0.003 A 
ATOM      9  C   UNL     1       3.145   6.860  -7.709  0.00  0.00    +0.054 A 
ATOM     10 CL   UNL     1       1.875   8.041  -7.775  0.00  0.00    -0.083 Cl
ATOM     11  C   UNL     1       3.982   6.787  -6.604  0.00  0.00    +0.011 A 
ATOM     12  C   UNL     1       4.793   5.665  -6.484  0.00  0.00    +0.001 A 
ATOM     13  C   UNL     1       4.841   4.718  -7.501  0.00  0.00    -0.000 A 
ATOM     14  C   UNL     1       4.456   5.158  -8.763  0.00  0.00    -0.003 A 
ENDBRANCH   2   8
BRANCH   1  15
ATOM     15  C   UNL     1       5.618   6.583 -10.604  0.00  0.00    +0.339 C 
ATOM     16  O   UNL     1       5.792   7.809 -10.879  0.00  0.00    -0.245 OA
BRANCH  15  17
ATOM     17  O   UNL     1       6.707   5.761 -10.780  0.00  0.00    -0.446 OA
BRANCH  17  19
ATOM     18  C   UNL     1       8.735   5.715 -12.097  0.00  0.00    +0.051 C 
ATOM     19  C   UNL     1       8.042   6.188 -10.837  0.00  0.00    +0.209 C 
ENDBRANCH  17  19
ENDBRANCH  15  17
ENDBRANCH   1  15
BRANCH   3  20
ATOM     20  C   UNL     1       1.406   4.736  -9.698  0.00  0.00    +0.339 C 
ATOM     21  O   UNL     1       1.776   3.673  -9.131  0.00  0.00    -0.245 OA
BRANCH  20  22
ATOM     22  O   UNL     1       0.284   5.329  -9.103  0.00  0.00    -0.442 OA
ATOM     23  C   UNL     1      -0.096   5.177  -7.771  0.00  0.00    +0.256 C 
ENDBRANCH  20  22
ENDBRANCH   3  20
BRANCH   7  24
ATOM     24  C   UNL     1       5.188   5.395 -13.180  0.00  0.00    +0.185 C 
BRANCH  24  25
ATOM     25  O   UNL     1       5.212   6.120 -14.387  0.00  0.00    -0.346 OA
BRANCH  25  26
ATOM     26  C   UNL     1       6.235   7.061 -14.369  0.00  0.00    +0.163 C 
BRANCH  26  27
ATOM     27  C   UNL     1       6.654   7.518 -15.731  0.00  0.00    +0.141 C 
ATOM     28  N   UNL     1       5.884   8.661 -16.158  0.00  0.00    -0.129 NA
ENDBRANCH  26  27
ENDBRANCH  25  26
ENDBRANCH  24  25
ENDBRANCH   7  24
TORSDOF 10
ENDMDL
MODEL 4
REMARK VINA RESULT:      -5.8      1.766      2.667
REMARK  Name = 
REMARK  10 active torsions:
REMARK  status: ('A' for Active; 'I' for Inactive)
REMARK    1  A    between atoms: C_2  and  O_3
REMARK    2  A    between atoms: O_3  and  C_4
REMARK    3  A    between atoms: C_4  and  C_6
REMARK    4  A    between atoms: C_7  and  C_8
REMARK    5  A    between atoms: C_8  and  O_9
REMARK    6  A    between atoms: O_9  and  C_10
REMARK    7  A    between atoms: C_10  and  C_11
REMARK    8  A    between atoms: C_16  and  C_17
REMARK    9  A    between atoms: C_17  and  O_19
REMARK   10  A    between atoms: C_21  and  C_22
REMARK                            x       y       z     vdW  Elec       q    Type
REMARK                         _______ _______ _______ _____ _____    ______ ____
ROOT
ATOM      1  C   UNL     1       0.367   6.079  -3.057  0.00  0.00    +0.075 C 
ATOM      2  C   UNL     1       0.644   5.068  -4.328  0.00  0.00    +0.082 C 
ATOM      3  C   UNL     1      -0.182   6.056  -5.339  0.00  0.00    +0.073 C 
ATOM      4  C   UNL     1      -1.469   5.747  -5.169  0.00  0.00    +0.051 C 
ATOM      5  C   UNL     1      -2.372   6.014  -6.314  0.00  0.00    +0.049 C 
ATOM      6  N   UNL     1      -1.905   5.820  -3.803  0.00  0.00    -0.219 NA
ATOM      7  C   UNL     1      -0.936   6.233  -2.829  0.00  0.00    +0.080 C 
ENDROOT
BRANCH   2   8
ATOM      8  C   UNL     1       2.103   5.723  -4.681  0.00  0.00    -0.003 A 
ATOM      9  C   UNL     1       2.979   4.830  -5.253  0.00  0.00    +0.054 A 
ATOM     10 CL   UNL     1       2.438   3.436  -6.135  0.00  0.00    -0.083 Cl
ATOM     11  C   UNL     1       4.326   5.003  -4.966  0.00  0.00    +0.011 A 
ATOM     12  C   UNL     1       4.730   6.250  -4.505  0.00  0.00    +0.001 A 
ATOM     13  C   UNL     1       3.792   7.239  -4.234  0.00  0.00    -0.000 A 
ATOM     14  C   UNL     1       2.496   6.799  -3.983  0.00  0.00    -0.003 A 
ENDBRANCH   2   8
BRANCH   1  15
ATOM     15  C   UNL     1       1.268   5.842  -1.946  0.00  0.00    +0.339 C 
ATOM     16  O   UNL     1       1.084   4.739  -1.348  0.00  0.00    -0.245 OA
BRANCH  15  17
ATOM     17  O   UNL     1       1.547   6.927  -1.148  0.00  0.00    -0.446 OA
BRANCH  17  19
ATOM     18  C   UNL     1       3.474   8.289  -0.617  0.00  0.00    +0.051 C 
ATOM     19  C   UNL     1       2.665   7.047  -0.308  0.00  0.00    +0.209 C 
ENDBRANCH  17  19
ENDBRANCH  15  17
ENDBRANCH   1  15
BRANCH   3  20
ATOM     20  C   UNL     1       0.419   6.577  -6.497  0.00  0.00    +0.339 C 
ATOM     21  O   UNL     1       1.064   7.650  -6.635  0.00  0.00    -0.245 OA
BRANCH  20  22
ATOM     22  O   UNL     1       0.534   5.708  -7.591  0.00  0.00    -0.442 OA
ATOM     23  C   UNL     1       1.379   5.894  -8.682  0.00  0.00    +0.256 C 
ENDBRANCH  20  22
ENDBRANCH   3  20
BRANCH   7  24
ATOM     24  C   UNL     1      -1.318   7.045  -1.636  0.00  0.00    +0.185 C 
BRANCH  24  25
ATOM     25  O   UNL     1      -1.988   6.218  -0.713  0.00  0.00    -0.346 OA
BRANCH  25  26
ATOM     26  C   UNL     1      -1.602   6.529   0.586  0.00  0.00    +0.163 C 
BRANCH  26  27
ATOM     27  C   UNL     1      -1.255   7.972   0.780  0.00  0.00    +0.141 C 
ATOM     28  N   UNL     1      -2.325   8.682   1.437  0.00  0.00    -0.129 NA
ENDBRANCH  26  27
ENDBRANCH  25  26
ENDBRANCH  24  25
ENDBRANCH   7  24
TORSDOF 10
ENDMDL
MODEL 5
REMARK VINA RESULT:      -5.8      3.609      6.707
REMARK  Name = 
REMARK  10 active torsions:
REMARK  status: ('A' for Active; 'I' for Inactive)
REMARK    1  A    between atoms: C_2  and  O_3
REMARK    2  A    between atoms: O_3  and  C_4
REMARK    3  A    between atoms: C_4  and  C_6
REMARK    4  A    between atoms: C_7  and  C_8
REMARK    5  A    between atoms: C_8  and  O_9
REMARK    6  A    between atoms: O_9  and  C_10
REMARK    7  A    between atoms: C_10  and  C_11
REMARK    8  A    between atoms: C_16  and  C_17
REMARK    9  A    between atoms: C_17  and  O_19
REMARK   10  A    between atoms: C_21  and  C_22
REMARK                            x       y       z     vdW  Elec       q    Type
REMARK                         _______ _______ _______ _____ _____    ______ ____
ROOT
ATOM      1  C   UNL     1       1.574   7.881   0.426  0.00  0.00    +0.075 C 
ATOM      2  C   UNL     1       3.139   7.450   0.709  0.00  0.00    +0.082 C 
ATOM      3  C   UNL     1       3.333   6.997  -0.852  0.00  0.00    +0.073 C 
ATOM      4  C   UNL     1       2.840   5.759  -0.930  0.00  0.00    +0.051 C 
ATOM      5  C   UNL     1       3.392   4.891  -1.998  0.00  0.00    +0.049 C 
ATOM      6  N   UNL     1       1.490   5.645  -0.457  0.00  0.00    -0.219 NA
ATOM      7  C   UNL     1       0.852   6.847  -0.004  0.00  0.00    +0.080 C 
ENDROOT
BRANCH   2   8
ATOM      8  C   UNL     1       3.720   8.963   0.471  0.00  0.00    -0.003 A 
ATOM      9  C   UNL     1       4.614   9.362   1.436  0.00  0.00    +0.054 A 
ATOM     10 CL   UNL     1       5.550   8.229   2.361  0.00  0.00    -0.083 Cl
ATOM     11  C   UNL     1       4.630  10.713   1.754  0.00  0.00    +0.011 A 
ATOM     12  C   UNL     1       4.090  11.598   0.829  0.00  0.00    +0.001 A 
ATOM     13  C   UNL     1       3.454  11.123  -0.312  0.00  0.00    -0.000 A 
ATOM     14  C   UNL     1       2.976   9.818  -0.246  0.00  0.00    -0.003 A 
ENDBRANCH   2   8
BRANCH   1  15
ATOM     15  C   UNL     1       1.039   8.755   1.452  0.00  0.00    +0.339 C 
ATOM     16  O   UNL     1       0.980   8.233   2.606  0.00  0.00    -0.245 OA
BRANCH  15  17
ATOM     17  O   UNL     1      -0.029   9.540   1.084  0.00  0.00    -0.446 OA
BRANCH  17  19
ATOM     18  C   UNL     1      -2.261   9.556   2.016  0.00  0.00    +0.051 C 
ATOM     19  C   UNL     1      -0.891  10.200   1.973  0.00  0.00    +0.209 C 
ENDBRANCH  17  19
ENDBRANCH  15  17
ENDBRANCH   1  15
BRANCH   3  20
ATOM     20  C   UNL     1       4.343   7.559  -1.651  0.00  0.00    +0.339 C 
ATOM     21  O   UNL     1       5.593   7.470  -1.519  0.00  0.00    -0.245 OA
BRANCH  20  22
ATOM     22  O   UNL     1       3.945   8.091  -2.885  0.00  0.00    -0.442 OA
ATOM     23  C   UNL     1       4.512   7.778  -4.118  0.00  0.00    +0.256 C 
ENDBRANCH  20  22
ENDBRANCH   3  20
BRANCH   7  24
ATOM     24  C   UNL     1      -0.609   7.083  -0.198  0.00  0.00    +0.185 C 
BRANCH  24  25
ATOM     25  O   UNL     1      -0.974   6.664  -1.492  0.00  0.00    -0.346 OA
BRANCH  25  26
ATOM     26  C   UNL     1      -2.194   7.222  -1.858  0.00  0.00    +0.163 C 
BRANCH  26  27
ATOM     27  C   UNL     1      -3.138   6.242  -2.481  0.00  0.00    +0.141 C 
ATOM     28  N   UNL     1      -2.651   4.891  -2.349  0.00  0.00    -0.129 NA
ENDBRANCH  26  27
ENDBRANCH  25  26
ENDBRANCH  24  25
ENDBRANCH   7  24
TORSDOF 10
ENDMDL
MODEL 6
REMARK VINA RESULT:      -5.5      3.062      6.799
REMARK  Name = 
REMARK  10 active torsions:
REMARK  status: ('A' for Active; 'I' for Inactive)
REMARK    1  A    between atoms: C_2  and  O_3
REMARK    2  A    between atoms: O_3  and  C_4
REMARK    3  A    between atoms: C_4  and  C_6
REMARK    4  A    between atoms: C_7  and  C_8
REMARK    5  A    between atoms: C_8  and  O_9
REMARK    6  A    between atoms: O_9  and  C_10
REMARK    7  A    between atoms: C_10  and  C_11
REMARK    8  A    between atoms: C_16  and  C_17
REMARK    9  A    between atoms: C_17  and  O_19
REMARK   10  A    between atoms: C_21  and  C_22
REMARK                            x       y       z     vdW  Elec       q    Type
REMARK                         _______ _______ _______ _____ _____    ______ ____
ROOT
ATOM      1  C   UNL     1       2.336   5.828  -5.208  0.00  0.00    +0.075 C 
ATOM      2  C   UNL     1       3.124   5.269  -3.873  0.00  0.00    +0.082 C 
ATOM      3  C   UNL     1       3.945   6.678  -3.726  0.00  0.00    +0.073 C 
ATOM      4  C   UNL     1       4.975   6.582  -4.568  0.00  0.00    +0.051 C 
ATOM      5  C   UNL     1       6.177   7.386  -4.241  0.00  0.00    +0.049 C 
ATOM      6  N   UNL     1       4.591   6.274  -5.917  0.00  0.00    -0.219 NA
ATOM      7  C   UNL     1       3.188   6.142  -6.183  0.00  0.00    +0.080 C 
ENDROOT
BRANCH   2   8
ATOM      8  C   UNL     1       1.932   5.713  -2.841  0.00  0.00    -0.003 A 
ATOM      9  C   UNL     1       1.857   4.921  -1.720  0.00  0.00    +0.054 A 
ATOM     10 CL   UNL     1       3.226   4.045  -1.109  0.00  0.00    -0.083 Cl
ATOM     11  C   UNL     1       0.595   4.723  -1.177  0.00  0.00    +0.011 A 
ATOM     12  C   UNL     1      -0.399   5.633  -1.512  0.00  0.00    +0.001 A 
ATOM     13  C   UNL     1      -0.156   6.629  -2.450  0.00  0.00    -0.000 A 
ATOM     14  C   UNL     1       0.885   6.387  -3.342  0.00  0.00    -0.003 A 
ENDBRANCH   2   8
BRANCH   1  15
ATOM     15  C   UNL     1       1.143   5.063  -5.516  0.00  0.00    +0.339 C 
ATOM     16  O   UNL     1       1.362   3.858  -5.843  0.00  0.00    -0.245 OA
BRANCH  15  17
ATOM     17  O   UNL     1       0.168   5.720  -6.231  0.00  0.00    -0.446 OA
BRANCH  17  19
ATOM     18  C   UNL     1      -2.250   5.680  -6.212  0.00  0.00    +0.051 C 
ATOM     19  C   UNL     1      -0.969   5.116  -6.790  0.00  0.00    +0.209 C 
ENDBRANCH  17  19
ENDBRANCH  15  17
ENDBRANCH   1  15
BRANCH   3  20
ATOM     20  C   UNL     1       3.885   7.432  -2.542  0.00  0.00    +0.339 C 
ATOM     21  O   UNL     1       3.165   8.433  -2.281  0.00  0.00    -0.245 OA
BRANCH  20  22
ATOM     22  O   UNL     1       4.520   6.889  -1.417  0.00  0.00    -0.442 OA
ATOM     23  C   UNL     1       4.396   7.364  -0.114  0.00  0.00    +0.256 C 
ENDBRANCH  20  22
ENDBRANCH   3  20
BRANCH   7  24
ATOM     24  C   UNL     1       2.593   6.563  -7.485  0.00  0.00    +0.185 C 
BRANCH  24  25
ATOM     25  O   UNL     1       3.220   5.855  -8.528  0.00  0.00    -0.346 OA
BRANCH  25  26
ATOM     26  C   UNL     1       2.363   4.889  -9.044  0.00  0.00    +0.163 C 
BRANCH  26  27
ATOM     27  C   UNL     1       1.591   5.350 -10.241  0.00  0.00    +0.141 C 
ATOM     28  N   UNL     1       0.310   4.692 -10.321  0.00  0.00    -0.129 NA
ENDBRANCH  26  27
ENDBRANCH  25  26
ENDBRANCH  24  25
ENDBRANCH   7  24
TORSDOF 10
ENDMDL
MODEL 7
REMARK VINA RESULT:      -5.3      2.400      4.704
REMARK  Name = 
REMARK  10 active torsions:
REMARK  status: ('A' for Active; 'I' for Inactive)
REMARK    1  A    between atoms: C_2  and  O_3
REMARK    2  A    between atoms: O_3  and  C_4
REMARK    3  A    between atoms: C_4  and  C_6
REMARK    4  A    between atoms: C_7  and  C_8
REMARK    5  A    between atoms: C_8  and  O_9
REMARK    6  A    between atoms: O_9  and  C_10
REMARK    7  A    between atoms: C_10  and  C_11
REMARK    8  A    between atoms: C_16  and  C_17
REMARK    9  A    between atoms: C_17  and  O_19
REMARK   10  A    between atoms: C_21  and  C_22
REMARK                            x       y       z     vdW  Elec       q    Type
REMARK                         _______ _______ _______ _____ _____    ______ ____
ROOT
ATOM      1  C   UNL     1       0.700   6.197  -4.941  0.00  0.00    +0.075 C 
ATOM      2  C   UNL     1       1.860   6.845  -5.915  0.00  0.00    +0.082 C 
ATOM      3  C   UNL     1       2.883   5.612  -5.577  0.00  0.00    +0.073 C 
ATOM      4  C   UNL     1       3.457   5.931  -4.416  0.00  0.00    +0.051 C 
ATOM      5  C   UNL     1       4.799   5.356  -4.160  0.00  0.00    +0.049 C 
ATOM      6  N   UNL     1       2.518   6.210  -3.366  0.00  0.00    -0.219 NA
ATOM      7  C   UNL     1       1.125   6.084  -3.683  0.00  0.00    +0.080 C 
ENDROOT
BRANCH   2   8
ATOM      8  C   UNL     1       1.271   6.148  -7.276  0.00  0.00    -0.003 A 
ATOM      9  C   UNL     1       1.580   6.841  -8.422  0.00  0.00    +0.054 A 
ATOM     10 CL   UNL     1       2.964   7.882  -8.533  0.00  0.00    -0.083 Cl
ATOM     11  C   UNL     1       0.648   6.797  -9.450  0.00  0.00    +0.011 A 
ATOM     12  C   UNL     1      -0.280   5.763  -9.433  0.00  0.00    +0.001 A 
ATOM     13  C   UNL     1      -0.336   4.883  -8.357  0.00  0.00    -0.000 A 
ATOM     14  C   UNL     1       0.200   5.349  -7.160  0.00  0.00    -0.003 A 
ENDBRANCH   2   8
BRANCH   1  15
ATOM     15  C   UNL     1      -0.620   6.733  -5.208  0.00  0.00    +0.339 C 
ATOM     16  O   UNL     1      -0.744   7.970  -4.958  0.00  0.00    -0.245 OA
BRANCH  15  17
ATOM     17  O   UNL     1      -1.683   5.933  -4.859  0.00  0.00    -0.446 OA
BRANCH  17  19
ATOM     18  C   UNL     1      -3.420   5.469  -3.241  0.00  0.00    +0.051 C 
ATOM     19  C   UNL     1      -2.898   6.389  -4.324  0.00  0.00    +0.209 C 
ENDBRANCH  17  19
ENDBRANCH  15  17
ENDBRANCH   1  15
BRANCH   3  20
ATOM     20  C   UNL     1       3.425   4.817  -6.601  0.00  0.00    +0.339 C 
ATOM     21  O   UNL     1       2.936   3.791  -7.144  0.00  0.00    -0.245 OA
BRANCH  20  22
ATOM     22  O   UNL     1       4.533   5.340  -7.283  0.00  0.00    -0.442 OA
ATOM     23  C   UNL     1       4.947   4.961  -8.558  0.00  0.00    +0.256 C 
ENDBRANCH  20  22
ENDBRANCH   3  20
BRANCH   7  24
ATOM     24  C   UNL     1       0.131   5.606  -2.679  0.00  0.00    +0.185 C 
BRANCH  24  25
ATOM     25  O   UNL     1      -0.014   6.581  -1.674  0.00  0.00    -0.346 OA
BRANCH  25  26
ATOM     26  C   UNL     1      -0.923   6.158  -0.712  0.00  0.00    +0.163 C 
BRANCH  26  27
ATOM     27  C   UNL     1      -1.043   7.092   0.453  0.00  0.00    +0.141 C 
ATOM     28  N   UNL     1      -1.430   8.413   0.024  0.00  0.00    -0.129 NA
ENDBRANCH  26  27
ENDBRANCH  25  26
ENDBRANCH  24  25
ENDBRANCH   7  24
TORSDOF 10
ENDMDL
MODEL 8
REMARK VINA RESULT:      -5.2      3.275      5.941
REMARK  Name = 
REMARK  10 active torsions:
REMARK  status: ('A' for Active; 'I' for Inactive)
REMARK    1  A    between atoms: C_2  and  O_3
REMARK    2  A    between atoms: O_3  and  C_4
REMARK    3  A    between atoms: C_4  and  C_6
REMARK    4  A    between atoms: C_7  and  C_8
REMARK    5  A    between atoms: C_8  and  O_9
REMARK    6  A    between atoms: O_9  and  C_10
REMARK    7  A    between atoms: C_10  and  C_11
REMARK    8  A    between atoms: C_16  and  C_17
REMARK    9  A    between atoms: C_17  and  O_19
REMARK   10  A    between atoms: C_21  and  C_22
REMARK                            x       y       z     vdW  Elec       q    Type
REMARK                         _______ _______ _______ _____ _____    ______ ____
ROOT
ATOM      1  C   UNL     1       1.361   6.061  -5.866  0.00  0.00    +0.075 C 
ATOM      2  C   UNL     1       1.565   7.022  -4.542  0.00  0.00    +0.082 C 
ATOM      3  C   UNL     1       0.408   6.202  -3.725  0.00  0.00    +0.073 C 
ATOM      4  C   UNL     1      -0.752   6.727  -4.123  0.00  0.00    +0.051 C 
ATOM      5  C   UNL     1      -1.885   6.632  -3.171  0.00  0.00    +0.049 C 
ATOM      6  N   UNL     1      -0.932   6.718  -5.547  0.00  0.00    -0.219 NA
ATOM      7  C   UNL     1       0.116   6.134  -6.334  0.00  0.00    +0.080 C 
ENDROOT
BRANCH   2   8
ATOM      8  C   UNL     1       2.799   6.127  -3.940  0.00  0.00    -0.003 A 
ATOM      9  C   UNL     1       3.794   6.884  -3.368  0.00  0.00    +0.054 A 
ATOM     10 CL   UNL     1       3.500   8.468  -2.722  0.00  0.00    -0.083 Cl
ATOM     11  C   UNL     1       5.088   6.392  -3.465  0.00  0.00    +0.011 A 
ATOM     12  C   UNL     1       5.243   5.037  -3.730  0.00  0.00    +0.001 A 
ATOM     13  C   UNL     1       4.136   4.241  -4.002  0.00  0.00    -0.000 A 
ATOM     14  C   UNL     1       3.003   4.907  -4.459  0.00  0.00    -0.003 A 
ENDBRANCH   2   8
BRANCH   1  15
ATOM     15  C   UNL     1       2.479   6.128  -6.785  0.00  0.00    +0.339 C 
ATOM     16  O   UNL     1       2.653   7.265  -7.318  0.00  0.00    -0.245 OA
BRANCH  15  17
ATOM     17  O   UNL     1       2.657   5.038  -7.606  0.00  0.00    -0.446 OA
BRANCH  17  19
ATOM     18  C   UNL     1       3.769   5.006  -9.753  0.00  0.00    +0.051 C 
ATOM     19  C   UNL     1       3.850   4.712  -8.270  0.00  0.00    +0.209 C 
ENDBRANCH  17  19
ENDBRANCH  15  17
ENDBRANCH   1  15
BRANCH   3  20
ATOM     20  C   UNL     1       0.684   5.596  -2.488  0.00  0.00    +0.339 C 
ATOM     21  O   UNL     1       0.740   4.369  -2.206  0.00  0.00    -0.245 OA
BRANCH  20  22
ATOM     22  O   UNL     1       1.194   6.427  -1.480  0.00  0.00    -0.442 OA
ATOM     23  C   UNL     1       0.662   6.561  -0.200  0.00  0.00    +0.256 C 
ENDBRANCH  20  22
ENDBRANCH   3  20
BRANCH   7  24
ATOM     24  C   UNL     1      -0.172   5.389  -7.595  0.00  0.00    +0.185 C 
BRANCH  24  25
ATOM     25  O   UNL     1      -0.300   6.308  -8.653  0.00  0.00    -0.346 OA
BRANCH  25  26
ATOM     26  C   UNL     1       0.113   5.734  -9.850  0.00  0.00    +0.163 C 
BRANCH  26  27
ATOM     27  C   UNL     1       0.009   6.656 -11.025  0.00  0.00    +0.141 C 
ATOM     28  N   UNL     1       1.181   6.569 -11.862  0.00  0.00    -0.129 NA
ENDBRANCH  26  27
ENDBRANCH  25  26
ENDBRANCH  24  25
ENDBRANCH   7  24
TORSDOF 10
ENDMDL
MODEL 9
REMARK VINA RESULT:      -5.0      1.940      4.578
REMARK  Name = 
REMARK  10 active torsions:
REMARK  status: ('A' for Active; 'I' for Inactive)
REMARK    1  A    between atoms: C_2  and  O_3
REMARK    2  A    between atoms: O_3  and  C_4
REMARK    3  A    between atoms: C_4  and  C_6
REMARK    4  A    between atoms: C_7  and  C_8
REMARK    5  A    between atoms: C_8  and  O_9
REMARK    6  A    between atoms: O_9  and  C_10
REMARK    7  A    between atoms: C_10  and  C_11
REMARK    8  A    between atoms: C_16  and  C_17
REMARK    9  A    between atoms: C_17  and  O_19
REMARK   10  A    between atoms: C_21  and  C_22
REMARK                            x       y       z     vdW  Elec       q    Type
REMARK                         _______ _______ _______ _____ _____    ______ ____
ROOT
ATOM      1  C   UNL     1       0.990   6.268  -3.475  0.00  0.00    +0.075 C 
ATOM      2  C   UNL     1       1.973   7.064  -4.531  0.00  0.00    +0.082 C 
ATOM      3  C   UNL     1       3.298   6.340  -3.899  0.00  0.00    +0.073 C 
ATOM      4  C   UNL     1       3.616   7.056  -2.818  0.00  0.00    +0.051 C 
ATOM      5  C   UNL     1       5.038   7.030  -2.400  0.00  0.00    +0.049 C 
ATOM      6  N   UNL     1       2.534   7.203  -1.885  0.00  0.00    -0.219 NA
ATOM      7  C   UNL     1       1.297   6.555  -2.211  0.00  0.00    +0.080 C 
ENDROOT
BRANCH   2   8
ATOM      8  C   UNL     1       1.784   5.956  -5.723  0.00  0.00    -0.003 A 
ATOM      9  C   UNL     1       1.537   6.514  -6.955  0.00  0.00    +0.054 A 
ATOM     10 CL   UNL     1       2.050   8.121  -7.365  0.00  0.00    -0.083 Cl
ATOM     11  C   UNL     1       0.720   5.795  -7.816  0.00  0.00    +0.011 A 
ATOM     12  C   UNL     1       0.566   4.436  -7.571  0.00  0.00    +0.001 A 
ATOM     13  C   UNL     1       1.120   3.857  -6.435  0.00  0.00    -0.000 A 
ATOM     14  C   UNL     1       1.386   4.722  -5.377  0.00  0.00    -0.003 A 
ENDBRANCH   2   8
BRANCH   1  15
ATOM     15  C   UNL     1      -0.397   6.265  -3.895  0.00  0.00    +0.339 C 
ATOM     16  O   UNL     1      -0.869   7.412  -4.158  0.00  0.00    -0.245 OA
BRANCH  15  17
ATOM     17  O   UNL     1      -1.233   5.403  -3.223  0.00  0.00    -0.446 OA
BRANCH  17  19
ATOM     18  C   UNL     1      -3.358   6.225  -2.412  0.00  0.00    +0.051 C 
ATOM     19  C   UNL     1      -2.625   5.332  -3.390  0.00  0.00    +0.209 C 
ENDBRANCH  17  19
ENDBRANCH  15  17
ENDBRANCH   1  15
BRANCH   3  20
ATOM     20  C   UNL     1       4.170   5.589  -4.705  0.00  0.00    +0.339 C 
ATOM     21  O   UNL     1       4.434   4.359  -4.646  0.00  0.00    -0.245 OA
BRANCH  20  22
ATOM     22  O   UNL     1       4.637   6.209  -5.872  0.00  0.00    -0.442 OA
ATOM     23  C   UNL     1       4.925   5.559  -7.070  0.00  0.00    +0.256 C 
ENDBRANCH  20  22
ENDBRANCH   3  20
BRANCH   7  24
ATOM     24  C   UNL     1       0.412   5.977  -1.158  0.00  0.00    +0.185 C 
BRANCH  24  25
ATOM     25  O   UNL     1       0.963   6.253   0.108  0.00  0.00    -0.346 OA
BRANCH  25  26
ATOM     26  C   UNL     1       0.139   7.117   0.821  0.00  0.00    +0.163 C 
BRANCH  26  27
ATOM     27  C   UNL     1       0.821   8.379   1.248  0.00  0.00    +0.141 C 
ATOM     28  N   UNL     1       0.029   9.538   0.914  0.00  0.00    -0.129 NA
ENDBRANCH  26  27
ENDBRANCH  25  26
ENDBRANCH  24  25
ENDBRANCH   7  24
TORSDOF 10
ENDMDL
