MODEL 1
REMARK VINA RESULT:      -4.1      0.000      0.000
REMARK  Name = 
REMARK  10 active torsions:
REMARK  status: ('A' for Active; 'I' for Inactive)
REMARK    1  A    between atoms: C_2  and  C_3
REMARK    2  A    between atoms: C_13  and  C_14
REMARK    3  A    between atoms: C_14  and  C_15
REMARK    4  A    between atoms: C_15  and  O_17
REMARK    5  A    between atoms: C_24  and  C_26
REMARK    6  A    between atoms: C_40  and  O_41
REMARK    7  A    between atoms: C_48  and  C_50
REMARK    8  A    between atoms: C_50  and  O_52
REMARK    9  A    between atoms: C_54  and  O_55
REMARK   10  A    between atoms: O_55  and  C_56
REMARK                            x       y       z     vdW  Elec       q    Type
REMARK                         _______ _______ _______ _____ _____    ______ ____
ROOT
ATOM      1  C   UNL     1       2.561   5.916  -7.906  0.00  0.00    +0.072 C 
ATOM      2  C   UNL     1       2.917   6.693  -6.527  0.00  0.00    +0.070 C 
ATOM      3  N   UNL     1       4.365   6.107  -6.421  0.00  0.00    -0.269 NA
ATOM      4  C   UNL     1       4.423   5.457  -5.181  0.00  0.00    +0.073 C 
ATOM      5  C   UNL     1       3.212   4.541  -5.368  0.00  0.00    +0.024 C 
ATOM      6  C   UNL     1       4.852   5.525  -7.553  0.00  0.00    +0.099 C 
ATOM      7  C   UNL     1       4.102   4.271  -7.925  0.00  0.00    -0.013 C 
ATOM      8  C   UNL     1       2.246   5.611  -5.529  0.00  0.00    +0.055 C 
ATOM      9  C   UNL     1       0.886   5.097  -6.246  0.00  0.00    +0.120 C 
ATOM     10  C   UNL     1       0.427   6.507  -6.886  0.00  0.00    +0.268 C 
ATOM     11  O   UNL     1      -0.930   6.328  -7.210  0.00  0.00    -0.209 OA
ATOM     12  N   UNL     1      -0.053   5.317  -4.990  0.00  0.00    -0.304 N 
ATOM     13  C   UNL     1      -1.412   4.863  -5.173  0.00  0.00    +0.112 C 
ATOM     14  C   UNL     1       0.812   5.291  -3.887  0.00  0.00    +0.047 A 
ATOM     15  C   UNL     1       0.603   4.868  -2.601  0.00  0.00    +0.051 A 
ATOM     16  C   UNL     1       1.436   5.352  -1.600  0.00  0.00    +0.137 A 
ATOM     17  C   UNL     1       2.207   6.471  -1.899  0.00  0.00    +0.026 A 
ATOM     18  C   UNL     1       2.457   6.802  -3.229  0.00  0.00    -0.003 A 
ATOM     19  C   UNL     1       1.827   6.162  -4.282  0.00  0.00    -0.007 A 
ATOM     20  C   UNL     1       1.119   6.496  -8.363  0.00  0.00    +0.213 C 
ATOM     21  C   UNL     1       2.788   4.572  -7.965  0.00  0.00    -0.025 C 
ENDROOT
BRANCH  17  22
ATOM     22  C   UNL     1       2.720   7.308  -0.777  0.00  0.00    +0.146 C 
ATOM     23  C   UNL     1       1.650   7.430   0.230  0.00  0.00    +0.068 A 
ATOM     24  C   UNL     1       1.853   8.010   1.478  0.00  0.00    -0.005 A 
ATOM     25  C   UNL     1       0.661   8.650   1.784  0.00  0.00    +0.015 A 
ATOM     26  C   UNL     1      -0.280   7.995   1.017  0.00  0.00    +0.081 A 
ATOM     27  C   UNL     1      -1.588   8.437   1.134  0.00  0.00    +0.019 A 
ATOM     28  C   UNL     1      -1.870   9.697   1.647  0.00  0.00    +0.002 A 
ATOM     29  C   UNL     1      -0.892  10.375   2.366  0.00  0.00    +0.000 A 
ATOM     30  C   UNL     1       0.334   9.748   2.566  0.00  0.00    +0.001 A 
ATOM     31  C   UNL     1       3.211   8.070   2.018  0.00  0.00    +0.045 C 
ATOM     32  C   UNL     1       3.699   9.416   2.402  0.00  0.00    +0.077 C 
ATOM     33  N   UNL     1       4.753   9.928   1.525  0.00  0.00    -0.270 NA
ATOM     34  C   UNL     1       4.443  11.290   1.326  0.00  0.00    +0.103 C 
ATOM     35  C   UNL     1       4.351  11.822  -0.044  0.00  0.00    +0.141 C 
ATOM     36  C   UNL     1       3.761  10.902  -1.079  0.00  0.00    +0.033 C 
ATOM     37  C   UNL     1       3.158   9.697  -0.164  0.00  0.00    +0.020 C 
ATOM     38  O   UNL     1       5.602  12.303  -0.469  0.00  0.00    -0.224 OA
ATOM     39  C   UNL     1       4.649   9.211   0.286  0.00  0.00    +0.072 C 
ATOM     40  N   UNL     1       0.350   7.042   0.290  0.00  0.00    -0.249 NA
ATOM     41  C   UNL     1       3.121   8.630  -1.393  0.00  0.00    +0.022 C 
BRANCH  35  42
ATOM     42  C   UNL     1       3.491  13.083   0.071  0.00  0.00    +0.032 C 
ATOM     43  C   UNL     1       4.365  14.301  -0.212  0.00  0.00    +0.003 C 
ENDBRANCH  35  42
BRANCH  22  44
ATOM     44  C   UNL     1       3.913   6.569  -0.263  0.00  0.00    +0.325 C 
ATOM     45  O   UNL     1       3.738   5.794   0.727  0.00  0.00    -0.249 OA
BRANCH  44  46
ATOM     46  O   UNL     1       4.684   5.998  -1.286  0.00  0.00    -0.444 OA
ATOM     47  C   UNL     1       5.115   4.651  -1.124  0.00  0.00    +0.256 C 
ENDBRANCH  44  46
ENDBRANCH  22  44
ENDBRANCH  17  22
BRANCH  16  48
ATOM     48  O   UNL     1       1.892   4.556  -0.550  0.00  0.00    -0.472 OA
ATOM     49  C   UNL     1       2.267   3.192  -0.735  0.00  0.00    +0.252 C 
ENDBRANCH  16  48
BRANCH  10  50
ATOM     50  C   UNL     1       0.576   7.680  -6.186  0.00  0.00    +0.350 C 
ATOM     51  O   UNL     1       1.760   8.109  -5.983  0.00  0.00    -0.247 OA
BRANCH  50  52
ATOM     52  O   UNL     1      -0.128   7.759  -4.966  0.00  0.00    -0.443 OA
ATOM     53  C   UNL     1      -1.389   8.334  -4.831  0.00  0.00    +0.256 C 
ENDBRANCH  50  52
ENDBRANCH  10  50
BRANCH   1  55
ATOM     54  C   UNL     1       3.018   7.252  -9.391  0.00  0.00    +0.001 C 
ATOM     55  C   UNL     1       3.386   6.583  -9.007  0.00  0.00    +0.009 C 
ENDBRANCH   1  55
BRANCH  20  56
ATOM     56  O   UNL     1       0.554   5.090  -8.676  0.00  0.00    -0.449 OA
BRANCH  56  57
ATOM     57  C   UNL     1       0.137   4.873  -9.953  0.00  0.00    +0.318 C 
ATOM     58  O   UNL     1       0.540   3.838 -10.547  0.00  0.00    -0.250 OA
ATOM     59  C   UNL     1      -0.225   6.059 -10.785  0.00  0.00    +0.121 C 
ENDBRANCH  56  57
ENDBRANCH  20  56
TORSDOF 10
ENDMDL
MODEL 2
REMARK VINA RESULT:      -2.1     10.580     15.819
REMARK  Name = 
REMARK  10 active torsions:
REMARK  status: ('A' for Active; 'I' for Inactive)
REMARK    1  A    between atoms: C_2  and  C_3
REMARK    2  A    between atoms: C_13  and  C_14
REMARK    3  A    between atoms: C_14  and  C_15
REMARK    4  A    between atoms: C_15  and  O_17
REMARK    5  A    between atoms: C_24  and  C_26
REMARK    6  A    between atoms: C_40  and  O_41
REMARK    7  A    between atoms: C_48  and  C_50
REMARK    8  A    between atoms: C_50  and  O_52
REMARK    9  A    between atoms: C_54  and  O_55
REMARK   10  A    between atoms: O_55  and  C_56
REMARK                            x       y       z     vdW  Elec       q    Type
REMARK                         _______ _______ _______ _____ _____    ______ ____
ROOT
ATOM      1  C   UNL     1      -2.103  16.297 -12.439  0.00  0.00    +0.072 C 
ATOM      2  C   UNL     1      -1.426  14.874 -12.825  0.00  0.00    +0.070 C 
ATOM      3  N   UNL     1       0.041  15.420 -12.798  0.00  0.00    -0.269 NA
ATOM      4  C   UNL     1       0.570  15.155 -14.067  0.00  0.00    +0.073 C 
ATOM      5  C   UNL     1      -0.514  15.847 -14.894  0.00  0.00    +0.024 C 
ATOM      6  C   UNL     1       0.211  16.631 -12.194  0.00  0.00    +0.099 C 
ATOM      7  C   UNL     1      -0.458  17.750 -12.950  0.00  0.00    -0.013 C 
ATOM      8  C   UNL     1      -1.606  15.014 -14.426  0.00  0.00    +0.055 C 
ATOM      9  C   UNL     1      -3.048  15.710 -14.673  0.00  0.00    +0.120 C 
ATOM     10  C   UNL     1      -3.857  14.968 -13.488  0.00  0.00    +0.268 C 
ATOM     11  O   UNL     1      -5.214  15.160 -13.806  0.00  0.00    -0.209 OA
ATOM     12  N   UNL     1      -3.559  14.652 -15.735  0.00  0.00    -0.304 N 
ATOM     13  C   UNL     1      -4.839  14.968 -16.326  0.00  0.00    +0.112 C 
ATOM     14  C   UNL     1      -2.392  14.078 -16.260  0.00  0.00    +0.047 A 
ATOM     15  C   UNL     1      -2.127  13.580 -17.507  0.00  0.00    +0.051 A 
ATOM     16  C   UNL     1      -1.085  12.672 -17.652  0.00  0.00    +0.137 A 
ATOM     17  C   UNL     1      -0.594  12.078 -16.494  0.00  0.00    +0.026 A 
ATOM     18  C   UNL     1      -0.822  12.680 -15.258  0.00  0.00    -0.003 A 
ATOM     19  C   UNL     1      -1.671  13.763 -15.108  0.00  0.00    -0.007 A 
ATOM     20  C   UNL     1      -3.676  15.975 -12.218  0.00  0.00    +0.213 C 
ATOM     21  C   UNL     1      -1.743  17.398 -13.159  0.00  0.00    -0.025 C 
ENDROOT
BRANCH  17  22
ATOM     22  C   UNL     1       0.142  10.787 -16.608  0.00  0.00    +0.146 C 
ATOM     23  C   UNL     1      -0.542   9.958 -17.617  0.00  0.00    +0.068 A 
ATOM     24  C   UNL     1      -0.020   8.756 -18.084  0.00  0.00    -0.005 A 
ATOM     25  C   UNL     1      -1.118   7.942 -18.317  0.00  0.00    +0.015 A 
ATOM     26  C   UNL     1      -2.162   8.828 -18.491  0.00  0.00    +0.081 A 
ATOM     27  C   UNL     1      -3.405   8.274 -18.750  0.00  0.00    +0.019 A 
ATOM     28  C   UNL     1      -3.671   6.946 -18.441  0.00  0.00    +0.002 A 
ATOM     29  C   UNL     1      -2.612   6.076 -18.208  0.00  0.00    +0.000 A 
ATOM     30  C   UNL     1      -1.315   6.570 -18.316  0.00  0.00    +0.001 A 
ATOM     31  C   UNL     1       1.419   8.519 -17.971  0.00  0.00    +0.045 C 
ATOM     32  C   UNL     1       1.820   7.283 -17.255  0.00  0.00    +0.077 C 
ATOM     33  N   UNL     1       2.446   7.536 -15.957  0.00  0.00    -0.270 NA
ATOM     34  C   UNL     1       1.906   6.565 -15.087  0.00  0.00    +0.103 C 
ATOM     35  C   UNL     1       1.297   6.986 -13.815  0.00  0.00    +0.141 C 
ATOM     36  C   UNL     1       0.528   8.282 -13.840  0.00  0.00    +0.033 C 
ATOM     37  C   UNL     1       0.430   8.592 -15.436  0.00  0.00    +0.020 C 
ATOM     38  O   UNL     1       2.260   7.006 -12.791  0.00  0.00    -0.224 OA
ATOM     39  C   UNL     1       2.037   8.850 -15.546  0.00  0.00    +0.072 C 
ATOM     40  N   UNL     1      -1.685  10.086 -18.340  0.00  0.00    -0.249 NA
ATOM     41  C   UNL     1       0.135  10.179 -15.223  0.00  0.00    +0.022 C 
BRANCH  35  42
ATOM     42  C   UNL     1       0.361   5.843 -13.419  0.00  0.00    +0.032 C 
ATOM     43  C   UNL     1       0.969   5.097 -12.235  0.00  0.00    +0.003 C 
ENDBRANCH  35  42
BRANCH  22  44
ATOM     44  C   UNL     1       1.526  11.171 -17.021  0.00  0.00    +0.325 C 
ATOM     45  O   UNL     1       2.470  10.907 -16.214  0.00  0.00    -0.249 OA
BRANCH  44  46
ATOM     46  O   UNL     1       1.816  10.825 -18.348  0.00  0.00    -0.444 OA
ATOM     47  C   UNL     1       3.180  10.620 -18.701  0.00  0.00    +0.256 C 
ENDBRANCH  44  46
ENDBRANCH  22  44
ENDBRANCH  17  22
BRANCH  16  48
ATOM     48  O   UNL     1      -0.225  12.682 -18.749  0.00  0.00    -0.472 OA
ATOM     49  C   UNL     1       1.016  13.385 -18.738  0.00  0.00    +0.252 C 
ENDBRANCH  16  48
BRANCH  10  50
ATOM     50  C   UNL     1      -3.639  13.641 -13.209  0.00  0.00    +0.350 C 
ATOM     51  O   UNL     1      -4.531  12.801 -13.565  0.00  0.00    -0.247 OA
BRANCH  50  52
ATOM     52  O   UNL     1      -3.275  13.346 -11.879  0.00  0.00    -0.443 OA
ATOM     53  C   UNL     1      -2.160  12.588 -11.527  0.00  0.00    +0.256 C 
ENDBRANCH  50  52
ENDBRANCH  10  50
BRANCH   1  55
ATOM     54  C   UNL     1      -2.366  16.350 -10.407  0.00  0.00    +0.001 C 
ATOM     55  C   UNL     1      -1.760  16.559 -10.971  0.00  0.00    +0.009 C 
ENDBRANCH   1  55
BRANCH  20  56
ATOM     56  O   UNL     1      -4.134  17.196 -13.050  0.00  0.00    -0.449 OA
BRANCH  56  57
ATOM     57  C   UNL     1      -5.337  17.739 -12.723  0.00  0.00    +0.318 C 
ATOM     58  O   UNL     1      -5.689  17.729 -11.513  0.00  0.00    -0.250 OA
ATOM     59  C   UNL     1      -6.409  17.749 -13.762  0.00  0.00    +0.121 C 
ENDBRANCH  56  57
ENDBRANCH  20  56
TORSDOF 10
ENDMDL
MODEL 3
REMARK VINA RESULT:      -1.7      2.466      4.667
REMARK  Name = 
REMARK  10 active torsions:
REMARK  status: ('A' for Active; 'I' for Inactive)
REMARK    1  A    between atoms: C_2  and  C_3
REMARK    2  A    between atoms: C_13  and  C_14
REMARK    3  A    between atoms: C_14  and  C_15
REMARK    4  A    between atoms: C_15  and  O_17
REMARK    5  A    between atoms: C_24  and  C_26
REMARK    6  A    between atoms: C_40  and  O_41
REMARK    7  A    between atoms: C_48  and  C_50
REMARK    8  A    between atoms: C_50  and  O_52
REMARK    9  A    between atoms: C_54  and  O_55
REMARK   10  A    between atoms: O_55  and  C_56
REMARK                            x       y       z     vdW  Elec       q    Type
REMARK                         _______ _______ _______ _____ _____    ______ ____
ROOT
ATOM      1  C   UNL     1       2.890   5.814  -7.879  0.00  0.00    +0.072 C 
ATOM      2  C   UNL     1       2.195   5.712  -6.417  0.00  0.00    +0.070 C 
ATOM      3  N   UNL     1       0.963   6.600  -6.800  0.00  0.00    -0.269 NA
ATOM      4  C   UNL     1       0.962   7.663  -5.889  0.00  0.00    +0.073 C 
ATOM      5  C   UNL     1       2.392   8.149  -6.133  0.00  0.00    +0.024 C 
ATOM      6  C   UNL     1       0.774   6.805  -8.135  0.00  0.00    +0.099 C 
ATOM      7  C   UNL     1       1.876   7.626  -8.753  0.00  0.00    -0.013 C 
ATOM      8  C   UNL     1       3.035   6.913  -5.731  0.00  0.00    +0.055 C 
ATOM      9  C   UNL     1       4.549   6.805  -6.298  0.00  0.00    +0.120 C 
ATOM     10  C   UNL     1       4.661   5.194  -6.323  0.00  0.00    +0.268 C 
ATOM     11  O   UNL     1       6.041   4.933  -6.415  0.00  0.00    -0.209 OA
ATOM     12  N   UNL     1       5.258   6.872  -4.884  0.00  0.00    -0.304 N 
ATOM     13  C   UNL     1       6.701   6.911  -4.940  0.00  0.00    +0.112 C 
ATOM     14  C   UNL     1       4.326   7.502  -4.046  0.00  0.00    +0.047 A 
ATOM     15  C   UNL     1       4.513   8.320  -2.964  0.00  0.00    +0.051 A 
ATOM     16  C   UNL     1       3.481   8.445  -2.042  0.00  0.00    +0.137 A 
ATOM     17  C   UNL     1       2.465   7.497  -2.091  0.00  0.00    +0.026 A 
ATOM     18  C   UNL     1       2.269   6.753  -3.253  0.00  0.00    -0.003 A 
ATOM     19  C   UNL     1       3.155   6.794  -4.316  0.00  0.00    -0.007 A 
ATOM     20  C   UNL     1       4.154   4.801  -7.822  0.00  0.00    +0.213 C 
ATOM     21  C   UNL     1       3.052   7.051  -8.431  0.00  0.00    -0.025 C 
ENDROOT
BRANCH  17  22
ATOM     22  C   UNL     1       1.629   7.280  -0.876  0.00  0.00    +0.146 C 
ATOM     23  C   UNL     1       0.405   6.567  -1.284  0.00  0.00    +0.068 A 
ATOM     24  C   UNL     1      -0.515   6.064  -0.369  0.00  0.00    -0.005 A 
ATOM     25  C   UNL     1      -1.754   6.208  -0.975  0.00  0.00    +0.015 A 
ATOM     26  C   UNL     1      -1.465   6.266  -2.323  0.00  0.00    +0.081 A 
ATOM     27  C   UNL     1      -2.544   6.406  -3.180  0.00  0.00    +0.019 A 
ATOM     28  C   UNL     1      -3.766   6.876  -2.716  0.00  0.00    +0.002 A 
ATOM     29  C   UNL     1      -4.022   6.870  -1.349  0.00  0.00    +0.000 A 
ATOM     30  C   UNL     1      -3.045   6.368  -0.496  0.00  0.00    +0.001 A 
ATOM     31  C   UNL     1      -0.074   5.790   0.998  0.00  0.00    +0.045 C 
ATOM     32  C   UNL     1      -0.845   6.456   2.076  0.00  0.00    +0.077 C 
ATOM     33  N   UNL     1      -0.095   7.506   2.768  0.00  0.00    -0.270 NA
ATOM     34  C   UNL     1      -1.013   8.562   2.948  0.00  0.00    +0.103 C 
ATOM     35  C   UNL     1      -0.660   9.918   2.497  0.00  0.00    +0.141 C 
ATOM     36  C   UNL     1       0.138  10.011   1.223  0.00  0.00    +0.033 C 
ATOM     37  C   UNL     1       0.056   8.487   0.654  0.00  0.00    +0.020 C 
ATOM     38  O   UNL     1      -0.022  10.628   3.530  0.00  0.00    -0.224 OA
ATOM     39  C   UNL     1       0.961   7.914   1.885  0.00  0.00    +0.072 C 
ATOM     40  N   UNL     1      -0.122   6.183  -2.476  0.00  0.00    -0.249 NA
ATOM     41  C   UNL     1       1.363   8.653  -0.302  0.00  0.00    +0.022 C 
BRANCH  35  42
ATOM     42  C   UNL     1      -1.995  10.644   2.320  0.00  0.00    +0.032 C 
ATOM     43  C   UNL     1      -3.130   9.649   2.549  0.00  0.00    +0.003 C 
ENDBRANCH  35  42
BRANCH  22  44
ATOM     44  C   UNL     1       2.489   6.470   0.040  0.00  0.00    +0.325 C 
ATOM     45  O   UNL     1       3.022   5.421  -0.435  0.00  0.00    -0.249 OA
BRANCH  44  46
ATOM     46  O   UNL     1       3.377   7.254   0.790  0.00  0.00    -0.444 OA
ATOM     47  C   UNL     1       4.748   6.873   0.811  0.00  0.00    +0.256 C 
ENDBRANCH  44  46
ENDBRANCH  22  44
ENDBRANCH  17  22
BRANCH  16  48
ATOM     48  O   UNL     1       3.159   9.658  -1.433  0.00  0.00    -0.472 OA
ATOM     49  C   UNL     1       3.998  10.263  -0.450  0.00  0.00    +0.252 C 
ENDBRANCH  16  48
BRANCH  10  50
ATOM     50  C   UNL     1       4.123   4.435  -5.312  0.00  0.00    +0.350 C 
ATOM     51  O   UNL     1       4.919   3.935  -4.451  0.00  0.00    -0.247 OA
BRANCH  50  52
ATOM     52  O   UNL     1       3.232   3.419  -5.718  0.00  0.00    -0.443 OA
ATOM     53  C   UNL     1       1.847   3.500  -5.586  0.00  0.00    +0.256 C 
ENDBRANCH  50  52
ENDBRANCH  10  50
BRANCH   1  55
ATOM     54  C   UNL     1       2.320   4.196  -9.001  0.00  0.00    +0.001 C 
ATOM     55  C   UNL     1       2.029   4.981  -8.830  0.00  0.00    +0.009 C 
ENDBRANCH   1  55
BRANCH  20  56
ATOM     56  O   UNL     1       5.115   5.822  -8.474  0.00  0.00    -0.449 OA
BRANCH  56  57
ATOM     57  C   UNL     1       5.840   5.382  -9.539  0.00  0.00    +0.318 C 
ATOM     58  O   UNL     1       7.096   5.420  -9.464  0.00  0.00    -0.250 OA
ATOM     59  C   UNL     1       5.217   5.462 -10.893  0.00  0.00    +0.121 C 
ENDBRANCH  56  57
ENDBRANCH  20  56
TORSDOF 10
ENDMDL
