MODEL 1
REMARK VINA RESULT:      -7.9      0.000      0.000
REMARK  Name = 
REMARK  7 active torsions:
REMARK  status: ('A' for Active; 'I' for Inactive)
REMARK    1  A    between atoms: C_5  and  C_6
REMARK    2  A    between atoms: C_6  and  C_7
REMARK    3  A    between atoms: C_7  and  C_8
REMARK    4  A    between atoms: C_8  and  C_9
REMARK    5  A    between atoms: C_8  and  S_15
REMARK    6  A    between atoms: C_9  and  N_10
REMARK    7  A    between atoms: S_15  and  C_16
REMARK                            x       y       z     vdW  Elec       q    Type
REMARK                         _______ _______ _______ _____ _____    ______ ____
ROOT
ATOM      1  C   UNL     1       1.719   6.407  -8.901  0.00  0.00    +0.075 C 
ENDROOT
BRANCH   1   2
ATOM      2  C   UNL     1       3.254   6.720  -9.177  0.00  0.00    +0.018 C 
BRANCH   2   3
ATOM      3  C   UNL     1       4.103   5.583  -8.724  0.00  0.00    +0.027 C 
BRANCH   3   8
ATOM      4 CL   UNL     1       8.852   5.823 -12.316  0.00  0.00    -0.082 Cl
ATOM      5  C   UNL     1       7.509   6.033 -11.304  0.00  0.00    +0.058 A 
ATOM      6  C   UNL     1       7.642   6.080  -9.935  0.00  0.00    +0.011 A 
ATOM      7  C   UNL     1       6.583   5.653  -9.150  0.00  0.00    -0.003 A 
ATOM      8  C   UNL     1       5.292   5.534  -9.634  0.00  0.00    -0.022 A 
ATOM      9  C   UNL     1       5.138   5.652 -11.002  0.00  0.00    -0.003 A 
ATOM     10  C   UNL     1       6.239   5.864 -11.820  0.00  0.00    +0.011 A 
ENDBRANCH   3   8
ENDBRANCH   2   3
ENDBRANCH   1   2
BRANCH   1  11
ATOM     11  C   UNL     1       1.547   5.328 -10.063  0.00  0.00    +0.119 C 
BRANCH  11  12
ATOM     12  N   UNL     1       0.840   6.094 -11.087  0.00  0.00    -0.307 N 
ATOM     13  C   UNL     1      -0.260   6.849 -10.889  0.00  0.00    +0.179 A 
ATOM     14  N   UNL     1      -0.443   7.710 -11.897  0.00  0.00    -0.222 NA
ATOM     15  C   UNL     1       0.415   7.369 -12.886  0.00  0.00    +0.119 A 
ATOM     16  C   UNL     1       1.298   6.482 -12.299  0.00  0.00    +0.098 A 
ENDBRANCH  11  12
ENDBRANCH   1  11
BRANCH   1  17
ATOM     17  S   UNL     1       2.092   5.100  -7.551  0.00  0.00    -0.111 S 
BRANCH  17  18
ATOM     18  C   UNL     1       1.341   5.777  -6.088  0.00  0.00    +0.046 A 
ATOM     19  C   UNL     1      -0.001   5.525  -5.885  0.00  0.00    +0.064 A 
ATOM     20 CL   UNL     1      -1.051   5.197  -7.261  0.00  0.00    -0.082 Cl
ATOM     21  C   UNL     1      -0.503   5.585  -4.590  0.00  0.00    +0.012 A 
ATOM     22  C   UNL     1       0.334   5.908  -3.535  0.00  0.00    +0.002 A 
ATOM     23  C   UNL     1       1.568   6.465  -3.847  0.00  0.00    +0.012 A 
ATOM     24  C   UNL     1       2.013   6.541  -5.161  0.00  0.00    +0.064 A 
ATOM     25 CL   UNL     1       3.605   7.134  -5.579  0.00  0.00    -0.082 Cl
ENDBRANCH  17  18
ENDBRANCH   1  17
TORSDOF 7
ENDMDL
MODEL 2
REMARK VINA RESULT:      -7.9      3.174      5.006
REMARK  Name = 
REMARK  7 active torsions:
REMARK  status: ('A' for Active; 'I' for Inactive)
REMARK    1  A    between atoms: C_5  and  C_6
REMARK    2  A    between atoms: C_6  and  C_7
REMARK    3  A    between atoms: C_7  and  C_8
REMARK    4  A    between atoms: C_8  and  C_9
REMARK    5  A    between atoms: C_8  and  S_15
REMARK    6  A    between atoms: C_9  and  N_10
REMARK    7  A    between atoms: S_15  and  C_16
REMARK                            x       y       z     vdW  Elec       q    Type
REMARK                         _______ _______ _______ _____ _____    ______ ____
ROOT
ATOM      1  C   UNL     1       3.038   5.309  -6.129  0.00  0.00    +0.075 C 
ENDROOT
BRANCH   1   2
ATOM      2  C   UNL     1       3.483   5.059  -7.636  0.00  0.00    +0.018 C 
BRANCH   2   3
ATOM      3  C   UNL     1       3.574   6.353  -8.369  0.00  0.00    +0.027 C 
BRANCH   3   8
ATOM      4 CL   UNL     1       8.334   6.186 -11.951  0.00  0.00    -0.082 Cl
ATOM      5  C   UNL     1       7.108   6.449 -10.810  0.00  0.00    +0.058 A 
ATOM      6  C   UNL     1       7.092   5.782  -9.607  0.00  0.00    +0.011 A 
ATOM      7  C   UNL     1       5.872   5.540  -8.998  0.00  0.00    -0.003 A 
ATOM      8  C   UNL     1       4.720   6.233  -9.327  0.00  0.00    -0.022 A 
ATOM      9  C   UNL     1       4.788   7.035 -10.450  0.00  0.00    -0.003 A 
ATOM     10  C   UNL     1       5.957   7.109 -11.194  0.00  0.00    +0.011 A 
ENDBRANCH   3   8
ENDBRANCH   2   3
ENDBRANCH   1   2
BRANCH   1  11
ATOM     11  C   UNL     1       4.254   6.267  -5.742  0.00  0.00    +0.119 C 
BRANCH  11  12
ATOM     12  N   UNL     1       4.417   5.992  -4.316  0.00  0.00    -0.307 N 
ATOM     13  C   UNL     1       4.552   6.918  -3.345  0.00  0.00    +0.179 A 
ATOM     14  N   UNL     1       4.300   6.395  -2.140  0.00  0.00    -0.222 NA
ATOM     15  C   UNL     1       4.218   5.052  -2.287  0.00  0.00    +0.119 A 
ATOM     16  C   UNL     1       4.130   4.850  -3.652  0.00  0.00    +0.098 A 
ENDBRANCH  11  12
ENDBRANCH   1  11
BRANCH   1  17
ATOM     17  S   UNL     1       1.860   6.752  -6.577  0.00  0.00    -0.111 S 
BRANCH  17  18
ATOM     18  C   UNL     1       0.246   6.115  -6.188  0.00  0.00    +0.046 A 
ATOM     19  C   UNL     1      -0.192   6.238  -4.886  0.00  0.00    +0.064 A 
ATOM     20 CL   UNL     1       0.977   6.344  -3.573  0.00  0.00    -0.082 Cl
ATOM     21  C   UNL     1      -1.559   6.227  -4.636  0.00  0.00    +0.012 A 
ATOM     22  C   UNL     1      -2.455   6.077  -5.683  0.00  0.00    +0.002 A 
ATOM     23  C   UNL     1      -1.948   5.632  -6.897  0.00  0.00    +0.012 A 
ATOM     24  C   UNL     1      -0.580   5.502  -7.103  0.00  0.00    +0.064 A 
ATOM     25 CL   UNL     1       0.095   5.050  -8.652  0.00  0.00    -0.082 Cl
ENDBRANCH  17  18
ENDBRANCH   1  17
TORSDOF 7
ENDMDL
MODEL 3
REMARK VINA RESULT:      -7.8      3.031      5.372
REMARK  Name = 
REMARK  7 active torsions:
REMARK  status: ('A' for Active; 'I' for Inactive)
REMARK    1  A    between atoms: C_5  and  C_6
REMARK    2  A    between atoms: C_6  and  C_7
REMARK    3  A    between atoms: C_7  and  C_8
REMARK    4  A    between atoms: C_8  and  C_9
REMARK    5  A    between atoms: C_8  and  S_15
REMARK    6  A    between atoms: C_9  and  N_10
REMARK    7  A    between atoms: S_15  and  C_16
REMARK                            x       y       z     vdW  Elec       q    Type
REMARK                         _______ _______ _______ _____ _____    ______ ____
ROOT
ATOM      1  C   UNL     1       2.508   6.052  -7.502  0.00  0.00    +0.075 C 
ENDROOT
BRANCH   1   2
ATOM      2  C   UNL     1       3.375   6.733  -6.355  0.00  0.00    +0.018 C 
BRANCH   2   3
ATOM      3  C   UNL     1       4.456   5.810  -5.906  0.00  0.00    +0.027 C 
BRANCH   3   8
ATOM      4 CL   UNL     1       4.825   6.789  -0.039  0.00  0.00    -0.082 Cl
ATOM      5  C   UNL     1       4.446   6.550  -1.674  0.00  0.00    +0.058 A 
ATOM      6  C   UNL     1       4.201   5.293  -2.178  0.00  0.00    +0.011 A 
ATOM      7  C   UNL     1       4.491   5.043  -3.510  0.00  0.00    -0.003 A 
ATOM      8  C   UNL     1       4.658   6.052  -4.442  0.00  0.00    -0.022 A 
ATOM      9  C   UNL     1       4.739   7.338  -3.943  0.00  0.00    -0.003 A 
ATOM     10  C   UNL     1       4.668   7.571  -2.577  0.00  0.00    +0.011 A 
ENDBRANCH   3   8
ENDBRANCH   2   3
ENDBRANCH   1   2
BRANCH   1  11
ATOM     11  C   UNL     1       3.643   5.054  -8.012  0.00  0.00    +0.119 C 
BRANCH  11  12
ATOM     12  N   UNL     1       3.804   5.463  -9.406  0.00  0.00    -0.307 N 
ATOM     13  C   UNL     1       4.928   5.338 -10.140  0.00  0.00    +0.179 A 
ATOM     14  N   UNL     1       4.664   5.436 -11.448  0.00  0.00    -0.222 NA
ATOM     15  C   UNL     1       3.385   5.857 -11.576  0.00  0.00    +0.119 A 
ATOM     16  C   UNL     1       2.835   5.707 -10.317  0.00  0.00    +0.098 A 
ENDBRANCH  11  12
ENDBRANCH   1  11
BRANCH   1  17
ATOM     17  S   UNL     1       1.715   4.768  -6.321  0.00  0.00    -0.111 S 
BRANCH  17  18
ATOM     18  C   UNL     1       0.131   5.476  -5.930  0.00  0.00    +0.046 A 
ATOM     19  C   UNL     1      -0.842   5.444  -6.908  0.00  0.00    +0.064 A 
ATOM     20 CL   UNL     1      -0.378   5.380  -8.606  0.00  0.00    -0.082 Cl
ATOM     21  C   UNL     1      -2.176   5.513  -6.526  0.00  0.00    +0.012 A 
ATOM     22  C   UNL     1      -2.510   5.628  -5.186  0.00  0.00    +0.002 A 
ATOM     23  C   UNL     1      -1.496   5.985  -4.305  0.00  0.00    +0.012 A 
ATOM     24  C   UNL     1      -0.173   6.061  -4.721  0.00  0.00    +0.064 A 
ATOM     25 CL   UNL     1       1.139   6.399  -3.615  0.00  0.00    -0.082 Cl
ENDBRANCH  17  18
ENDBRANCH   1  17
TORSDOF 7
ENDMDL
MODEL 4
REMARK VINA RESULT:      -7.7      0.742      1.842
REMARK  Name = 
REMARK  7 active torsions:
REMARK  status: ('A' for Active; 'I' for Inactive)
REMARK    1  A    between atoms: C_5  and  C_6
REMARK    2  A    between atoms: C_6  and  C_7
REMARK    3  A    between atoms: C_7  and  C_8
REMARK    4  A    between atoms: C_8  and  C_9
REMARK    5  A    between atoms: C_8  and  S_15
REMARK    6  A    between atoms: C_9  and  N_10
REMARK    7  A    between atoms: S_15  and  C_16
REMARK                            x       y       z     vdW  Elec       q    Type
REMARK                         _______ _______ _______ _____ _____    ______ ____
ROOT
ATOM      1  C   UNL     1       1.599   6.321  -8.889  0.00  0.00    +0.075 C 
ENDROOT
BRANCH   1   2
ATOM      2  C   UNL     1       3.084   6.887  -8.965  0.00  0.00    +0.018 C 
BRANCH   2   3
ATOM      3  C   UNL     1       4.048   5.882  -8.433  0.00  0.00    +0.027 C 
BRANCH   3   8
ATOM      4 CL   UNL     1       8.820   6.085 -11.996  0.00  0.00    -0.082 Cl
ATOM      5  C   UNL     1       7.560   6.267 -10.878  0.00  0.00    +0.058 A 
ATOM      6  C   UNL     1       7.622   5.695  -9.627  0.00  0.00    +0.011 A 
ATOM      7  C   UNL     1       6.439   5.338  -9.001  0.00  0.00    -0.003 A 
ATOM      8  C   UNL     1       5.208   5.845  -9.380  0.00  0.00    -0.022 A 
ATOM      9  C   UNL     1       5.179   6.562 -10.561  0.00  0.00    -0.003 A 
ATOM     10  C   UNL     1       6.334   6.736 -11.309  0.00  0.00    +0.011 A 
ENDBRANCH   3   8
ENDBRANCH   2   3
ENDBRANCH   1   2
BRANCH   1  11
ATOM     11  C   UNL     1       1.693   5.401 -10.189  0.00  0.00    +0.119 C 
BRANCH  11  12
ATOM     12  N   UNL     1       0.895   6.155 -11.153  0.00  0.00    -0.307 N 
ATOM     13  C   UNL     1      -0.252   6.813 -10.886  0.00  0.00    +0.179 A 
ATOM     14  N   UNL     1      -0.534   7.701 -11.845  0.00  0.00    -0.222 NA
ATOM     15  C   UNL     1       0.312   7.471 -12.876  0.00  0.00    +0.119 A 
ATOM     16  C   UNL     1       1.280   6.631 -12.359  0.00  0.00    +0.098 A 
ENDBRANCH  11  12
ENDBRANCH   1  11
BRANCH   1  17
ATOM     17  S   UNL     1       2.060   4.905  -7.683  0.00  0.00    -0.111 S 
BRANCH  17  18
ATOM     18  C   UNL     1       1.217   5.340  -6.179  0.00  0.00    +0.046 A 
ATOM     19  C   UNL     1       1.983   5.512  -5.044  0.00  0.00    +0.064 A 
ATOM     20 CL   UNL     1       3.532   4.686  -4.897  0.00  0.00    -0.082 Cl
ATOM     21  C   UNL     1       1.485   6.302  -4.015  0.00  0.00    +0.012 A 
ATOM     22  C   UNL     1       0.235   6.888  -4.131  0.00  0.00    +0.002 A 
ATOM     23  C   UNL     1      -0.602   6.410  -5.132  0.00  0.00    +0.012 A 
ATOM     24  C   UNL     1      -0.147   5.503  -6.080  0.00  0.00    +0.064 A 
ATOM     25 CL   UNL     1      -1.140   4.967  -7.417  0.00  0.00    -0.082 Cl
ENDBRANCH  17  18
ENDBRANCH   1  17
TORSDOF 7
ENDMDL
MODEL 5
REMARK VINA RESULT:      -7.6      3.699      6.016
REMARK  Name = 
REMARK  7 active torsions:
REMARK  status: ('A' for Active; 'I' for Inactive)
REMARK    1  A    between atoms: C_5  and  C_6
REMARK    2  A    between atoms: C_6  and  C_7
REMARK    3  A    between atoms: C_7  and  C_8
REMARK    4  A    between atoms: C_8  and  C_9
REMARK    5  A    between atoms: C_8  and  S_15
REMARK    6  A    between atoms: C_9  and  N_10
REMARK    7  A    between atoms: S_15  and  C_16
REMARK                            x       y       z     vdW  Elec       q    Type
REMARK                         _______ _______ _______ _____ _____    ______ ____
ROOT
ATOM      1  C   UNL     1       2.008   6.481  -6.330  0.00  0.00    +0.075 C 
ENDROOT
BRANCH   1   2
ATOM      2  C   UNL     1       3.125   6.877  -5.268  0.00  0.00    +0.018 C 
BRANCH   2   3
ATOM      3  C   UNL     1       3.749   5.651  -4.695  0.00  0.00    +0.027 C 
BRANCH   3   8
ATOM      4 CL   UNL     1       5.045   7.032   0.955  0.00  0.00    -0.082 Cl
ATOM      5  C   UNL     1       4.411   6.687  -0.578  0.00  0.00    +0.058 A 
ATOM      6  C   UNL     1       4.077   5.403  -0.945  0.00  0.00    +0.011 A 
ATOM      7  C   UNL     1       4.151   5.054  -2.284  0.00  0.00    -0.003 A 
ATOM      8  C   UNL     1       4.181   5.991  -3.302  0.00  0.00    -0.022 A 
ATOM      9  C   UNL     1       4.354   7.307  -2.917  0.00  0.00    -0.003 A 
ATOM     10  C   UNL     1       4.501   7.637  -1.577  0.00  0.00    +0.011 A 
ENDBRANCH   3   8
ENDBRANCH   2   3
ENDBRANCH   1   2
BRANCH   1  11
ATOM     11  C   UNL     1       2.933   5.528  -7.213  0.00  0.00    +0.119 C 
BRANCH  11  12
ATOM     12  N   UNL     1       2.294   5.612  -8.524  0.00  0.00    -0.307 N 
ATOM     13  C   UNL     1       1.934   4.565  -9.295  0.00  0.00    +0.179 A 
ATOM     14  N   UNL     1       1.050   4.935 -10.229  0.00  0.00    -0.222 NA
ATOM     15  C   UNL     1       0.994   6.286 -10.226  0.00  0.00    +0.119 A 
ATOM     16  C   UNL     1       1.640   6.666  -9.064  0.00  0.00    +0.098 A 
ENDBRANCH  11  12
ENDBRANCH   1  11
BRANCH   1  17
ATOM     17  S   UNL     1       1.311   5.051  -5.263  0.00  0.00    -0.111 S 
BRANCH  17  18
ATOM     18  C   UNL     1      -0.289   5.641  -4.759  0.00  0.00    +0.046 A 
ATOM     19  C   UNL     1      -0.483   5.895  -3.417  0.00  0.00    +0.064 A 
ATOM     20 CL   UNL     1       0.486   5.047  -2.214  0.00  0.00    -0.082 Cl
ATOM     21  C   UNL     1      -1.481   6.786  -3.042  0.00  0.00    +0.012 A 
ATOM     22  C   UNL     1      -2.271   7.389  -4.007  0.00  0.00    +0.002 A 
ATOM     23  C   UNL     1      -2.244   6.845  -5.285  0.00  0.00    +0.012 A 
ATOM     24  C   UNL     1      -1.341   5.844  -5.624  0.00  0.00    +0.064 A 
ATOM     25 CL   UNL     1      -1.206   5.215  -7.250  0.00  0.00    -0.082 Cl
ENDBRANCH  17  18
ENDBRANCH   1  17
TORSDOF 7
ENDMDL
MODEL 6
REMARK VINA RESULT:      -7.6      3.114      8.235
REMARK  Name = 
REMARK  7 active torsions:
REMARK  status: ('A' for Active; 'I' for Inactive)
REMARK    1  A    between atoms: C_5  and  C_6
REMARK    2  A    between atoms: C_6  and  C_7
REMARK    3  A    between atoms: C_7  and  C_8
REMARK    4  A    between atoms: C_8  and  C_9
REMARK    5  A    between atoms: C_8  and  S_15
REMARK    6  A    between atoms: C_9  and  N_10
REMARK    7  A    between atoms: S_15  and  C_16
REMARK                            x       y       z     vdW  Elec       q    Type
REMARK                         _______ _______ _______ _____ _____    ______ ____
ROOT
ATOM      1  C   UNL     1       1.975   5.568  -6.798  0.00  0.00    +0.075 C 
ENDROOT
BRANCH   1   2
ATOM      2  C   UNL     1       0.642   4.828  -6.340  0.00  0.00    +0.018 C 
BRANCH   2   3
ATOM      3  C   UNL     1      -0.523   5.751  -6.449  0.00  0.00    +0.027 C 
BRANCH   3   8
ATOM      4 CL   UNL     1      -2.009   7.544  -0.964  0.00  0.00    -0.082 Cl
ATOM      5  C   UNL     1      -1.833   6.904  -2.523  0.00  0.00    +0.058 A 
ATOM      6  C   UNL     1      -1.203   5.699  -2.739  0.00  0.00    +0.011 A 
ATOM      7  C   UNL     1      -0.554   5.496  -3.946  0.00  0.00    -0.003 A 
ATOM      8  C   UNL     1      -0.805   6.262  -5.070  0.00  0.00    -0.022 A 
ATOM      9  C   UNL     1      -1.580   7.391  -4.880  0.00  0.00    -0.003 A 
ATOM     10  C   UNL     1      -2.053   7.718  -3.618  0.00  0.00    +0.011 A 
ENDBRANCH   3   8
ENDBRANCH   2   3
ENDBRANCH   1   2
BRANCH   1  11
ATOM     11  C   UNL     1       2.911   4.969  -5.653  0.00  0.00    +0.119 C 
BRANCH  11  12
ATOM     12  N   UNL     1       3.453   6.178  -5.038  0.00  0.00    -0.307 N 
ATOM     13  C   UNL     1       2.842   6.926  -4.096  0.00  0.00    +0.179 A 
ATOM     14  N   UNL     1       3.717   7.720  -3.468  0.00  0.00    -0.222 NA
ATOM     15  C   UNL     1       4.882   7.667  -4.153  0.00  0.00    +0.119 A 
ATOM     16  C   UNL     1       4.740   6.591  -5.010  0.00  0.00    +0.098 A 
ENDBRANCH  11  12
ENDBRANCH   1  11
BRANCH   1  17
ATOM     17  S   UNL     1       2.440   4.220  -8.078  0.00  0.00    -0.111 S 
BRANCH  17  18
ATOM     18  C   UNL     1       3.006   5.151  -9.484  0.00  0.00    +0.046 A 
ATOM     19  C   UNL     1       4.368   5.258  -9.674  0.00  0.00    +0.064 A 
ATOM     20 CL   UNL     1       5.459   5.122  -8.297  0.00  0.00    -0.082 Cl
ATOM     21  C   UNL     1       4.847   5.520 -10.952  0.00  0.00    +0.012 A 
ATOM     22  C   UNL     1       3.961   5.685 -12.004  0.00  0.00    +0.002 A 
ATOM     23  C   UNL     1       2.625   5.894 -11.687  0.00  0.00    +0.012 A 
ATOM     24  C   UNL     1       2.168   5.776 -10.380  0.00  0.00    +0.064 A 
ATOM     25 CL   UNL     1       0.475   5.924  -9.963  0.00  0.00    -0.082 Cl
ENDBRANCH  17  18
ENDBRANCH   1  17
TORSDOF 7
ENDMDL
MODEL 7
REMARK VINA RESULT:      -7.6      2.846      4.198
REMARK  Name = 
REMARK  7 active torsions:
REMARK  status: ('A' for Active; 'I' for Inactive)
REMARK    1  A    between atoms: C_5  and  C_6
REMARK    2  A    between atoms: C_6  and  C_7
REMARK    3  A    between atoms: C_7  and  C_8
REMARK    4  A    between atoms: C_8  and  C_9
REMARK    5  A    between atoms: C_8  and  S_15
REMARK    6  A    between atoms: C_9  and  N_10
REMARK    7  A    between atoms: S_15  and  C_16
REMARK                            x       y       z     vdW  Elec       q    Type
REMARK                         _______ _______ _______ _____ _____    ______ ____
ROOT
ATOM      1  C   UNL     1       1.677   6.820  -5.842  0.00  0.00    +0.075 C 
ENDROOT
BRANCH   1   2
ATOM      2  C   UNL     1       2.546   6.818  -7.174  0.00  0.00    +0.018 C 
BRANCH   2   3
ATOM      3  C   UNL     1       3.487   5.662  -7.175  0.00  0.00    +0.027 C 
BRANCH   3   8
ATOM      4 CL   UNL     1       6.985   6.421 -11.939  0.00  0.00    -0.082 Cl
ATOM      5  C   UNL     1       6.117   6.432 -10.484  0.00  0.00    +0.058 A 
ATOM      6  C   UNL     1       6.541   5.714  -9.389  0.00  0.00    +0.011 A 
ATOM      7  C   UNL     1       5.594   5.253  -8.489  0.00  0.00    -0.003 A 
ATOM      8  C   UNL     1       4.312   5.770  -8.420  0.00  0.00    -0.022 A 
ATOM      9  C   UNL     1       3.942   6.625  -9.440  0.00  0.00    -0.003 A 
ATOM     10  C   UNL     1       4.824   6.919 -10.470  0.00  0.00    +0.011 A 
ENDBRANCH   3   8
ENDBRANCH   2   3
ENDBRANCH   1   2
BRANCH   1  11
ATOM     11  C   UNL     1       0.544   5.828  -6.368  0.00  0.00    +0.119 C 
BRANCH  11  12
ATOM     12  N   UNL     1      -0.657   6.380  -5.744  0.00  0.00    -0.307 N 
ATOM     13  C   UNL     1      -1.811   5.715  -5.530  0.00  0.00    +0.179 A 
ATOM     14  N   UNL     1      -2.568   6.340  -4.622  0.00  0.00    -0.222 NA
ATOM     15  C   UNL     1      -2.015   7.555  -4.397  0.00  0.00    +0.119 A 
ATOM     16  C   UNL     1      -0.760   7.485  -4.972  0.00  0.00    +0.098 A 
ENDBRANCH  11  12
ENDBRANCH   1  11
BRANCH   1  17
ATOM     17  S   UNL     1       2.704   5.432  -5.012  0.00  0.00    -0.111 S 
BRANCH  17  18
ATOM     18  C   UNL     1       3.037   6.068  -3.385  0.00  0.00    +0.046 A 
ATOM     19  C   UNL     1       2.223   5.643  -2.354  0.00  0.00    +0.064 A 
ATOM     20 CL   UNL     1       0.581   5.107  -2.696  0.00  0.00    -0.082 Cl
ATOM     21  C   UNL     1       2.710   5.695  -1.053  0.00  0.00    +0.012 A 
ATOM     22  C   UNL     1       3.983   6.183  -0.808  0.00  0.00    +0.002 A 
ATOM     23  C   UNL     1       4.604   6.889  -1.830  0.00  0.00    +0.012 A 
ATOM     24  C   UNL     1       4.044   6.962  -3.099  0.00  0.00    +0.064 A 
ATOM     25 CL   UNL     1       4.852   7.750  -4.436  0.00  0.00    -0.082 Cl
ENDBRANCH  17  18
ENDBRANCH   1  17
TORSDOF 7
ENDMDL
MODEL 8
REMARK VINA RESULT:      -7.4      3.021      4.712
REMARK  Name = 
REMARK  7 active torsions:
REMARK  status: ('A' for Active; 'I' for Inactive)
REMARK    1  A    between atoms: C_5  and  C_6
REMARK    2  A    between atoms: C_6  and  C_7
REMARK    3  A    between atoms: C_7  and  C_8
REMARK    4  A    between atoms: C_8  and  C_9
REMARK    5  A    between atoms: C_8  and  S_15
REMARK    6  A    between atoms: C_9  and  N_10
REMARK    7  A    between atoms: S_15  and  C_16
REMARK                            x       y       z     vdW  Elec       q    Type
REMARK                         _______ _______ _______ _____ _____    ______ ____
ROOT
ATOM      1  C   UNL     1       3.533   4.909  -7.035  0.00  0.00    +0.075 C 
ENDROOT
BRANCH   1   2
ATOM      2  C   UNL     1       4.116   4.815  -8.513  0.00  0.00    +0.018 C 
BRANCH   2   3
ATOM      3  C   UNL     1       4.222   6.174  -9.114  0.00  0.00    +0.027 C 
BRANCH   3   8
ATOM      4 CL   UNL     1       9.145   5.845 -12.456  0.00  0.00    -0.082 Cl
ATOM      5  C   UNL     1       7.717   5.666 -11.561  0.00  0.00    +0.058 A 
ATOM      6  C   UNL     1       6.483   5.903 -12.122  0.00  0.00    +0.011 A 
ATOM      7  C   UNL     1       5.453   6.336 -11.303  0.00  0.00    -0.003 A 
ATOM      8  C   UNL     1       5.480   6.195  -9.927  0.00  0.00    -0.022 A 
ATOM      9  C   UNL     1       6.683   5.797  -9.376  0.00  0.00    -0.003 A 
ATOM     10  C   UNL     1       7.788   5.572 -10.184  0.00  0.00    +0.011 A 
ENDBRANCH   3   8
ENDBRANCH   2   3
ENDBRANCH   1   2
BRANCH   1  11
ATOM     11  C   UNL     1       4.852   5.502  -6.362  0.00  0.00    +0.119 C 
BRANCH  11  12
ATOM     12  N   UNL     1       4.447   5.634  -4.964  0.00  0.00    -0.307 N 
ATOM     13  C   UNL     1       3.926   4.654  -4.197  0.00  0.00    +0.179 A 
ATOM     14  N   UNL     1       4.017   4.957  -2.898  0.00  0.00    -0.222 NA
ATOM     15  C   UNL     1       4.394   6.253  -2.807  0.00  0.00    +0.119 A 
ATOM     16  C   UNL     1       4.809   6.592  -4.081  0.00  0.00    +0.098 A 
ENDBRANCH  11  12
ENDBRANCH   1  11
BRANCH   1  17
ATOM     17  S   UNL     1       2.736   6.629  -7.319  0.00  0.00    -0.111 S 
BRANCH  17  18
ATOM     18  C   UNL     1       0.998   6.333  -7.087  0.00  0.00    +0.046 A 
ATOM     19  C   UNL     1       0.247   6.033  -8.205  0.00  0.00    +0.064 A 
ATOM     20 CL   UNL     1       0.772   6.593  -9.791  0.00  0.00    -0.082 Cl
ATOM     21  C   UNL     1      -0.942   5.332  -8.044  0.00  0.00    +0.012 A 
ATOM     22  C   UNL     1      -1.362   4.960  -6.777  0.00  0.00    +0.002 A 
ATOM     23  C   UNL     1      -0.743   5.573  -5.695  0.00  0.00    +0.012 A 
ATOM     24  C   UNL     1       0.362   6.397  -5.868  0.00  0.00    +0.064 A 
ATOM     25 CL   UNL     1       1.232   7.094  -4.520  0.00  0.00    -0.082 Cl
ENDBRANCH  17  18
ENDBRANCH   1  17
TORSDOF 7
ENDMDL
MODEL 9
REMARK VINA RESULT:      -7.3      3.820      5.774
REMARK  Name = 
REMARK  7 active torsions:
REMARK  status: ('A' for Active; 'I' for Inactive)
REMARK    1  A    between atoms: C_5  and  C_6
REMARK    2  A    between atoms: C_6  and  C_7
REMARK    3  A    between atoms: C_7  and  C_8
REMARK    4  A    between atoms: C_8  and  C_9
REMARK    5  A    between atoms: C_8  and  S_15
REMARK    6  A    between atoms: C_9  and  N_10
REMARK    7  A    between atoms: S_15  and  C_16
REMARK                            x       y       z     vdW  Elec       q    Type
REMARK                         _______ _______ _______ _____ _____    ______ ____
ROOT
ATOM      1  C   UNL     1       1.336   5.807  -6.097  0.00  0.00    +0.075 C 
ENDROOT
BRANCH   1   2
ATOM      2  C   UNL     1       0.664   5.924  -7.535  0.00  0.00    +0.018 C 
BRANCH   2   3
ATOM      3  C   UNL     1       1.305   4.970  -8.484  0.00  0.00    +0.027 C 
BRANCH   3   8
ATOM      4 CL   UNL     1       0.366   7.320 -13.879  0.00  0.00    -0.082 Cl
ATOM      5  C   UNL     1       0.744   6.900 -12.281  0.00  0.00    +0.058 A 
ATOM      6  C   UNL     1       1.935   6.289 -11.962  0.00  0.00    +0.011 A 
ATOM      7  C   UNL     1       1.976   5.448 -10.862  0.00  0.00    -0.003 A 
ATOM      8  C   UNL     1       1.015   5.469  -9.866  0.00  0.00    -0.022 A 
ATOM      9  C   UNL     1      -0.116   6.220 -10.123  0.00  0.00    -0.003 A 
ATOM     10  C   UNL     1      -0.257   6.894 -11.328  0.00  0.00    +0.011 A 
ENDBRANCH   3   8
ENDBRANCH   2   3
ENDBRANCH   1   2
BRANCH   1  11
ATOM     11  C   UNL     1       2.515   6.847  -6.369  0.00  0.00    +0.119 C 
BRANCH  11  12
ATOM     12  N   UNL     1       3.560   6.364  -5.468  0.00  0.00    -0.307 N 
ATOM     13  C   UNL     1       4.166   7.087  -4.504  0.00  0.00    +0.179 A 
ATOM     14  N   UNL     1       4.780   6.293  -3.619  0.00  0.00    -0.222 NA
ATOM     15  C   UNL     1       4.775   5.038  -4.125  0.00  0.00    +0.119 A 
ATOM     16  C   UNL     1       3.880   5.083  -5.177  0.00  0.00    +0.098 A 
ENDBRANCH  11  12
ENDBRANCH   1  11
BRANCH   1  17
ATOM     17  S   UNL     1       0.179   7.111  -5.304  0.00  0.00    -0.111 S 
BRANCH  17  18
ATOM     18  C   UNL     1      -0.895   6.147  -4.264  0.00  0.00    +0.046 A 
ATOM     19  C   UNL     1      -0.458   5.860  -2.987  0.00  0.00    +0.064 A 
ATOM     20 CL   UNL     1       1.268   5.811  -2.640  0.00  0.00    -0.082 Cl
ATOM     21  C   UNL     1      -1.401   5.566  -2.009  0.00  0.00    +0.012 A 
ATOM     22  C   UNL     1      -2.749   5.549  -2.327  0.00  0.00    +0.002 A 
ATOM     23  C   UNL     1      -3.086   5.517  -3.675  0.00  0.00    +0.012 A 
ATOM     24  C   UNL     1      -2.121   5.664  -4.663  0.00  0.00    +0.064 A 
ATOM     25 CL   UNL     1      -2.525   5.738  -6.363  0.00  0.00    -0.082 Cl
ENDBRANCH  17  18
ENDBRANCH   1  17
TORSDOF 7
ENDMDL
