MODEL 1
REMARK VINA RESULT:      -8.0      0.000      0.000
REMARK  Name = 
REMARK  6 active torsions:
REMARK  status: ('A' for Active; 'I' for Inactive)
REMARK    1  A    between atoms: C_5  and  C_6
REMARK    2  A    between atoms: C_6  and  C_7
REMARK    3  A    between atoms: C_6  and  O_13
REMARK    4  A    between atoms: C_7  and  N_8
REMARK    5  A    between atoms: O_13  and  C_14
REMARK    6  A    between atoms: C_14  and  C_15
REMARK                            x       y       z     vdW  Elec       q    Type
REMARK                         _______ _______ _______ _____ _____    ______ ____
ROOT
ATOM      1  C   UNL     1      -0.046   5.884  -5.701  0.00  0.00    +0.161 C 
ENDROOT
BRANCH   1   7
ATOM      2 CL   UNL     1       5.441   7.712  -4.081  0.00  0.00    -0.082 Cl
ATOM      3  C   UNL     1       3.963   6.975  -4.606  0.00  0.00    +0.058 A 
ATOM      4  C   UNL     1       3.078   6.529  -3.640  0.00  0.00    +0.023 A 
ATOM      5  C   UNL     1       1.793   6.189  -4.021  0.00  0.00    +0.057 A 
ATOM      6 CL   UNL     1       0.829   5.120  -2.999  0.00  0.00    -0.082 Cl
ATOM      7  C   UNL     1       1.240   6.779  -5.158  0.00  0.00    +0.017 A 
ATOM      8  C   UNL     1       2.166   6.947  -6.190  0.00  0.00    -0.000 A 
ATOM      9  C   UNL     1       3.532   6.992  -5.924  0.00  0.00    +0.011 A 
ENDBRANCH   1   7
BRANCH   1  10
ATOM     10  O   UNL     1       0.119   6.413  -7.152  0.00  0.00    -0.345 OA
BRANCH  10  11
ATOM     11  C   UNL     1      -0.268   5.380  -7.956  0.00  0.00    +0.170 C 
BRANCH  11  12
ATOM     12  C   UNL     1       0.457   5.370  -9.268  0.00  0.00    +0.014 A 
ATOM     13  C   UNL     1       1.773   4.942  -9.394  0.00  0.00    +0.006 A 
ATOM     14  C   UNL     1       2.513   4.132  -8.540  0.00  0.00    +0.000 A 
ATOM     15  C   UNL     1       3.900   4.213  -8.545  0.00  0.00    +0.001 A 
ATOM     16  C   UNL     1       4.597   5.060  -9.370  0.00  0.00    +0.012 A 
ATOM     17  C   UNL     1       3.857   5.699 -10.349  0.00  0.00    +0.064 A 
ATOM     18 CL   UNL     1       4.654   6.772 -11.466  0.00  0.00    -0.082 Cl
ATOM     19  C   UNL     1       2.471   5.782 -10.248  0.00  0.00    +0.040 A 
ATOM     20  S   UNL     1       1.250   6.135 -11.405  0.00  0.00    -0.086 S 
ATOM     21  C   UNL     1      -0.109   5.554 -10.524  0.00  0.00    +0.034 A 
ENDBRANCH  11  12
ENDBRANCH  10  11
ENDBRANCH   1  10
BRANCH   1  22
ATOM     22  C   UNL     1      -1.147   7.084  -5.273  0.00  0.00    +0.142 C 
BRANCH  22  23
ATOM     23  N   UNL     1      -1.924   6.597  -4.199  0.00  0.00    -0.305 N 
ATOM     24  C   UNL     1      -2.593   5.422  -4.292  0.00  0.00    +0.179 A 
ATOM     25  N   UNL     1      -3.237   5.134  -3.169  0.00  0.00    -0.222 NA
ATOM     26  C   UNL     1      -2.997   6.127  -2.324  0.00  0.00    +0.119 A 
ATOM     27  C   UNL     1      -2.286   7.104  -3.008  0.00  0.00    +0.098 A 
ENDBRANCH  22  23
ENDBRANCH   1  22
TORSDOF 6
ENDMDL
MODEL 2
REMARK VINA RESULT:      -7.7      3.268      7.126
REMARK  Name = 
REMARK  6 active torsions:
REMARK  status: ('A' for Active; 'I' for Inactive)
REMARK    1  A    between atoms: C_5  and  C_6
REMARK    2  A    between atoms: C_6  and  C_7
REMARK    3  A    between atoms: C_6  and  O_13
REMARK    4  A    between atoms: C_7  and  N_8
REMARK    5  A    between atoms: O_13  and  C_14
REMARK    6  A    between atoms: C_14  and  C_15
REMARK                            x       y       z     vdW  Elec       q    Type
REMARK                         _______ _______ _______ _____ _____    ______ ____
ROOT
ATOM      1  C   UNL     1       3.855   5.920  -8.691  0.00  0.00    +0.161 C 
ENDROOT
BRANCH   1   7
ATOM      2 CL   UNL     1       8.864   5.492 -11.977  0.00  0.00    -0.082 Cl
ATOM      3  C   UNL     1       7.468   5.852 -11.015  0.00  0.00    +0.058 A 
ATOM      4  C   UNL     1       6.239   5.913 -11.648  0.00  0.00    +0.023 A 
ATOM      5  C   UNL     1       5.092   5.930 -10.874  0.00  0.00    +0.057 A 
ATOM      6 CL   UNL     1       3.588   6.557 -11.550  0.00  0.00    -0.082 Cl
ATOM      7  C   UNL     1       5.119   5.356  -9.603  0.00  0.00    +0.017 A 
ATOM      8  C   UNL     1       6.322   5.578  -8.930  0.00  0.00    -0.000 A 
ATOM      9  C   UNL     1       7.488   5.879  -9.628  0.00  0.00    +0.011 A 
ENDBRANCH   1   7
BRANCH   1  10
ATOM     10  O   UNL     1       4.538   5.492  -7.364  0.00  0.00    -0.345 OA
BRANCH  10  11
ATOM     11  C   UNL     1       4.002   6.303  -6.406  0.00  0.00    +0.170 C 
BRANCH  11  12
ATOM     12  C   UNL     1       3.775   5.587  -5.109  0.00  0.00    +0.014 A 
ATOM     13  C   UNL     1       2.506   5.255  -4.648  0.00  0.00    +0.006 A 
ATOM     14  C   UNL     1       1.320   5.138  -5.365  0.00  0.00    +0.000 A 
ATOM     15  C   UNL     1       0.104   5.294  -4.713  0.00  0.00    +0.001 A 
ATOM     16  C   UNL     1       0.003   5.556  -3.368  0.00  0.00    +0.012 A 
ATOM     17  C   UNL     1       1.178   5.461  -2.644  0.00  0.00    +0.064 A 
ATOM     18 CL   UNL     1       1.152   5.745  -0.924  0.00  0.00    -0.082 Cl
ATOM     19  C   UNL     1       2.413   5.494  -3.286  0.00  0.00    +0.040 A 
ATOM     20  S   UNL     1       3.988   5.031  -2.780  0.00  0.00    -0.086 S 
ATOM     21  C   UNL     1       4.744   4.974  -4.324  0.00  0.00    +0.034 A 
ENDBRANCH  11  12
ENDBRANCH  10  11
ENDBRANCH   1  10
BRANCH   1  22
ATOM     22  C   UNL     1       3.008   4.474  -8.849  0.00  0.00    +0.142 C 
BRANCH  22  23
ATOM     23  N   UNL     1       1.770   4.761  -9.463  0.00  0.00    -0.305 N 
ATOM     24  C   UNL     1       1.010   5.808  -9.058  0.00  0.00    +0.179 A 
ATOM     25  N   UNL     1      -0.098   5.920  -9.780  0.00  0.00    -0.222 NA
ATOM     26  C   UNL     1      -0.075   4.936 -10.669  0.00  0.00    +0.119 A 
ATOM     27  C   UNL     1       1.023   4.134 -10.389  0.00  0.00    +0.098 A 
ENDBRANCH  22  23
ENDBRANCH   1  22
TORSDOF 6
ENDMDL
MODEL 3
REMARK VINA RESULT:      -7.6      3.333      6.687
REMARK  Name = 
REMARK  6 active torsions:
REMARK  status: ('A' for Active; 'I' for Inactive)
REMARK    1  A    between atoms: C_5  and  C_6
REMARK    2  A    between atoms: C_6  and  C_7
REMARK    3  A    between atoms: C_6  and  O_13
REMARK    4  A    between atoms: C_7  and  N_8
REMARK    5  A    between atoms: O_13  and  C_14
REMARK    6  A    between atoms: C_14  and  C_15
REMARK                            x       y       z     vdW  Elec       q    Type
REMARK                         _______ _______ _______ _____ _____    ______ ____
ROOT
ATOM      1  C   UNL     1       3.375   5.946  -8.841  0.00  0.00    +0.161 C 
ENDROOT
BRANCH   1   7
ATOM      2 CL   UNL     1       8.697   5.325 -11.555  0.00  0.00    -0.082 Cl
ATOM      3  C   UNL     1       7.217   5.738 -10.753  0.00  0.00    +0.058 A 
ATOM      4  C   UNL     1       6.069   5.842 -11.517  0.00  0.00    +0.023 A 
ATOM      5  C   UNL     1       4.845   5.903 -10.874  0.00  0.00    +0.057 A 
ATOM      6 CL   UNL     1       3.448   6.581 -11.712  0.00  0.00    -0.082 Cl
ATOM      7  C   UNL     1       4.711   5.333  -9.608  0.00  0.00    +0.017 A 
ATOM      8  C   UNL     1       5.840   5.515  -8.806  0.00  0.00    -0.000 A 
ATOM      9  C   UNL     1       7.086   5.770  -9.372  0.00  0.00    +0.011 A 
ENDBRANCH   1   7
BRANCH   1  10
ATOM     10  O   UNL     1       3.858   5.435  -7.457  0.00  0.00    -0.345 OA
BRANCH  10  11
ATOM     11  C   UNL     1       2.877   4.589  -7.025  0.00  0.00    +0.170 C 
BRANCH  11  12
ATOM     12  C   UNL     1       2.127   5.132  -5.846  0.00  0.00    +0.014 A 
ATOM     13  C   UNL     1       0.739   5.196  -5.805  0.00  0.00    +0.006 A 
ATOM     14  C   UNL     1      -0.190   4.487  -6.558  0.00  0.00    +0.000 A 
ATOM     15  C   UNL     1      -1.462   5.010  -6.750  0.00  0.00    +0.001 A 
ATOM     16  C   UNL     1      -1.866   6.211  -6.220  0.00  0.00    +0.012 A 
ATOM     17  C   UNL     1      -1.002   6.793  -5.310  0.00  0.00    +0.064 A 
ATOM     18 CL   UNL     1      -1.436   8.303  -4.557  0.00  0.00    -0.082 Cl
ATOM     19  C   UNL     1       0.332   6.397  -5.245  0.00  0.00    +0.040 A 
ATOM     20  S   UNL     1       1.539   6.606  -4.040  0.00  0.00    -0.086 S 
ATOM     21  C   UNL     1       2.657   5.422  -4.594  0.00  0.00    +0.034 A 
ENDBRANCH  11  12
ENDBRANCH  10  11
ENDBRANCH   1  10
BRANCH   1  22
ATOM     22  C   UNL     1       2.473   4.561  -9.161  0.00  0.00    +0.142 C 
BRANCH  22  23
ATOM     23  N   UNL     1       1.346   4.943  -9.920  0.00  0.00    -0.305 N 
ATOM     24  C   UNL     1       0.728   6.131  -9.713  0.00  0.00    +0.179 A 
ATOM     25  N   UNL     1      -0.289   6.308 -10.547  0.00  0.00    -0.222 NA
ATOM     26  C   UNL     1      -0.348   5.227 -11.312  0.00  0.00    +0.119 A 
ATOM     27  C   UNL     1       0.587   4.317 -10.837  0.00  0.00    +0.098 A 
ENDBRANCH  22  23
ENDBRANCH   1  22
TORSDOF 6
ENDMDL
MODEL 4
REMARK VINA RESULT:      -7.5      2.835      4.883
REMARK  Name = 
REMARK  6 active torsions:
REMARK  status: ('A' for Active; 'I' for Inactive)
REMARK    1  A    between atoms: C_5  and  C_6
REMARK    2  A    between atoms: C_6  and  C_7
REMARK    3  A    between atoms: C_6  and  O_13
REMARK    4  A    between atoms: C_7  and  N_8
REMARK    5  A    between atoms: O_13  and  C_14
REMARK    6  A    between atoms: C_14  and  C_15
REMARK                            x       y       z     vdW  Elec       q    Type
REMARK                         _______ _______ _______ _____ _____    ______ ____
ROOT
ATOM      1  C   UNL     1       2.375   6.545  -6.869  0.00  0.00    +0.161 C 
ENDROOT
BRANCH   1   7
ATOM      2 CL   UNL     1      -3.254   4.801  -5.711  0.00  0.00    -0.082 Cl
ATOM      3  C   UNL     1      -1.723   5.524  -6.083  0.00  0.00    +0.058 A 
ATOM      4  C   UNL     1      -0.870   5.817  -5.035  0.00  0.00    +0.023 A 
ATOM      5  C   UNL     1       0.446   6.139  -5.318  0.00  0.00    +0.057 A 
ATOM      6 CL   UNL     1       1.400   7.042  -4.139  0.00  0.00    -0.082 Cl
ATOM      7  C   UNL     1       1.029   5.656  -6.489  0.00  0.00    +0.017 A 
ATOM      8  C   UNL     1       0.148   5.647  -7.573  0.00  0.00    -0.000 A 
ATOM      9  C   UNL     1      -1.230   5.634  -7.375  0.00  0.00    +0.011 A 
ENDBRANCH   1   7
BRANCH   1  10
ATOM     10  O   UNL     1       2.198   6.279  -8.389  0.00  0.00    -0.345 OA
BRANCH  10  11
ATOM     11  C   UNL     1       3.217   6.958  -8.993  0.00  0.00    +0.170 C 
BRANCH  11  12
ATOM     12  C   UNL     1       3.773   6.226 -10.177  0.00  0.00    +0.014 A 
ATOM     13  C   UNL     1       5.100   5.816 -10.248  0.00  0.00    +0.006 A 
ATOM     14  C   UNL     1       6.013   5.629  -9.216  0.00  0.00    +0.000 A 
ATOM     15  C   UNL     1       7.374   5.709  -9.480  0.00  0.00    +0.001 A 
ATOM     16  C   UNL     1       7.881   5.960 -10.731  0.00  0.00    +0.012 A 
ATOM     17  C   UNL     1       6.969   5.935 -11.771  0.00  0.00    +0.064 A 
ATOM     18 CL   UNL     1       7.517   6.211 -13.402  0.00  0.00    -0.082 Cl
ATOM     19  C   UNL     1       5.604   6.044 -11.519  0.00  0.00    +0.040 A 
ATOM     20  S   UNL     1       4.222   5.677 -12.474  0.00  0.00    -0.086 S 
ATOM     21  C   UNL     1       3.044   5.671 -11.221  0.00  0.00    +0.034 A 
ENDBRANCH  11  12
ENDBRANCH  10  11
ENDBRANCH   1  10
BRANCH   1  22
ATOM     22  C   UNL     1       3.394   5.224  -6.645  0.00  0.00    +0.142 C 
BRANCH  22  23
ATOM     23  N   UNL     1       3.984   5.342  -5.369  0.00  0.00    -0.305 N 
ATOM     24  C   UNL     1       4.761   6.407  -5.049  0.00  0.00    +0.179 A 
ATOM     25  N   UNL     1       5.195   6.340  -3.797  0.00  0.00    -0.222 NA
ATOM     26  C   UNL     1       4.705   5.220  -3.282  0.00  0.00    +0.119 A 
ATOM     27  C   UNL     1       4.059   4.531  -4.299  0.00  0.00    +0.098 A 
ENDBRANCH  22  23
ENDBRANCH   1  22
TORSDOF 6
ENDMDL
MODEL 5
REMARK VINA RESULT:      -7.4      3.252      6.818
REMARK  Name = 
REMARK  6 active torsions:
REMARK  status: ('A' for Active; 'I' for Inactive)
REMARK    1  A    between atoms: C_5  and  C_6
REMARK    2  A    between atoms: C_6  and  C_7
REMARK    3  A    between atoms: C_6  and  O_13
REMARK    4  A    between atoms: C_7  and  N_8
REMARK    5  A    between atoms: O_13  and  C_14
REMARK    6  A    between atoms: C_14  and  C_15
REMARK                            x       y       z     vdW  Elec       q    Type
REMARK                         _______ _______ _______ _____ _____    ______ ____
ROOT
ATOM      1  C   UNL     1       2.726   5.711  -8.251  0.00  0.00    +0.161 C 
ENDROOT
BRANCH   1   7
ATOM      2 CL   UNL     1       0.701   7.333 -13.667  0.00  0.00    -0.082 Cl
ATOM      3  C   UNL     1       1.196   6.646 -12.155  0.00  0.00    +0.058 A 
ATOM      4  C   UNL     1       2.531   6.318 -11.995  0.00  0.00    +0.023 A 
ATOM      5  C   UNL     1       2.996   6.025 -10.725  0.00  0.00    +0.057 A 
ATOM      6 CL   UNL     1       4.476   5.085 -10.530  0.00  0.00    -0.082 Cl
ATOM      7  C   UNL     1       2.342   6.566  -9.618  0.00  0.00    +0.017 A 
ATOM      8  C   UNL     1       0.955   6.611  -9.773  0.00  0.00    -0.000 A 
ATOM      9  C   UNL     1       0.375   6.598 -11.038  0.00  0.00    +0.011 A 
ENDBRANCH   1   7
BRANCH   1  10
ATOM     10  O   UNL     1       1.234   5.569  -7.846  0.00  0.00    -0.345 OA
BRANCH  10  11
ATOM     11  C   UNL     1       1.208   4.570  -6.916  0.00  0.00    +0.170 C 
BRANCH  11  12
ATOM     12  C   UNL     1       0.598   5.007  -5.618  0.00  0.00    +0.014 A 
ATOM     13  C   UNL     1      -0.722   5.432  -5.517  0.00  0.00    +0.006 A 
ATOM     14  C   UNL     1      -1.785   5.194  -6.381  0.00  0.00    +0.000 A 
ATOM     15  C   UNL     1      -2.862   6.071  -6.404  0.00  0.00    +0.001 A 
ATOM     16  C   UNL     1      -2.942   7.180  -5.598  0.00  0.00    +0.012 A 
ATOM     17  C   UNL     1      -1.981   7.280  -4.608  0.00  0.00    +0.064 A 
ATOM     18 CL   UNL     1      -2.014   8.635  -3.512  0.00  0.00    -0.082 Cl
ATOM     19  C   UNL     1      -0.807   6.535  -4.681  0.00  0.00    +0.040 A 
ATOM     20  S   UNL     1       0.375   6.126  -3.502  0.00  0.00    -0.086 S 
ATOM     21  C   UNL     1       1.147   4.845  -4.353  0.00  0.00    +0.034 A 
ENDBRANCH  11  12
ENDBRANCH  10  11
ENDBRANCH   1  10
BRANCH   1  22
ATOM     22  C   UNL     1       2.950   7.117  -7.353  0.00  0.00    +0.142 C 
BRANCH  22  23
ATOM     23  N   UNL     1       3.663   6.776  -6.183  0.00  0.00    -0.305 N 
ATOM     24  C   UNL     1       4.353   5.613  -6.094  0.00  0.00    +0.179 A 
ATOM     25  N   UNL     1       4.973   5.498  -4.927  0.00  0.00    -0.222 NA
ATOM     26  C   UNL     1       4.689   6.592  -4.234  0.00  0.00    +0.119 A 
ATOM     27  C   UNL     1       3.766   7.330  -4.962  0.00  0.00    +0.098 A 
ENDBRANCH  22  23
ENDBRANCH   1  22
TORSDOF 6
ENDMDL
MODEL 6
REMARK VINA RESULT:      -7.4      3.335      6.920
REMARK  Name = 
REMARK  6 active torsions:
REMARK  status: ('A' for Active; 'I' for Inactive)
REMARK    1  A    between atoms: C_5  and  C_6
REMARK    2  A    between atoms: C_6  and  C_7
REMARK    3  A    between atoms: C_6  and  O_13
REMARK    4  A    between atoms: C_7  and  N_8
REMARK    5  A    between atoms: O_13  and  C_14
REMARK    6  A    between atoms: C_14  and  C_15
REMARK                            x       y       z     vdW  Elec       q    Type
REMARK                         _______ _______ _______ _____ _____    ______ ____
ROOT
ATOM      1  C   UNL     1       3.681   5.979  -8.858  0.00  0.00    +0.161 C 
ENDROOT
BRANCH   1   7
ATOM      2 CL   UNL     1       8.823   5.485 -11.920  0.00  0.00    -0.082 Cl
ATOM      3  C   UNL     1       7.391   5.863 -11.021  0.00  0.00    +0.058 A 
ATOM      4  C   UNL     1       6.193   5.941 -11.706  0.00  0.00    +0.023 A 
ATOM      5  C   UNL     1       5.013   5.973 -10.984  0.00  0.00    +0.057 A 
ATOM      6 CL   UNL     1       3.548   6.620 -11.725  0.00  0.00    -0.082 Cl
ATOM      7  C   UNL     1       4.977   5.398  -9.713  0.00  0.00    +0.017 A 
ATOM      8  C   UNL     1       6.152   5.604  -8.988  0.00  0.00    -0.000 A 
ATOM      9  C   UNL     1       7.351   5.889  -9.634  0.00  0.00    +0.011 A 
ENDBRANCH   1   7
BRANCH   1  10
ATOM     10  O   UNL     1       4.299   5.540  -7.503  0.00  0.00    -0.345 OA
BRANCH  10  11
ATOM     11  C   UNL     1       3.278   4.947  -6.818  0.00  0.00    +0.170 C 
BRANCH  11  12
ATOM     12  C   UNL     1       2.629   5.875  -5.835  0.00  0.00    +0.014 A 
ATOM     13  C   UNL     1       3.361   6.666  -4.956  0.00  0.00    +0.006 A 
ATOM     14  C   UNL     1       4.692   7.060  -5.037  0.00  0.00    +0.000 A 
ATOM     15  C   UNL     1       5.378   7.405  -3.880  0.00  0.00    +0.001 A 
ATOM     16  C   UNL     1       4.802   7.385  -2.634  0.00  0.00    +0.012 A 
ATOM     17  C   UNL     1       3.432   7.193  -2.602  0.00  0.00    +0.064 A 
ATOM     18 CL   UNL     1       2.601   7.183  -1.070  0.00  0.00    -0.082 Cl
ATOM     19  C   UNL     1       2.764   6.668  -3.705  0.00  0.00    +0.040 A 
ATOM     20  S   UNL     1       1.104   6.658  -4.150  0.00  0.00    -0.086 S 
ATOM     21  C   UNL     1       1.290   6.244  -5.809  0.00  0.00    +0.034 A 
ENDBRANCH  11  12
ENDBRANCH  10  11
ENDBRANCH   1  10
BRANCH   1  22
ATOM     22  C   UNL     1       2.822   4.544  -9.055  0.00  0.00    +0.142 C 
BRANCH  22  23
ATOM     23  N   UNL     1       1.625   4.845  -9.740  0.00  0.00    -0.305 N 
ATOM     24  C   UNL     1       0.948   5.994  -9.499  0.00  0.00    +0.179 A 
ATOM     25  N   UNL     1      -0.132   6.097 -10.264  0.00  0.00    -0.222 NA
ATOM     26  C   UNL     1      -0.173   5.006 -11.016  0.00  0.00    +0.119 A 
ATOM     27  C   UNL     1       0.847   4.163 -10.598  0.00  0.00    +0.098 A 
ENDBRANCH  22  23
ENDBRANCH   1  22
TORSDOF 6
ENDMDL
MODEL 7
REMARK VINA RESULT:      -7.3      2.128      3.096
REMARK  Name = 
REMARK  6 active torsions:
REMARK  status: ('A' for Active; 'I' for Inactive)
REMARK    1  A    between atoms: C_5  and  C_6
REMARK    2  A    between atoms: C_6  and  C_7
REMARK    3  A    between atoms: C_6  and  O_13
REMARK    4  A    between atoms: C_7  and  N_8
REMARK    5  A    between atoms: O_13  and  C_14
REMARK    6  A    between atoms: C_14  and  C_15
REMARK                            x       y       z     vdW  Elec       q    Type
REMARK                         _______ _______ _______ _____ _____    ______ ____
ROOT
ATOM      1  C   UNL     1       2.308   5.878  -5.527  0.00  0.00    +0.161 C 
ENDROOT
BRANCH   1   7
ATOM      2 CL   UNL     1       4.380   8.338  -0.455  0.00  0.00    -0.082 Cl
ATOM      3  C   UNL     1       3.911   7.434  -1.857  0.00  0.00    +0.058 A 
ATOM      4  C   UNL     1       2.648   6.870  -1.876  0.00  0.00    +0.023 A 
ATOM      5  C   UNL     1       2.157   6.380  -3.074  0.00  0.00    +0.057 A 
ATOM      6 CL   UNL     1       0.856   5.188  -3.064  0.00  0.00    -0.082 Cl
ATOM      7  C   UNL     1       2.627   6.915  -4.273  0.00  0.00    +0.017 A 
ATOM      8  C   UNL     1       3.992   7.209  -4.240  0.00  0.00    -0.000 A 
ATOM      9  C   UNL     1       4.650   7.417  -3.031  0.00  0.00    +0.011 A 
ENDBRANCH   1   7
BRANCH   1  10
ATOM     10  O   UNL     1       3.536   6.378  -6.335  0.00  0.00    -0.345 OA
BRANCH  10  11
ATOM     11  C   UNL     1       3.985   5.285  -7.019  0.00  0.00    +0.170 C 
BRANCH  11  12
ATOM     12  C   UNL     1       4.065   5.525  -8.497  0.00  0.00    +0.014 A 
ATOM     13  C   UNL     1       5.272   5.568  -9.185  0.00  0.00    +0.006 A 
ATOM     14  C   UNL     1       6.509   5.054  -8.811  0.00  0.00    +0.000 A 
ATOM     15  C   UNL     1       7.669   5.599  -9.344  0.00  0.00    +0.001 A 
ATOM     16  C   UNL     1       7.665   6.635 -10.246  0.00  0.00    +0.012 A 
ATOM     17  C   UNL     1       6.429   6.987 -10.757  0.00  0.00    +0.064 A 
ATOM     18 CL   UNL     1       6.319   8.270 -11.932  0.00  0.00    -0.082 Cl
ATOM     19  C   UNL     1       5.257   6.596 -10.114  0.00  0.00    +0.040 A 
ATOM     20  S   UNL     1       3.623   6.518 -10.641  0.00  0.00    -0.086 S 
ATOM     21  C   UNL     1       3.003   5.509  -9.393  0.00  0.00    +0.034 A 
ENDBRANCH  11  12
ENDBRANCH  10  11
ENDBRANCH   1  10
BRANCH   1  22
ATOM     22  C   UNL     1       1.250   6.970  -6.249  0.00  0.00    +0.142 C 
BRANCH  22  23
ATOM     23  N   UNL     1      -0.046   6.414  -6.202  0.00  0.00    -0.305 N 
ATOM     24  C   UNL     1      -0.410   5.406  -7.032  0.00  0.00    +0.179 A 
ATOM     25  N   UNL     1      -1.656   5.011  -6.808  0.00  0.00    -0.222 NA
ATOM     26  C   UNL     1      -2.125   5.765  -5.823  0.00  0.00    +0.119 A 
ATOM     27  C   UNL     1      -1.169   6.728  -5.532  0.00  0.00    +0.098 A 
ENDBRANCH  22  23
ENDBRANCH   1  22
TORSDOF 6
ENDMDL
MODEL 8
REMARK VINA RESULT:      -7.2      2.000      2.937
REMARK  Name = 
REMARK  6 active torsions:
REMARK  status: ('A' for Active; 'I' for Inactive)
REMARK    1  A    between atoms: C_5  and  C_6
REMARK    2  A    between atoms: C_6  and  C_7
REMARK    3  A    between atoms: C_6  and  O_13
REMARK    4  A    between atoms: C_7  and  N_8
REMARK    5  A    between atoms: O_13  and  C_14
REMARK    6  A    between atoms: C_14  and  C_15
REMARK                            x       y       z     vdW  Elec       q    Type
REMARK                         _______ _______ _______ _____ _____    ______ ____
ROOT
ATOM      1  C   UNL     1       1.408   5.003  -5.075  0.00  0.00    +0.161 C 
ENDROOT
BRANCH   1   7
ATOM      2 CL   UNL     1       4.693   6.113  -0.172  0.00  0.00    -0.082 Cl
ATOM      3  C   UNL     1       3.764   5.560  -1.526  0.00  0.00    +0.058 A 
ATOM      4  C   UNL     1       2.389   5.702  -1.473  0.00  0.00    +0.023 A 
ATOM      5  C   UNL     1       1.656   5.520  -2.633  0.00  0.00    +0.057 A 
ATOM      6 CL   UNL     1      -0.063   5.136  -2.532  0.00  0.00    -0.082 Cl
ATOM      7  C   UNL     1       2.266   5.745  -3.867  0.00  0.00    +0.017 A 
ATOM      8  C   UNL     1       3.596   5.320  -3.903  0.00  0.00    -0.000 A 
ATOM      9  C   UNL     1       4.333   5.175  -2.731  0.00  0.00    +0.011 A 
ENDBRANCH   1   7
BRANCH   1  10
ATOM     10  O   UNL     1       2.673   4.842  -5.960  0.00  0.00    -0.345 OA
BRANCH  10  11
ATOM     11  C   UNL     1       2.205   4.492  -7.194  0.00  0.00    +0.170 C 
BRANCH  11  12
ATOM     12  C   UNL     1       2.985   5.127  -8.306  0.00  0.00    +0.014 A 
ATOM     13  C   UNL     1       2.382   5.866  -9.318  0.00  0.00    +0.006 A 
ATOM     14  C   UNL     1       1.132   6.476  -9.327  0.00  0.00    +0.000 A 
ATOM     15  C   UNL     1       0.498   6.726 -10.537  0.00  0.00    +0.001 A 
ATOM     16  C   UNL     1       1.052   6.407 -11.753  0.00  0.00    +0.012 A 
ATOM     17  C   UNL     1       2.373   5.996 -11.728  0.00  0.00    +0.064 A 
ATOM     18 CL   UNL     1       3.177   5.597 -13.221  0.00  0.00    -0.082 Cl
ATOM     19  C   UNL     1       2.959   5.563 -10.541  0.00  0.00    +0.040 A 
ATOM     20  S   UNL     1       4.600   5.362 -10.072  0.00  0.00    -0.086 S 
ATOM     21  C   UNL     1       4.366   5.267  -8.370  0.00  0.00    +0.034 A 
ENDBRANCH  11  12
ENDBRANCH  10  11
ENDBRANCH   1  10
BRANCH   1  22
ATOM     22  C   UNL     1       0.978   6.477  -5.766  0.00  0.00    +0.142 C 
BRANCH  22  23
ATOM     23  N   UNL     1      -0.404   6.671  -5.551  0.00  0.00    -0.305 N 
ATOM     24  C   UNL     1      -1.325   5.852  -6.114  0.00  0.00    +0.179 A 
ATOM     25  N   UNL     1      -2.560   6.188  -5.765  0.00  0.00    -0.222 NA
ATOM     26  C   UNL     1      -2.458   7.242  -4.966  0.00  0.00    +0.119 A 
ATOM     27  C   UNL     1      -1.124   7.625  -4.936  0.00  0.00    +0.098 A 
ENDBRANCH  22  23
ENDBRANCH   1  22
TORSDOF 6
ENDMDL
MODEL 9
REMARK VINA RESULT:      -7.2      1.752      2.509
REMARK  Name = 
REMARK  6 active torsions:
REMARK  status: ('A' for Active; 'I' for Inactive)
REMARK    1  A    between atoms: C_5  and  C_6
REMARK    2  A    between atoms: C_6  and  C_7
REMARK    3  A    between atoms: C_6  and  O_13
REMARK    4  A    between atoms: C_7  and  N_8
REMARK    5  A    between atoms: O_13  and  C_14
REMARK    6  A    between atoms: C_14  and  C_15
REMARK                            x       y       z     vdW  Elec       q    Type
REMARK                         _______ _______ _______ _____ _____    ______ ____
ROOT
ATOM      1  C   UNL     1       0.251   5.568  -5.691  0.00  0.00    +0.161 C 
ENDROOT
BRANCH   1   7
ATOM      2 CL   UNL     1       5.879   6.364  -3.750  0.00  0.00    -0.082 Cl
ATOM      3  C   UNL     1       4.330   6.235  -4.517  0.00  0.00    +0.058 A 
ATOM      4  C   UNL     1       3.941   4.997  -4.995  0.00  0.00    +0.023 A 
ATOM      5  C   UNL     1       2.620   4.810  -5.362  0.00  0.00    +0.057 A 
ATOM      6 CL   UNL     1       2.194   3.500  -6.465  0.00  0.00    -0.082 Cl
ATOM      7  C   UNL     1       1.631   5.598  -4.772  0.00  0.00    +0.017 A 
ATOM      8  C   UNL     1       2.035   6.919  -4.570  0.00  0.00    -0.000 A 
ATOM      9  C   UNL     1       3.385   7.250  -4.494  0.00  0.00    +0.011 A 
ENDBRANCH   1   7
BRANCH   1  10
ATOM     10  O   UNL     1       0.824   6.605  -6.696  0.00  0.00    -0.345 OA
BRANCH  10  11
ATOM     11  C   UNL     1       0.644   6.047  -7.928  0.00  0.00    +0.170 C 
BRANCH  11  12
ATOM     12  C   UNL     1       1.713   6.445  -8.901  0.00  0.00    +0.014 A 
ATOM     13  C   UNL     1       1.461   6.630 -10.256  0.00  0.00    +0.006 A 
ATOM     14  C   UNL     1       0.250   6.874 -10.894  0.00  0.00    +0.000 A 
ATOM     15  C   UNL     1       0.100   6.542 -12.234  0.00  0.00    +0.001 A 
ATOM     16  C   UNL     1       1.104   5.981 -12.984  0.00  0.00    +0.012 A 
ATOM     17  C   UNL     1       2.353   5.941 -12.390  0.00  0.00    +0.064 A 
ATOM     18 CL   UNL     1       3.702   5.276 -13.271  0.00  0.00    -0.082 Cl
ATOM     19  C   UNL     1       2.489   6.088 -11.012  0.00  0.00    +0.040 A 
ATOM     20  S   UNL     1       3.840   6.466 -10.020  0.00  0.00    -0.086 S 
ATOM     21  C   UNL     1       2.990   6.891  -8.586  0.00  0.00    +0.034 A 
ENDBRANCH  11  12
ENDBRANCH  10  11
ENDBRANCH   1  10
BRANCH   1  22
ATOM     22  C   UNL     1      -0.489   6.740  -4.736  0.00  0.00    +0.142 C 
BRANCH  22  23
ATOM     23  N   UNL     1      -1.579   6.135  -4.074  0.00  0.00    -0.305 N 
ATOM     24  C   UNL     1      -1.409   5.470  -2.905  0.00  0.00    +0.179 A 
ATOM     25  N   UNL     1      -2.558   5.001  -2.435  0.00  0.00    -0.222 NA
ATOM     26  C   UNL     1      -3.498   5.354  -3.301  0.00  0.00    +0.119 A 
ATOM     27  C   UNL     1      -2.872   5.947  -4.389  0.00  0.00    +0.098 A 
ENDBRANCH  22  23
ENDBRANCH   1  22
TORSDOF 6
ENDMDL
