MODEL 1
REMARK VINA RESULT:      -7.3      0.000      0.000
REMARK  Name = 
REMARK  12 active torsions:
REMARK  status: ('A' for Active; 'I' for Inactive)
REMARK    1  A    between atoms: C_2  and  C_3
REMARK    2  A    between atoms: C_3  and  C_4
REMARK    3  A    between atoms: C_4  and  C_5
REMARK    4  A    between atoms: C_5  and  C_6
REMARK    5  A    between atoms: C_6  and  C_9
REMARK    6  A    between atoms: C_10  and  C_11
REMARK    7  A    between atoms: C_12  and  C_13
REMARK    8  A    between atoms: C_13  and  C_14
REMARK    9  A    between atoms: C_15  and  C_16
REMARK   10  A    between atoms: C_16  and  C_17
REMARK   11  A    between atoms: C_17  and  C_18
REMARK   12  A    between atoms: C_18  and  C_19
REMARK                            x       y       z     vdW  Elec       q    Type
REMARK                         _______ _______ _______ _____ _____    ______ ____
ROOT
ATOM      1  C   UNL     1       2.926   5.326  -7.445  0.00  0.00    +0.055 C 
ATOM      2  C   UNL     1       3.569   5.832  -5.950  0.00  0.00    +0.159 C 
ATOM      3  O   UNL     1       3.187   7.300  -6.103  0.00  0.00    -0.223 OA
ATOM      4  C   UNL     1       2.294   5.570  -4.996  0.00  0.00    +0.066 C 
ATOM      5  C   UNL     1       1.199   4.808  -5.894  0.00  0.00    +0.155 C 
ATOM      6  O   UNL     1       2.167   3.747  -6.382  0.00  0.00    -0.223 OA
ATOM      7  C   UNL     1       1.437   5.967  -7.118  0.00  0.00    +0.041 C 
ENDROOT
BRANCH   1   9
ATOM      8  C   UNL     1       3.731   6.319  -9.527  0.00  0.00    -0.001 C 
ATOM      9  C   UNL     1       3.479   6.567  -8.280  0.00  0.00    -0.026 C 
BRANCH   8  10
ATOM     10  C   UNL     1       4.876   6.360 -10.391  0.00  0.00    +0.145 C 
ATOM     11  O   UNL     1       5.189   7.628 -10.920  0.00  0.00    -0.221 OA
ATOM     12  C   UNL     1       4.498   5.523 -11.615  0.00  0.00    +0.038 C 
BRANCH  10  13
ATOM     13  C   UNL     1       6.172   5.874  -9.877  0.00  0.00    +0.035 C 
BRANCH  13  14
ATOM     14  C   UNL     1       7.414   6.564 -10.297  0.00  0.00    +0.003 C 
BRANCH  14  15
ATOM     15  C   UNL     1       8.197   5.502 -11.042  0.00  0.00    +0.000 C 
BRANCH  15  17
ATOM     16  C   UNL     1       7.919   5.557 -13.037  0.00  0.00    +0.000 C 
ATOM     17  C   UNL     1       8.633   5.977 -12.424  0.00  0.00    +0.000 C 
ENDBRANCH  15  17
ENDBRANCH  14  15
ENDBRANCH  13  14
ENDBRANCH  10  13
ENDBRANCH   8  10
ENDBRANCH   1   9
BRANCH   7  18
ATOM     18  C   UNL     1       0.651   5.053  -8.180  0.00  0.00    +0.029 C 
BRANCH  18  19
ATOM     19  C   UNL     1      -0.160   6.007  -8.976  0.00  0.00    -0.031 C 
ATOM     20  C   UNL     1       0.177   6.137 -10.267  0.00  0.00    -0.031 C 
BRANCH  20  21
ATOM     21  C   UNL     1       0.075   4.861 -11.019  0.00  0.00    +0.026 C 
BRANCH  21  22
ATOM     22  C   UNL     1       0.744   4.903 -12.312  0.00  0.00    +0.016 C 
BRANCH  22  23
ATOM     23  C   UNL     1       1.054   5.980 -13.099  0.00  0.00    +0.114 C 
BRANCH  23  24
ATOM     24  C   UNL     1       1.254   6.183 -14.477  0.00  0.00    +0.365 C 
ATOM     25  O   UNL     1       0.359   5.852 -15.475  0.00  0.00    -0.246 OA
ATOM     26  O   UNL     1       2.474   6.266 -14.836  0.00  0.00    -0.246 OA
ENDBRANCH  23  24
ENDBRANCH  22  23
ENDBRANCH  21  22
ENDBRANCH  20  21
ENDBRANCH  18  19
ENDBRANCH   7  18
TORSDOF 12
ENDMDL
MODEL 2
REMARK VINA RESULT:      -7.2      4.366      8.165
REMARK  Name = 
REMARK  12 active torsions:
REMARK  status: ('A' for Active; 'I' for Inactive)
REMARK    1  A    between atoms: C_2  and  C_3
REMARK    2  A    between atoms: C_3  and  C_4
REMARK    3  A    between atoms: C_4  and  C_5
REMARK    4  A    between atoms: C_5  and  C_6
REMARK    5  A    between atoms: C_6  and  C_9
REMARK    6  A    between atoms: C_10  and  C_11
REMARK    7  A    between atoms: C_12  and  C_13
REMARK    8  A    between atoms: C_13  and  C_14
REMARK    9  A    between atoms: C_15  and  C_16
REMARK   10  A    between atoms: C_16  and  C_17
REMARK   11  A    between atoms: C_17  and  C_18
REMARK   12  A    between atoms: C_18  and  C_19
REMARK                            x       y       z     vdW  Elec       q    Type
REMARK                         _______ _______ _______ _____ _____    ______ ____
ROOT
ATOM      1  C   UNL     1       1.630   5.802  -5.947  0.00  0.00    +0.055 C 
ATOM      2  C   UNL     1       2.895   4.819  -6.527  0.00  0.00    +0.159 C 
ATOM      3  O   UNL     1       2.217   3.489  -6.217  0.00  0.00    -0.223 OA
ATOM      4  C   UNL     1       2.468   4.705  -8.080  0.00  0.00    +0.066 C 
ATOM      5  C   UNL     1       1.231   5.711  -8.289  0.00  0.00    +0.155 C 
ATOM      6  O   UNL     1       1.934   6.895  -7.653  0.00  0.00    -0.223 OA
ATOM      7  C   UNL     1       0.500   5.057  -6.897  0.00  0.00    +0.041 C 
ENDROOT
BRANCH   1   9
ATOM      8  C   UNL     1       1.414   5.607  -3.520  0.00  0.00    -0.001 C 
ATOM      9  C   UNL     1       1.356   4.942  -4.632  0.00  0.00    -0.026 C 
BRANCH   8  10
ATOM     10  C   UNL     1       2.192   5.567  -2.317  0.00  0.00    +0.145 C 
ATOM     11  O   UNL     1       3.323   4.728  -2.356  0.00  0.00    -0.221 OA
ATOM     12  C   UNL     1       1.286   4.928  -1.262  0.00  0.00    +0.038 C 
BRANCH  10  13
ATOM     13  C   UNL     1       2.724   6.832  -1.770  0.00  0.00    +0.035 C 
BRANCH  13  14
ATOM     14  C   UNL     1       4.160   7.145  -1.953  0.00  0.00    +0.003 C 
BRANCH  14  15
ATOM     15  C   UNL     1       4.180   8.171  -3.067  0.00  0.00    +0.000 C 
BRANCH  15  17
ATOM     16  C   UNL     1       5.657   7.155  -3.989  0.00  0.00    +0.000 C 
ATOM     17  C   UNL     1       4.807   7.618  -4.342  0.00  0.00    +0.000 C 
ENDBRANCH  15  17
ENDBRANCH  14  15
ENDBRANCH  13  14
ENDBRANCH  10  13
ENDBRANCH   8  10
ENDBRANCH   1   9
BRANCH   7  18
ATOM     18  C   UNL     1      -0.554   6.268  -6.843  0.00  0.00    +0.029 C 
BRANCH  18  19
ATOM     19  C   UNL     1      -1.861   5.623  -6.573  0.00  0.00    -0.031 C 
ATOM     20  C   UNL     1      -2.326   5.729  -5.319  0.00  0.00    -0.031 C 
BRANCH  20  21
ATOM     21  C   UNL     1      -2.525   7.138  -4.898  0.00  0.00    +0.026 C 
BRANCH  21  22
ATOM     22  C   UNL     1      -1.988   7.422  -3.572  0.00  0.00    +0.016 C 
BRANCH  22  23
ATOM     23  C   UNL     1      -2.496   7.106  -2.341  0.00  0.00    +0.114 C 
BRANCH  23  24
ATOM     24  C   UNL     1      -2.334   6.037  -1.440  0.00  0.00    +0.365 C 
ATOM     25  O   UNL     1      -1.762   6.123  -0.186  0.00  0.00    -0.246 OA
ATOM     26  O   UNL     1      -2.313   4.881  -1.978  0.00  0.00    -0.246 OA
ENDBRANCH  23  24
ENDBRANCH  22  23
ENDBRANCH  21  22
ENDBRANCH  20  21
ENDBRANCH  18  19
ENDBRANCH   7  18
TORSDOF 12
ENDMDL
MODEL 3
REMARK VINA RESULT:      -7.1      2.340      3.691
REMARK  Name = 
REMARK  12 active torsions:
REMARK  status: ('A' for Active; 'I' for Inactive)
REMARK    1  A    between atoms: C_2  and  C_3
REMARK    2  A    between atoms: C_3  and  C_4
REMARK    3  A    between atoms: C_4  and  C_5
REMARK    4  A    between atoms: C_5  and  C_6
REMARK    5  A    between atoms: C_6  and  C_9
REMARK    6  A    between atoms: C_10  and  C_11
REMARK    7  A    between atoms: C_12  and  C_13
REMARK    8  A    between atoms: C_13  and  C_14
REMARK    9  A    between atoms: C_15  and  C_16
REMARK   10  A    between atoms: C_16  and  C_17
REMARK   11  A    between atoms: C_17  and  C_18
REMARK   12  A    between atoms: C_18  and  C_19
REMARK                            x       y       z     vdW  Elec       q    Type
REMARK                         _______ _______ _______ _____ _____    ______ ____
ROOT
ATOM      1  C   UNL     1       3.792   5.761  -4.837  0.00  0.00    +0.055 C 
ATOM      2  C   UNL     1       5.124   6.661  -4.273  0.00  0.00    +0.159 C 
ATOM      3  O   UNL     1       4.577   8.025  -4.679  0.00  0.00    -0.223 OA
ATOM      4  C   UNL     1       4.668   6.903  -2.743  0.00  0.00    +0.066 C 
ATOM      5  C   UNL     1       3.341   6.024  -2.517  0.00  0.00    +0.155 C 
ATOM      6  O   UNL     1       3.951   4.748  -3.063  0.00  0.00    -0.223 OA
ATOM      7  C   UNL     1       2.709   6.657  -3.966  0.00  0.00    +0.041 C 
ENDROOT
BRANCH   1   9
ATOM      8  C   UNL     1       3.378   5.829  -7.245  0.00  0.00    -0.001 C 
ATOM      9  C   UNL     1       3.632   6.563  -6.206  0.00  0.00    -0.026 C 
BRANCH   8  10
ATOM     10  C   UNL     1       4.001   5.552  -8.506  0.00  0.00    +0.145 C 
ATOM     11  O   UNL     1       3.515   4.416  -9.184  0.00  0.00    -0.221 OA
ATOM     12  C   UNL     1       5.455   5.202  -8.180  0.00  0.00    +0.038 C 
BRANCH  10  13
ATOM     13  C   UNL     1       3.996   6.599  -9.548  0.00  0.00    +0.035 C 
BRANCH  13  14
ATOM     14  C   UNL     1       4.719   6.352 -10.817  0.00  0.00    +0.003 C 
BRANCH  14  15
ATOM     15  C   UNL     1       5.587   7.580 -10.998  0.00  0.00    +0.000 C 
BRANCH  15  17
ATOM     16  C   UNL     1       7.509   7.133 -10.590  0.00  0.00    +0.000 C 
ATOM     17  C   UNL     1       6.990   7.224 -11.476  0.00  0.00    +0.000 C 
ENDBRANCH  15  17
ENDBRANCH  14  15
ENDBRANCH  13  14
ENDBRANCH  10  13
ENDBRANCH   8  10
ENDBRANCH   1   9
BRANCH   7  18
ATOM     18  C   UNL     1       1.552   5.542  -3.986  0.00  0.00    +0.029 C 
BRANCH  18  19
ATOM     19  C   UNL     1       0.297   6.301  -4.212  0.00  0.00    -0.031 C 
ATOM     20  C   UNL     1      -0.052   6.497  -5.492  0.00  0.00    -0.031 C 
BRANCH  20  21
ATOM     21  C   UNL     1      -0.258   5.228  -6.234  0.00  0.00    +0.026 C 
BRANCH  21  22
ATOM     22  C   UNL     1      -0.582   5.433  -7.640  0.00  0.00    +0.016 C 
BRANCH  22  23
ATOM     23  C   UNL     1       0.249   5.675  -8.700  0.00  0.00    +0.114 C 
BRANCH  23  24
ATOM     24  C   UNL     1       0.167   5.494 -10.093  0.00  0.00    +0.365 C 
ATOM     25  O   UNL     1       0.020   4.282 -10.738  0.00  0.00    -0.246 OA
ATOM     26  O   UNL     1       0.687   6.428 -10.787  0.00  0.00    -0.246 OA
ENDBRANCH  23  24
ENDBRANCH  22  23
ENDBRANCH  21  22
ENDBRANCH  20  21
ENDBRANCH  18  19
ENDBRANCH   7  18
TORSDOF 12
ENDMDL
MODEL 4
REMARK VINA RESULT:      -7.1      3.270      5.569
REMARK  Name = 
REMARK  12 active torsions:
REMARK  status: ('A' for Active; 'I' for Inactive)
REMARK    1  A    between atoms: C_2  and  C_3
REMARK    2  A    between atoms: C_3  and  C_4
REMARK    3  A    between atoms: C_4  and  C_5
REMARK    4  A    between atoms: C_5  and  C_6
REMARK    5  A    between atoms: C_6  and  C_9
REMARK    6  A    between atoms: C_10  and  C_11
REMARK    7  A    between atoms: C_12  and  C_13
REMARK    8  A    between atoms: C_13  and  C_14
REMARK    9  A    between atoms: C_15  and  C_16
REMARK   10  A    between atoms: C_16  and  C_17
REMARK   11  A    between atoms: C_17  and  C_18
REMARK   12  A    between atoms: C_18  and  C_19
REMARK                            x       y       z     vdW  Elec       q    Type
REMARK                         _______ _______ _______ _____ _____    ______ ____
ROOT
ATOM      1  C   UNL     1       3.840   5.891  -4.627  0.00  0.00    +0.055 C 
ATOM      2  C   UNL     1       5.223   6.590  -3.917  0.00  0.00    +0.159 C 
ATOM      3  O   UNL     1       4.948   8.010  -4.399  0.00  0.00    -0.223 OA
ATOM      4  C   UNL     1       4.636   6.942  -2.455  0.00  0.00    +0.066 C 
ATOM      5  C   UNL     1       3.170   6.287  -2.380  0.00  0.00    +0.155 C 
ATOM      6  O   UNL     1       3.631   4.916  -2.837  0.00  0.00    -0.223 OA
ATOM      7  C   UNL     1       2.818   6.969  -3.900  0.00  0.00    +0.041 C 
ENDROOT
BRANCH   1   9
ATOM      8  C   UNL     1       3.430   6.069  -7.029  0.00  0.00    -0.001 C 
ATOM      9  C   UNL     1       3.968   6.668  -6.013  0.00  0.00    -0.026 C 
BRANCH   8  10
ATOM     10  C   UNL     1       3.872   5.552  -8.292  0.00  0.00    +0.145 C 
ATOM     11  O   UNL     1       3.546   6.338  -9.415  0.00  0.00    -0.221 OA
ATOM     12  C   UNL     1       3.090   4.253  -8.501  0.00  0.00    +0.038 C 
BRANCH  10  13
ATOM     13  C   UNL     1       5.309   5.266  -8.480  0.00  0.00    +0.035 C 
BRANCH  13  14
ATOM     14  C   UNL     1       5.919   5.501  -9.810  0.00  0.00    +0.003 C 
BRANCH  14  15
ATOM     15  C   UNL     1       7.322   5.979  -9.498  0.00  0.00    +0.000 C 
BRANCH  15  17
ATOM     16  C   UNL     1       7.278   7.001 -11.234  0.00  0.00    +0.000 C 
ATOM     17  C   UNL     1       7.704   7.206 -10.319  0.00  0.00    +0.000 C 
ENDBRANCH  15  17
ENDBRANCH  14  15
ENDBRANCH  13  14
ENDBRANCH  10  13
ENDBRANCH   8  10
ENDBRANCH   1   9
BRANCH   7  18
ATOM     18  C   UNL     1       1.510   6.047  -4.046  0.00  0.00    +0.029 C 
BRANCH  18  19
ATOM     19  C   UNL     1       0.472   6.945  -4.608  0.00  0.00    -0.031 C 
ATOM     20  C   UNL     1       0.149   6.744  -5.894  0.00  0.00    -0.031 C 
BRANCH  20  21
ATOM     21  C   UNL     1      -0.378   5.380  -6.147  0.00  0.00    +0.026 C 
BRANCH  21  22
ATOM     22  C   UNL     1      -1.832   5.336  -6.246  0.00  0.00    +0.016 C 
BRANCH  22  23
ATOM     23  C   UNL     1      -2.775   5.428  -5.258  0.00  0.00    +0.114 C 
BRANCH  23  24
ATOM     24  C   UNL     1      -2.744   5.608  -3.863  0.00  0.00    +0.365 C 
ATOM     25  O   UNL     1      -2.922   4.613  -2.921  0.00  0.00    -0.246 OA
ATOM     26  O   UNL     1      -3.000   6.793  -3.469  0.00  0.00    -0.246 OA
ENDBRANCH  23  24
ENDBRANCH  22  23
ENDBRANCH  21  22
ENDBRANCH  20  21
ENDBRANCH  18  19
ENDBRANCH   7  18
TORSDOF 12
ENDMDL
MODEL 5
REMARK VINA RESULT:      -7.0      2.379      6.554
REMARK  Name = 
REMARK  12 active torsions:
REMARK  status: ('A' for Active; 'I' for Inactive)
REMARK    1  A    between atoms: C_2  and  C_3
REMARK    2  A    between atoms: C_3  and  C_4
REMARK    3  A    between atoms: C_4  and  C_5
REMARK    4  A    between atoms: C_5  and  C_6
REMARK    5  A    between atoms: C_6  and  C_9
REMARK    6  A    between atoms: C_10  and  C_11
REMARK    7  A    between atoms: C_12  and  C_13
REMARK    8  A    between atoms: C_13  and  C_14
REMARK    9  A    between atoms: C_15  and  C_16
REMARK   10  A    between atoms: C_16  and  C_17
REMARK   11  A    between atoms: C_17  and  C_18
REMARK   12  A    between atoms: C_18  and  C_19
REMARK                            x       y       z     vdW  Elec       q    Type
REMARK                         _______ _______ _______ _____ _____    ______ ____
ROOT
ATOM      1  C   UNL     1       2.846   5.750  -7.950  0.00  0.00    +0.055 C 
ATOM      2  C   UNL     1       1.514   6.787  -8.191  0.00  0.00    +0.159 C 
ATOM      3  O   UNL     1       2.304   8.086  -8.084  0.00  0.00    -0.223 OA
ATOM      4  C   UNL     1       1.524   6.881  -9.803  0.00  0.00    +0.066 C 
ATOM      5  C   UNL     1       2.620   5.824 -10.317  0.00  0.00    +0.155 C 
ATOM      6  O   UNL     1       2.060   4.671  -9.505  0.00  0.00    -0.223 OA
ATOM      7  C   UNL     1       3.716   6.446  -9.172  0.00  0.00    +0.041 C 
ENDROOT
BRANCH   1   9
ATOM      8  C   UNL     1       3.460   6.024  -5.601  0.00  0.00    -0.001 C 
ATOM      9  C   UNL     1       3.490   6.598  -6.763  0.00  0.00    -0.026 C 
BRANCH   8  10
ATOM     10  C   UNL     1       2.898   6.301  -4.312  0.00  0.00    +0.145 C 
ATOM     11  O   UNL     1       3.304   7.516  -3.724  0.00  0.00    -0.221 OA
ATOM     12  C   UNL     1       3.458   5.225  -3.378  0.00  0.00    +0.038 C 
BRANCH  10  13
ATOM     13  C   UNL     1       1.429   6.325  -4.166  0.00  0.00    +0.035 C 
BRANCH  13  14
ATOM     14  C   UNL     1       0.629   5.243  -4.785  0.00  0.00    +0.003 C 
BRANCH  14  15
ATOM     15  C   UNL     1      -0.667   5.917  -5.184  0.00  0.00    +0.000 C 
BRANCH  15  17
ATOM     16  C   UNL     1      -2.236   5.594  -6.406  0.00  0.00    +0.000 C 
ATOM     17  C   UNL     1      -1.240   5.339  -6.473  0.00  0.00    +0.000 C 
ENDBRANCH  15  17
ENDBRANCH  14  15
ENDBRANCH  13  14
ENDBRANCH  10  13
ENDBRANCH   8  10
ENDBRANCH   1   9
BRANCH   7  18
ATOM     18  C   UNL     1       4.697   5.191  -9.382  0.00  0.00    +0.029 C 
BRANCH  18  19
ATOM     19  C   UNL     1       5.933   5.547  -8.643  0.00  0.00    -0.031 C 
ATOM     20  C   UNL     1       7.042   5.694  -9.382  0.00  0.00    -0.031 C 
BRANCH  20  21
ATOM     21  C   UNL     1       6.913   6.762 -10.406  0.00  0.00    +0.026 C 
BRANCH  21  22
ATOM     22  C   UNL     1       7.671   6.486 -11.620  0.00  0.00    +0.016 C 
BRANCH  22  23
ATOM     23  C   UNL     1       7.411   5.596 -12.626  0.00  0.00    +0.114 C 
BRANCH  23  24
ATOM     24  C   UNL     1       6.439   5.490 -13.637  0.00  0.00    +0.365 C 
ATOM     25  O   UNL     1       5.277   4.747 -13.559  0.00  0.00    -0.246 OA
ATOM     26  O   UNL     1       6.861   5.730 -14.816  0.00  0.00    -0.246 OA
ENDBRANCH  23  24
ENDBRANCH  22  23
ENDBRANCH  21  22
ENDBRANCH  20  21
ENDBRANCH  18  19
ENDBRANCH   7  18
TORSDOF 12
ENDMDL
MODEL 6
REMARK VINA RESULT:      -7.0      3.017      6.406
REMARK  Name = 
REMARK  12 active torsions:
REMARK  status: ('A' for Active; 'I' for Inactive)
REMARK    1  A    between atoms: C_2  and  C_3
REMARK    2  A    between atoms: C_3  and  C_4
REMARK    3  A    between atoms: C_4  and  C_5
REMARK    4  A    between atoms: C_5  and  C_6
REMARK    5  A    between atoms: C_6  and  C_9
REMARK    6  A    between atoms: C_10  and  C_11
REMARK    7  A    between atoms: C_12  and  C_13
REMARK    8  A    between atoms: C_13  and  C_14
REMARK    9  A    between atoms: C_15  and  C_16
REMARK   10  A    between atoms: C_16  and  C_17
REMARK   11  A    between atoms: C_17  and  C_18
REMARK   12  A    between atoms: C_18  and  C_19
REMARK                            x       y       z     vdW  Elec       q    Type
REMARK                         _______ _______ _______ _____ _____    ______ ____
ROOT
ATOM      1  C   UNL     1       1.711   5.907  -7.972  0.00  0.00    +0.055 C 
ATOM      2  C   UNL     1       2.981   7.023  -7.761  0.00  0.00    +0.159 C 
ATOM      3  O   UNL     1       2.104   8.270  -7.801  0.00  0.00    -0.223 OA
ATOM      4  C   UNL     1       3.037   7.079  -6.149  0.00  0.00    +0.066 C 
ATOM      5  C   UNL     1       2.035   5.939  -5.617  0.00  0.00    +0.155 C 
ATOM      6  O   UNL     1       2.633   4.846  -6.481  0.00  0.00    -0.223 OA
ATOM      7  C   UNL     1       0.851   6.515  -6.697  0.00  0.00    +0.041 C 
ENDROOT
BRANCH   1   9
ATOM      8  C   UNL     1       0.654   6.060 -10.170  0.00  0.00    -0.001 C 
ATOM      9  C   UNL     1       0.961   6.738  -9.108  0.00  0.00    -0.026 C 
BRANCH   8  10
ATOM     10  C   UNL     1       0.961   6.114 -11.570  0.00  0.00    +0.145 C 
ATOM     11  O   UNL     1       0.252   7.082 -12.308  0.00  0.00    -0.221 OA
ATOM     12  C   UNL     1       0.487   4.778 -12.147  0.00  0.00    +0.038 C 
BRANCH  10  13
ATOM     13  C   UNL     1       2.363   6.329 -11.983  0.00  0.00    +0.035 C 
BRANCH  13  14
ATOM     14  C   UNL     1       3.440   5.607 -11.267  0.00  0.00    +0.003 C 
BRANCH  14  15
ATOM     15  C   UNL     1       4.714   6.283 -11.730  0.00  0.00    +0.000 C 
BRANCH  15  17
ATOM     16  C   UNL     1       6.033   7.713 -11.203  0.00  0.00    +0.000 C 
ATOM     17  C   UNL     1       5.215   7.312 -10.722  0.00  0.00    +0.000 C 
ENDBRANCH  15  17
ENDBRANCH  14  15
ENDBRANCH  13  14
ENDBRANCH  10  13
ENDBRANCH   8  10
ENDBRANCH   1   9
BRANCH   7  18
ATOM     18  C   UNL     1      -0.035   5.193  -6.478  0.00  0.00    +0.029 C 
BRANCH  18  19
ATOM     19  C   UNL     1      -1.380   5.547  -6.994  0.00  0.00    -0.031 C 
ATOM     20  C   UNL     1      -2.404   5.373  -6.146  0.00  0.00    -0.031 C 
BRANCH  20  21
ATOM     21  C   UNL     1      -2.268   6.179  -4.908  0.00  0.00    +0.026 C 
BRANCH  21  22
ATOM     22  C   UNL     1      -2.794   5.507  -3.726  0.00  0.00    +0.016 C 
BRANCH  22  23
ATOM     23  C   UNL     1      -2.602   5.795  -2.402  0.00  0.00    +0.114 C 
BRANCH  23  24
ATOM     24  C   UNL     1      -1.533   5.658  -1.497  0.00  0.00    +0.365 C 
ATOM     25  O   UNL     1      -0.444   4.824  -1.660  0.00  0.00    -0.246 OA
ATOM     26  O   UNL     1      -1.804   5.982  -0.294  0.00  0.00    -0.246 OA
ENDBRANCH  23  24
ENDBRANCH  22  23
ENDBRANCH  21  22
ENDBRANCH  20  21
ENDBRANCH  18  19
ENDBRANCH   7  18
TORSDOF 12
ENDMDL
MODEL 7
REMARK VINA RESULT:      -7.0      4.045      7.190
REMARK  Name = 
REMARK  12 active torsions:
REMARK  status: ('A' for Active; 'I' for Inactive)
REMARK    1  A    between atoms: C_2  and  C_3
REMARK    2  A    between atoms: C_3  and  C_4
REMARK    3  A    between atoms: C_4  and  C_5
REMARK    4  A    between atoms: C_5  and  C_6
REMARK    5  A    between atoms: C_6  and  C_9
REMARK    6  A    between atoms: C_10  and  C_11
REMARK    7  A    between atoms: C_12  and  C_13
REMARK    8  A    between atoms: C_13  and  C_14
REMARK    9  A    between atoms: C_15  and  C_16
REMARK   10  A    between atoms: C_16  and  C_17
REMARK   11  A    between atoms: C_17  and  C_18
REMARK   12  A    between atoms: C_18  and  C_19
REMARK                            x       y       z     vdW  Elec       q    Type
REMARK                         _______ _______ _______ _____ _____    ______ ____
ROOT
ATOM      1  C   UNL     1      -1.008   5.569  -2.194  0.00  0.00    +0.055 C 
ATOM      2  C   UNL     1      -1.910   6.219  -0.902  0.00  0.00    +0.159 C 
ATOM      3  O   UNL     1      -1.420   7.653  -1.072  0.00  0.00    -0.223 OA
ATOM      4  C   UNL     1      -3.286   6.568  -1.671  0.00  0.00    +0.066 C 
ATOM      5  C   UNL     1      -3.152   5.954  -3.150  0.00  0.00    +0.155 C 
ATOM      6  O   UNL     1      -2.738   4.577  -2.668  0.00  0.00    -0.223 OA
ATOM      7  C   UNL     1      -1.610   6.666  -3.276  0.00  0.00    +0.041 C 
ENDROOT
BRANCH   1   9
ATOM      8  C   UNL     1       1.428   5.753  -2.199  0.00  0.00    -0.001 C 
ATOM      9  C   UNL     1       0.335   6.362  -1.860  0.00  0.00    -0.026 C 
BRANCH   8  10
ATOM     10  C   UNL     1       2.599   5.261  -1.534  0.00  0.00    +0.145 C 
ATOM     11  O   UNL     1       2.388   4.174  -0.662  0.00  0.00    -0.221 OA
ATOM     12  C   UNL     1       3.060   6.396  -0.616  0.00  0.00    +0.038 C 
BRANCH  10  13
ATOM     13  C   UNL     1       3.751   4.826  -2.350  0.00  0.00    +0.035 C 
BRANCH  13  14
ATOM     14  C   UNL     1       3.666   4.933  -3.825  0.00  0.00    +0.003 C 
BRANCH  14  15
ATOM     15  C   UNL     1       4.820   5.839  -4.200  0.00  0.00    +0.000 C 
BRANCH  15  17
ATOM     16  C   UNL     1       4.689   7.839  -3.981  0.00  0.00    +0.000 C 
ATOM     17  C   UNL     1       4.341   7.196  -4.707  0.00  0.00    +0.000 C 
ENDBRANCH  15  17
ENDBRANCH  14  15
ENDBRANCH  13  14
ENDBRANCH  10  13
ENDBRANCH   8  10
ENDBRANCH   1   9
BRANCH   7  18
ATOM     18  C   UNL     1      -1.274   5.784  -4.576  0.00  0.00    +0.029 C 
BRANCH  18  19
ATOM     19  C   UNL     1      -0.512   6.694  -5.467  0.00  0.00    -0.031 C 
ATOM     20  C   UNL     1       0.781   6.392  -5.654  0.00  0.00    -0.031 C 
BRANCH  20  21
ATOM     21  C   UNL     1       0.976   5.050  -6.256  0.00  0.00    +0.026 C 
BRANCH  21  22
ATOM     22  C   UNL     1       1.686   5.090  -7.529  0.00  0.00    +0.016 C 
BRANCH  22  23
ATOM     23  C   UNL     1       2.752   5.861  -7.908  0.00  0.00    +0.114 C 
BRANCH  23  24
ATOM     24  C   UNL     1       2.912   7.037  -8.664  0.00  0.00    +0.365 C 
ATOM     25  O   UNL     1       3.853   7.230  -9.657  0.00  0.00    -0.246 OA
ATOM     26  O   UNL     1       2.470   8.096  -8.110  0.00  0.00    -0.246 OA
ENDBRANCH  23  24
ENDBRANCH  22  23
ENDBRANCH  21  22
ENDBRANCH  20  21
ENDBRANCH  18  19
ENDBRANCH   7  18
TORSDOF 12
ENDMDL
MODEL 8
REMARK VINA RESULT:      -6.9      4.197      9.604
REMARK  Name = 
REMARK  12 active torsions:
REMARK  status: ('A' for Active; 'I' for Inactive)
REMARK    1  A    between atoms: C_2  and  C_3
REMARK    2  A    between atoms: C_3  and  C_4
REMARK    3  A    between atoms: C_4  and  C_5
REMARK    4  A    between atoms: C_5  and  C_6
REMARK    5  A    between atoms: C_6  and  C_9
REMARK    6  A    between atoms: C_10  and  C_11
REMARK    7  A    between atoms: C_12  and  C_13
REMARK    8  A    between atoms: C_13  and  C_14
REMARK    9  A    between atoms: C_15  and  C_16
REMARK   10  A    between atoms: C_16  and  C_17
REMARK   11  A    between atoms: C_17  and  C_18
REMARK   12  A    between atoms: C_18  and  C_19
REMARK                            x       y       z     vdW  Elec       q    Type
REMARK                         _______ _______ _______ _____ _____    ______ ____
ROOT
ATOM      1  C   UNL     1       1.976   6.046  -6.378  0.00  0.00    +0.055 C 
ATOM      2  C   UNL     1       1.688   6.686  -7.931  0.00  0.00    +0.159 C 
ATOM      3  O   UNL     1       1.818   8.150  -7.526  0.00  0.00    -0.223 OA
ATOM      4  C   UNL     1       3.193   6.686  -8.515  0.00  0.00    +0.066 C 
ATOM      5  C   UNL     1       4.104   5.921  -7.433  0.00  0.00    +0.155 C 
ATOM      6  O   UNL     1       3.192   4.712  -7.347  0.00  0.00    -0.223 OA
ATOM      7  C   UNL     1       3.399   6.872  -6.209  0.00  0.00    +0.041 C 
ENDROOT
BRANCH   1   9
ATOM      8  C   UNL     1       0.103   6.582  -4.903  0.00  0.00    -0.001 C 
ATOM      9  C   UNL     1       1.062   7.100  -5.605  0.00  0.00    -0.026 C 
BRANCH   8  10
ATOM     10  C   UNL     1      -1.329   6.654  -4.877  0.00  0.00    +0.145 C 
ATOM     11  O   UNL     1      -1.974   6.313  -6.082  0.00  0.00    -0.221 OA
ATOM     12  C   UNL     1      -1.663   8.134  -4.675  0.00  0.00    +0.038 C 
BRANCH  10  13
ATOM     13  C   UNL     1      -2.062   5.869  -3.863  0.00  0.00    +0.035 C 
BRANCH  13  14
ATOM     14  C   UNL     1      -3.010   6.566  -2.963  0.00  0.00    +0.003 C 
BRANCH  14  15
ATOM     15  C   UNL     1      -2.482   6.283  -1.572  0.00  0.00    +0.000 C 
BRANCH  15  17
ATOM     16  C   UNL     1      -1.816   7.262   0.059  0.00  0.00    +0.000 C 
ATOM     17  C   UNL     1      -1.845   7.515  -0.939  0.00  0.00    +0.000 C 
ENDBRANCH  15  17
ENDBRANCH  14  15
ENDBRANCH  13  14
ENDBRANCH  10  13
ENDBRANCH   8  10
ENDBRANCH   1   9
BRANCH   7  18
ATOM     18  C   UNL     1       3.992   5.904  -5.072  0.00  0.00    +0.029 C 
BRANCH  18  19
ATOM     19  C   UNL     1       5.005   6.725  -4.364  0.00  0.00    -0.031 C 
ATOM     20  C   UNL     1       4.563   7.433  -3.314  0.00  0.00    -0.031 C 
BRANCH  20  21
ATOM     21  C   UNL     1       3.982   6.578  -2.249  0.00  0.00    +0.026 C 
BRANCH  21  22
ATOM     22  C   UNL     1       2.671   7.031  -1.802  0.00  0.00    +0.016 C 
BRANCH  22  23
ATOM     23  C   UNL     1       1.556   6.301  -1.488  0.00  0.00    +0.114 C 
BRANCH  23  24
ATOM     24  C   UNL     1       1.312   4.967  -1.112  0.00  0.00    +0.365 C 
ATOM     25  O   UNL     1       2.253   4.089  -0.612  0.00  0.00    -0.246 OA
ATOM     26  O   UNL     1       0.296   4.431  -1.666  0.00  0.00    -0.246 OA
ENDBRANCH  23  24
ENDBRANCH  22  23
ENDBRANCH  21  22
ENDBRANCH  20  21
ENDBRANCH  18  19
ENDBRANCH   7  18
TORSDOF 12
ENDMDL
MODEL 9
REMARK VINA RESULT:      -6.9      2.716      5.537
REMARK  Name = 
REMARK  12 active torsions:
REMARK  status: ('A' for Active; 'I' for Inactive)
REMARK    1  A    between atoms: C_2  and  C_3
REMARK    2  A    between atoms: C_3  and  C_4
REMARK    3  A    between atoms: C_4  and  C_5
REMARK    4  A    between atoms: C_5  and  C_6
REMARK    5  A    between atoms: C_6  and  C_9
REMARK    6  A    between atoms: C_10  and  C_11
REMARK    7  A    between atoms: C_12  and  C_13
REMARK    8  A    between atoms: C_13  and  C_14
REMARK    9  A    between atoms: C_15  and  C_16
REMARK   10  A    between atoms: C_16  and  C_17
REMARK   11  A    between atoms: C_17  and  C_18
REMARK   12  A    between atoms: C_18  and  C_19
REMARK                            x       y       z     vdW  Elec       q    Type
REMARK                         _______ _______ _______ _____ _____    ______ ____
ROOT
ATOM      1  C   UNL     1       3.221   5.449  -6.906  0.00  0.00    +0.055 C 
ATOM      2  C   UNL     1       4.222   6.169  -5.729  0.00  0.00    +0.159 C 
ATOM      3  O   UNL     1       3.705   7.589  -5.929  0.00  0.00    -0.223 OA
ATOM      4  C   UNL     1       3.291   5.984  -4.423  0.00  0.00    +0.066 C 
ATOM      5  C   UNL     1       2.047   5.072  -4.873  0.00  0.00    +0.155 C 
ATOM      6  O   UNL     1       2.912   3.994  -5.497  0.00  0.00    -0.223 OA
ATOM      7  C   UNL     1       1.843   6.071  -6.236  0.00  0.00    +0.041 C 
ENDROOT
BRANCH   1   9
ATOM      8  C   UNL     1       3.543   6.168  -9.219  0.00  0.00    -0.001 C 
ATOM      9  C   UNL     1       3.422   6.592  -8.000  0.00  0.00    -0.026 C 
BRANCH   8  10
ATOM     10  C   UNL     1       4.532   6.231 -10.255  0.00  0.00    +0.145 C 
ATOM     11  O   UNL     1       4.938   7.528 -10.626  0.00  0.00    -0.221 OA
ATOM     12  C   UNL     1       3.852   5.676 -11.509  0.00  0.00    +0.038 C 
BRANCH  10  13
ATOM     13  C   UNL     1       5.810   5.515 -10.063  0.00  0.00    +0.035 C 
BRANCH  13  14
ATOM     14  C   UNL     1       7.042   6.300  -9.816  0.00  0.00    +0.003 C 
BRANCH  14  15
ATOM     15  C   UNL     1       8.080   5.656 -10.712  0.00  0.00    +0.000 C 
BRANCH  15  17
ATOM     16  C   UNL     1       8.559   5.851 -12.660  0.00  0.00    +0.000 C 
ATOM     17  C   UNL     1       7.664   5.680 -12.179  0.00  0.00    +0.000 C 
ENDBRANCH  15  17
ENDBRANCH  14  15
ENDBRANCH  13  14
ENDBRANCH  10  13
ENDBRANCH   8  10
ENDBRANCH   1   9
BRANCH   7  18
ATOM     18  C   UNL     1       0.857   4.998  -6.914  0.00  0.00    +0.029 C 
BRANCH  18  19
ATOM     19  C   UNL     1      -0.324   5.785  -7.344  0.00  0.00    -0.031 C 
ATOM     20  C   UNL     1      -1.506   5.402  -6.838  0.00  0.00    -0.031 C 
BRANCH  20  21
ATOM     21  C   UNL     1      -1.546   5.469  -5.356  0.00  0.00    +0.026 C 
BRANCH  21  22
ATOM     22  C   UNL     1      -2.443   6.502  -4.853  0.00  0.00    +0.016 C 
BRANCH  22  23
ATOM     23  C   UNL     1      -2.906   6.710  -3.582  0.00  0.00    +0.114 C 
BRANCH  23  24
ATOM     24  C   UNL     1      -2.698   6.098  -2.333  0.00  0.00    +0.365 C 
ATOM     25  O   UNL     1      -1.953   6.624  -1.295  0.00  0.00    -0.246 OA
ATOM     26  O   UNL     1      -2.834   4.830  -2.326  0.00  0.00    -0.246 OA
ENDBRANCH  23  24
ENDBRANCH  22  23
ENDBRANCH  21  22
ENDBRANCH  20  21
ENDBRANCH  18  19
ENDBRANCH   7  18
TORSDOF 12
ENDMDL
