MODEL 1
REMARK VINA RESULT:      -5.9      0.000      0.000
REMARK  Name = 
REMARK  3 active torsions:
REMARK  status: ('A' for Active; 'I' for Inactive)
REMARK    1  A    between atoms: C_5  and  C_6
REMARK    2  A    between atoms: N_8  and  C_9
REMARK    3  A    between atoms: C_9  and  C_10
REMARK                            x       y       z     vdW  Elec       q    Type
REMARK                         _______ _______ _______ _____ _____    ______ ____
ROOT
ATOM      1  N   UNL     1       8.553   5.863 -12.703  0.00  0.00    -0.128 NA
ATOM      2  C   UNL     1       7.617   5.607 -11.655  0.00  0.00    +0.089 A 
ATOM      3  C   UNL     1       6.311   5.360 -12.015  0.00  0.00    +0.018 A 
ATOM      4  C   UNL     1       5.297   5.625 -11.119  0.00  0.00    +0.006 A 
ATOM      5  C   UNL     1       5.545   5.607  -9.751  0.00  0.00    +0.055 A 
ATOM      6  C   UNL     1       6.880   5.689  -9.394  0.00  0.00    +0.006 A 
ATOM      7  C   UNL     1       7.858   5.970 -10.340  0.00  0.00    +0.018 A 
ENDROOT
BRANCH   5   8
ATOM      8  C   UNL     1       4.540   5.126  -8.794  0.00  0.00    +0.265 C 
ATOM      9  N   UNL     1       3.981   5.977  -7.815  0.00  0.00    -0.189 NA
ATOM     10  O   UNL     1       3.830   4.137  -9.149  0.00  0.00    -0.268 OA
BRANCH   9  11
ATOM     11  C   UNL     1       2.569   6.017  -7.485  0.00  0.00    +0.229 C 
BRANCH  11  12
ATOM     12  C   UNL     1       1.835   7.068  -8.213  0.00  0.00    +0.387 C 
ATOM     13  O   UNL     1       2.149   8.389  -7.884  0.00  0.00    -0.244 OA
ATOM     14  O   UNL     1       1.338   6.817  -9.349  0.00  0.00    -0.244 OA
ENDBRANCH  11  12
ENDBRANCH   9  11
ENDBRANCH   5   8
TORSDOF 3
ENDMDL
MODEL 2
REMARK VINA RESULT:      -5.6      2.871      5.852
REMARK  Name = 
REMARK  3 active torsions:
REMARK  status: ('A' for Active; 'I' for Inactive)
REMARK    1  A    between atoms: C_5  and  C_6
REMARK    2  A    between atoms: N_8  and  C_9
REMARK    3  A    between atoms: C_9  and  C_10
REMARK                            x       y       z     vdW  Elec       q    Type
REMARK                         _______ _______ _______ _____ _____    ______ ____
ROOT
ATOM      1  N   UNL     1       1.571   7.239  -6.558  0.00  0.00    -0.128 NA
ATOM      2  C   UNL     1       2.752   6.829  -7.248  0.00  0.00    +0.089 A 
ATOM      3  C   UNL     1       2.886   7.214  -8.564  0.00  0.00    +0.018 A 
ATOM      4  C   UNL     1       3.669   6.463  -9.414  0.00  0.00    +0.006 A 
ATOM      5  C   UNL     1       4.716   5.696  -8.915  0.00  0.00    +0.055 A 
ATOM      6  C   UNL     1       4.666   5.450  -7.553  0.00  0.00    +0.006 A 
ATOM      7  C   UNL     1       3.543   5.782  -6.806  0.00  0.00    +0.018 A 
ENDROOT
BRANCH   5   8
ATOM      8  C   UNL     1       5.967   5.521  -9.664  0.00  0.00    +0.265 C 
ATOM      9  N   UNL     1       6.064   5.857 -11.032  0.00  0.00    -0.189 NA
ATOM     10  O   UNL     1       7.047   5.550  -9.001  0.00  0.00    -0.268 OA
BRANCH   9  11
ATOM     11  C   UNL     1       7.186   6.569 -11.615  0.00  0.00    +0.229 C 
BRANCH  11  12
ATOM     12  C   UNL     1       8.192   5.672 -12.213  0.00  0.00    +0.387 C 
ATOM     13  O   UNL     1       7.703   4.555 -12.895  0.00  0.00    -0.244 OA
ATOM     14  O   UNL     1       9.340   6.117 -12.501  0.00  0.00    -0.244 OA
ENDBRANCH  11  12
ENDBRANCH   9  11
ENDBRANCH   5   8
TORSDOF 3
ENDMDL
MODEL 3
REMARK VINA RESULT:      -5.6      1.752      2.209
REMARK  Name = 
REMARK  3 active torsions:
REMARK  status: ('A' for Active; 'I' for Inactive)
REMARK    1  A    between atoms: C_5  and  C_6
REMARK    2  A    between atoms: N_8  and  C_9
REMARK    3  A    between atoms: C_9  and  C_10
REMARK                            x       y       z     vdW  Elec       q    Type
REMARK                         _______ _______ _______ _____ _____    ______ ____
ROOT
ATOM      1  N   UNL     1       8.321   6.107 -12.781  0.00  0.00    -0.128 NA
ATOM      2  C   UNL     1       7.483   5.744 -11.683  0.00  0.00    +0.089 A 
ATOM      3  C   UNL     1       6.172   5.427 -11.961  0.00  0.00    +0.018 A 
ATOM      4  C   UNL     1       5.213   5.585 -10.982  0.00  0.00    +0.006 A 
ATOM      5  C   UNL     1       5.562   5.524  -9.638  0.00  0.00    +0.055 A 
ATOM      6  C   UNL     1       6.912   5.679  -9.374  0.00  0.00    +0.006 A 
ATOM      7  C   UNL     1       7.798   6.064 -10.372  0.00  0.00    +0.018 A 
ENDROOT
BRANCH   5   8
ATOM      8  C   UNL     1       4.663   4.937  -8.637  0.00  0.00    +0.265 C 
ATOM      9  N   UNL     1       4.308   5.631  -7.459  0.00  0.00    -0.189 NA
ATOM     10  O   UNL     1       3.838   4.062  -9.042  0.00  0.00    -0.268 OA
BRANCH   9  11
ATOM     11  C   UNL     1       2.961   5.686  -6.924  0.00  0.00    +0.229 C 
BRANCH  11  12
ATOM     12  C   UNL     1       2.710   4.670  -5.886  0.00  0.00    +0.387 C 
ATOM     13  O   UNL     1       1.859   3.618  -6.237  0.00  0.00    -0.244 OA
ATOM     14  O   UNL     1       3.549   4.499  -4.955  0.00  0.00    -0.244 OA
ENDBRANCH  11  12
ENDBRANCH   9  11
ENDBRANCH   5   8
TORSDOF 3
ENDMDL
MODEL 4
REMARK VINA RESULT:      -5.5      6.607      8.407
REMARK  Name = 
REMARK  3 active torsions:
REMARK  status: ('A' for Active; 'I' for Inactive)
REMARK    1  A    between atoms: C_5  and  C_6
REMARK    2  A    between atoms: N_8  and  C_9
REMARK    3  A    between atoms: C_9  and  C_10
REMARK                            x       y       z     vdW  Elec       q    Type
REMARK                         _______ _______ _______ _____ _____    ______ ____
ROOT
ATOM      1  N   UNL     1       0.916   5.404  -8.356  0.00  0.00    -0.128 NA
ATOM      2  C   UNL     1       0.239   5.716  -7.138  0.00  0.00    +0.089 A 
ATOM      3  C   UNL     1      -1.063   5.282  -7.005  0.00  0.00    +0.018 A 
ATOM      4  C   UNL     1      -1.918   5.955  -6.159  0.00  0.00    +0.006 A 
ATOM      5  C   UNL     1      -1.421   6.667  -5.074  0.00  0.00    +0.055 A 
ATOM      6  C   UNL     1      -0.069   6.958  -5.133  0.00  0.00    +0.006 A 
ATOM      7  C   UNL     1       0.665   6.723  -6.288  0.00  0.00    +0.018 A 
ENDROOT
BRANCH   5   8
ATOM      8  C   UNL     1      -2.150   6.738  -3.801  0.00  0.00    +0.265 C 
ATOM      9  N   UNL     1      -2.296   5.608  -2.966  0.00  0.00    -0.189 NA
ATOM     10  O   UNL     1      -2.209   7.869  -3.230  0.00  0.00    -0.268 OA
BRANCH   9  11
ATOM     11  C   UNL     1      -2.130   5.637  -1.525  0.00  0.00    +0.229 C 
BRANCH  11  12
ATOM     12  C   UNL     1      -0.717   5.605  -1.105  0.00  0.00    +0.387 C 
ATOM     13  O   UNL     1       0.090   4.638  -1.710  0.00  0.00    -0.244 OA
ATOM     14  O   UNL     1      -0.179   6.644  -0.624  0.00  0.00    -0.244 OA
ENDBRANCH  11  12
ENDBRANCH   9  11
ENDBRANCH   5   8
TORSDOF 3
ENDMDL
MODEL 5
REMARK VINA RESULT:      -5.5      5.000      7.026
REMARK  Name = 
REMARK  3 active torsions:
REMARK  status: ('A' for Active; 'I' for Inactive)
REMARK    1  A    between atoms: C_5  and  C_6
REMARK    2  A    between atoms: N_8  and  C_9
REMARK    3  A    between atoms: C_9  and  C_10
REMARK                            x       y       z     vdW  Elec       q    Type
REMARK                         _______ _______ _______ _____ _____    ______ ____
ROOT
ATOM      1  N   UNL     1       2.806   6.703  -9.557  0.00  0.00    -0.128 NA
ATOM      2  C   UNL     1       1.659   6.473  -8.739  0.00  0.00    +0.089 A 
ATOM      3  C   UNL     1       1.732   6.858  -7.418  0.00  0.00    +0.018 A 
ATOM      4  C   UNL     1       0.939   6.228  -6.483  0.00  0.00    +0.006 A 
ATOM      5  C   UNL     1      -0.262   5.639  -6.859  0.00  0.00    +0.055 A 
ATOM      6  C   UNL     1      -0.401   5.404  -8.216  0.00  0.00    +0.006 A 
ATOM      7  C   UNL     1       0.670   5.566  -9.085  0.00  0.00    +0.018 A 
ENDROOT
BRANCH   5   8
ATOM      8  C   UNL     1      -1.435   5.651  -5.975  0.00  0.00    +0.265 C 
ATOM      9  N   UNL     1      -1.312   5.860  -4.583  0.00  0.00    -0.189 NA
ATOM     10  O   UNL     1      -2.547   5.969  -6.494  0.00  0.00    -0.268 OA
BRANCH   9  11
ATOM     11  C   UNL     1      -2.184   6.726  -3.812  0.00  0.00    +0.229 C 
BRANCH  11  12
ATOM     12  C   UNL     1      -3.158   5.982  -2.991  0.00  0.00    +0.387 C 
ATOM     13  O   UNL     1      -2.790   4.690  -2.608  0.00  0.00    -0.244 OA
ATOM     14  O   UNL     1      -4.009   6.611  -2.300  0.00  0.00    -0.244 OA
ENDBRANCH  11  12
ENDBRANCH   9  11
ENDBRANCH   5   8
TORSDOF 3
ENDMDL
MODEL 6
REMARK VINA RESULT:      -5.5      7.283      9.092
REMARK  Name = 
REMARK  3 active torsions:
REMARK  status: ('A' for Active; 'I' for Inactive)
REMARK    1  A    between atoms: C_5  and  C_6
REMARK    2  A    between atoms: N_8  and  C_9
REMARK    3  A    between atoms: C_9  and  C_10
REMARK                            x       y       z     vdW  Elec       q    Type
REMARK                         _______ _______ _______ _____ _____    ______ ____
ROOT
ATOM      1  N   UNL     1      -0.371   5.423  -8.357  0.00  0.00    -0.128 NA
ATOM      2  C   UNL     1      -0.602   5.346  -6.950  0.00  0.00    +0.089 A 
ATOM      3  C   UNL     1      -1.890   5.545  -6.504  0.00  0.00    +0.018 A 
ATOM      4  C   UNL     1      -2.101   6.001  -5.221  0.00  0.00    +0.006 A 
ATOM      5  C   UNL     1      -1.164   5.757  -4.223  0.00  0.00    +0.055 A 
ATOM      6  C   UNL     1       0.093   5.393  -4.675  0.00  0.00    +0.006 A 
ATOM      7  C   UNL     1       0.420   5.469  -6.023  0.00  0.00    +0.018 A 
ENDROOT
BRANCH   5   8
ATOM      8  C   UNL     1      -1.568   5.498  -2.835  0.00  0.00    +0.265 C 
ATOM      9  N   UNL     1      -1.180   6.349  -1.778  0.00  0.00    -0.189 NA
ATOM     10  O   UNL     1      -2.634   4.833  -2.658  0.00  0.00    -0.268 OA
BRANCH   9  11
ATOM     11  C   UNL     1      -2.070   6.787  -0.719  0.00  0.00    +0.229 C 
BRANCH  11  12
ATOM     12  C   UNL     1      -1.383   7.567   0.327  0.00  0.00    +0.387 C 
ATOM     13  O   UNL     1      -0.239   6.989   0.884  0.00  0.00    -0.244 OA
ATOM     14  O   UNL     1      -1.524   8.822   0.371  0.00  0.00    -0.244 OA
ENDBRANCH  11  12
ENDBRANCH   9  11
ENDBRANCH   5   8
TORSDOF 3
ENDMDL
MODEL 7
REMARK VINA RESULT:      -5.5      3.853      7.828
REMARK  Name = 
REMARK  3 active torsions:
REMARK  status: ('A' for Active; 'I' for Inactive)
REMARK    1  A    between atoms: C_5  and  C_6
REMARK    2  A    between atoms: N_8  and  C_9
REMARK    3  A    between atoms: C_9  and  C_10
REMARK                            x       y       z     vdW  Elec       q    Type
REMARK                         _______ _______ _______ _____ _____    ______ ____
ROOT
ATOM      1  N   UNL     1      -3.086   6.180  -3.492  0.00  0.00    -0.128 NA
ATOM      2  C   UNL     1      -2.033   6.034  -4.446  0.00  0.00    +0.089 A 
ATOM      3  C   UNL     1      -2.384   5.973  -5.776  0.00  0.00    +0.018 A 
ATOM      4  C   UNL     1      -1.553   5.330  -6.669  0.00  0.00    +0.006 A 
ATOM      5  C   UNL     1      -0.190   5.227  -6.413  0.00  0.00    +0.055 A 
ATOM      6  C   UNL     1       0.180   5.454  -5.099  0.00  0.00    +0.006 A 
ATOM      7  C   UNL     1      -0.774   5.573  -4.096  0.00  0.00    +0.018 A 
ENDROOT
BRANCH   5   8
ATOM      8  C   UNL     1       0.802   5.290  -7.495  0.00  0.00    +0.265 C 
ATOM      9  N   UNL     1       2.045   4.627  -7.400  0.00  0.00    -0.189 NA
ATOM     10  O   UNL     1       0.367   5.502  -8.667  0.00  0.00    -0.268 OA
BRANCH   9  11
ATOM     11  C   UNL     1       2.644   3.868  -8.481  0.00  0.00    +0.229 C 
BRANCH  11  12
ATOM     12  C   UNL     1       3.884   4.476  -8.997  0.00  0.00    +0.387 C 
ATOM     13  O   UNL     1       3.817   5.042 -10.273  0.00  0.00    -0.244 OA
ATOM     14  O   UNL     1       4.771   4.880  -8.190  0.00  0.00    -0.244 OA
ENDBRANCH  11  12
ENDBRANCH   9  11
ENDBRANCH   5   8
TORSDOF 3
ENDMDL
MODEL 8
REMARK VINA RESULT:      -5.5      1.816      2.018
REMARK  Name = 
REMARK  3 active torsions:
REMARK  status: ('A' for Active; 'I' for Inactive)
REMARK    1  A    between atoms: C_5  and  C_6
REMARK    2  A    between atoms: N_8  and  C_9
REMARK    3  A    between atoms: C_9  and  C_10
REMARK                            x       y       z     vdW  Elec       q    Type
REMARK                         _______ _______ _______ _____ _____    ______ ____
ROOT
ATOM      1  N   UNL     1       8.872   5.746 -12.120  0.00  0.00    -0.128 NA
ATOM      2  C   UNL     1       7.695   5.535 -11.341  0.00  0.00    +0.089 A 
ATOM      3  C   UNL     1       6.510   5.344 -12.017  0.00  0.00    +0.018 A 
ATOM      4  C   UNL     1       5.318   5.657 -11.399  0.00  0.00    +0.006 A 
ATOM      5  C   UNL     1       5.215   5.633 -10.013  0.00  0.00    +0.055 A 
ATOM      6  C   UNL     1       6.422   5.658  -9.334  0.00  0.00    +0.006 A 
ATOM      7  C   UNL     1       7.616   5.892 -10.004  0.00  0.00    +0.018 A 
ENDROOT
BRANCH   5   8
ATOM      8  C   UNL     1       3.984   5.200  -9.340  0.00  0.00    +0.265 C 
ATOM      9  N   UNL     1       2.773   5.914  -9.478  0.00  0.00    -0.189 NA
ATOM     10  O   UNL     1       3.880   3.967  -9.062  0.00  0.00    -0.268 OA
BRANCH   9  11
ATOM     11  C   UNL     1       1.482   5.288  -9.695  0.00  0.00    +0.229 C 
BRANCH  11  12
ATOM     12  C   UNL     1       1.000   5.421 -11.082  0.00  0.00    +0.387 C 
ATOM     13  O   UNL     1       1.766   6.223 -11.932  0.00  0.00    -0.244 OA
ATOM     14  O   UNL     1       0.260   4.526 -11.580  0.00  0.00    -0.244 OA
ENDBRANCH  11  12
ENDBRANCH   9  11
ENDBRANCH   5   8
TORSDOF 3
ENDMDL
MODEL 9
REMARK VINA RESULT:      -5.4      4.321      7.035
REMARK  Name = 
REMARK  3 active torsions:
REMARK  status: ('A' for Active; 'I' for Inactive)
REMARK    1  A    between atoms: C_5  and  C_6
REMARK    2  A    between atoms: N_8  and  C_9
REMARK    3  A    between atoms: C_9  and  C_10
REMARK                            x       y       z     vdW  Elec       q    Type
REMARK                         _______ _______ _______ _____ _____    ______ ____
ROOT
ATOM      1  N   UNL     1       4.282   6.020  -0.004  0.00  0.00    -0.128 NA
ATOM      2  C   UNL     1       4.206   6.255  -1.411  0.00  0.00    +0.089 A 
ATOM      3  C   UNL     1       3.980   5.168  -2.226  0.00  0.00    +0.018 A 
ATOM      4  C   UNL     1       4.405   5.204  -3.538  0.00  0.00    +0.006 A 
ATOM      5  C   UNL     1       4.547   6.418  -4.200  0.00  0.00    +0.055 A 
ATOM      6  C   UNL     1       4.607   7.531  -3.379  0.00  0.00    +0.006 A 
ATOM      7  C   UNL     1       4.718   7.400  -2.001  0.00  0.00    +0.018 A 
ENDROOT
BRANCH   5   8
ATOM      8  C   UNL     1       4.239   6.554  -5.629  0.00  0.00    +0.265 C 
ATOM      9  N   UNL     1       4.354   5.464  -6.520  0.00  0.00    -0.189 NA
ATOM     10  O   UNL     1       3.422   7.466  -5.961  0.00  0.00    -0.268 OA
BRANCH   9  11
ATOM     11  C   UNL     1       3.374   5.142  -7.540  0.00  0.00    +0.229 C 
BRANCH  11  12
ATOM     12  C   UNL     1       2.131   4.572  -6.987  0.00  0.00    +0.387 C 
ATOM     13  O   UNL     1       0.933   5.070  -7.507  0.00  0.00    -0.244 OA
ATOM     14  O   UNL     1       2.144   3.421  -6.463  0.00  0.00    -0.244 OA
ENDBRANCH  11  12
ENDBRANCH   9  11
ENDBRANCH   5   8
TORSDOF 3
ENDMDL
