MODEL 1
REMARK VINA RESULT:      -6.9      0.000      0.000
REMARK  Name = 
REMARK  5 active torsions:
REMARK  status: ('A' for Active; 'I' for Inactive)
REMARK    1  A    between atoms: N_2  and  C_4
REMARK    2  A    between atoms: C_4  and  C_5
REMARK    3  A    between atoms: C_5  and  C_6
REMARK    4  A    between atoms: C_12  and  C_13
REMARK    5  A    between atoms: C_13  and  N_14
REMARK                            x       y       z     vdW  Elec       q    Type
REMARK                         _______ _______ _______ _____ _____    ______ ____
ROOT
ATOM      1  C   UNL     1       2.032   4.921  -9.019  0.00  0.00    -0.000 A 
ATOM      2  C   UNL     1       3.237   5.579  -9.213  0.00  0.00    +0.015 A 
ATOM      3  C   UNL     1       4.045   5.181  -8.156  0.00  0.00    +0.081 A 
ATOM      4  C   UNL     1       5.431   5.202  -8.235  0.00  0.00    +0.019 A 
ATOM      5  C   UNL     1       5.967   5.643  -9.435  0.00  0.00    -0.001 A 
ATOM      6  C   UNL     1       5.192   6.438 -10.270  0.00  0.00    +0.002 A 
ATOM      7  N   UNL     1       3.200   4.948  -7.125  0.00  0.00    -0.244 NA
ATOM      8  C   UNL     1       3.821   6.237 -10.281  0.00  0.00    -0.001 A 
ATOM      9  C   UNL     1       2.008   4.665  -7.656  0.00  0.00    +0.095 A 
ENDROOT
BRANCH   1  10
ATOM     10  C   UNL     1       1.026   4.639 -10.060  0.00  0.00    +0.045 C 
BRANCH  10  11
ATOM     11  C   UNL     1       0.092   5.803 -10.203  0.00  0.00    +0.077 C 
BRANCH  11  13
ATOM     12  C   UNL     1       0.794   5.911 -12.506  0.00  0.00    +0.090 C 
ATOM     13  N   UNL     1       0.363   6.640 -11.338  0.00  0.00    -0.270 NA
ATOM     14  C   UNL     1      -0.662   7.607 -11.619  0.00  0.00    +0.090 C 
ENDBRANCH  11  13
ENDBRANCH  10  11
ENDBRANCH   1  10
BRANCH   6  15
ATOM     15  C   UNL     1       5.852   7.441 -11.159  0.00  0.00    +0.156 C 
BRANCH  15  16
ATOM     16  N   UNL     1       6.787   6.755 -12.017  0.00  0.00    -0.226 N 
ATOM     17  N   UNL     1       8.091   6.618 -11.791  0.00  0.00    -0.145 NA
ATOM     18  C   UNL     1       8.552   5.506 -12.415  0.00  0.00    +0.221 A 
ATOM     19  N   UNL     1       7.495   4.921 -13.026  0.00  0.00    -0.201 NA
ATOM     20  C   UNL     1       6.444   5.758 -12.864  0.00  0.00    +0.198 A 
ENDBRANCH  15  16
ENDBRANCH   6  15
TORSDOF 5
ENDMDL
MODEL 2
REMARK VINA RESULT:      -6.9      4.550      8.910
REMARK  Name = 
REMARK  5 active torsions:
REMARK  status: ('A' for Active; 'I' for Inactive)
REMARK    1  A    between atoms: N_2  and  C_4
REMARK    2  A    between atoms: C_4  and  C_5
REMARK    3  A    between atoms: C_5  and  C_6
REMARK    4  A    between atoms: C_12  and  C_13
REMARK    5  A    between atoms: C_13  and  N_14
REMARK                            x       y       z     vdW  Elec       q    Type
REMARK                         _______ _______ _______ _____ _____    ______ ____
ROOT
ATOM      1  C   UNL     1       2.730   6.832  -6.951  0.00  0.00    -0.000 A 
ATOM      2  C   UNL     1       1.353   6.764  -6.814  0.00  0.00    +0.015 A 
ATOM      3  C   UNL     1       0.900   6.151  -7.975  0.00  0.00    +0.081 A 
ATOM      4  C   UNL     1      -0.304   5.463  -8.028  0.00  0.00    +0.019 A 
ATOM      5  C   UNL     1      -1.034   5.419  -6.850  0.00  0.00    -0.001 A 
ATOM      6  C   UNL     1      -0.803   6.382  -5.876  0.00  0.00    +0.002 A 
ATOM      7  N   UNL     1       1.782   6.507  -8.938  0.00  0.00    -0.244 NA
ATOM      8  C   UNL     1       0.476   6.898  -5.751  0.00  0.00    -0.001 A 
ATOM      9  C   UNL     1       2.931   6.798  -8.322  0.00  0.00    +0.095 A 
ENDROOT
BRANCH   1  10
ATOM     10  C   UNL     1       3.701   6.964  -5.849  0.00  0.00    +0.045 C 
BRANCH  10  11
ATOM     11  C   UNL     1       3.760   5.690  -5.059  0.00  0.00    +0.077 C 
BRANCH  11  13
ATOM     12  C   UNL     1       4.048   4.955  -2.782  0.00  0.00    +0.090 C 
ATOM     13  N   UNL     1       3.343   5.825  -3.691  0.00  0.00    -0.270 NA
ATOM     14  C   UNL     1       3.260   7.183  -3.228  0.00  0.00    +0.090 C 
ENDBRANCH  11  13
ENDBRANCH  10  11
ENDBRANCH   1  10
BRANCH   6  15
ATOM     15  C   UNL     1      -1.915   6.796  -4.967  0.00  0.00    +0.156 C 
BRANCH  15  16
ATOM     16  N   UNL     1      -1.824   6.030  -3.747  0.00  0.00    -0.226 N 
ATOM     17  N   UNL     1      -1.203   6.413  -2.634  0.00  0.00    -0.145 NA
ATOM     18  C   UNL     1      -1.757   5.797  -1.562  0.00  0.00    +0.221 A 
ATOM     19  N   UNL     1      -2.771   5.027  -2.022  0.00  0.00    -0.201 NA
ATOM     20  C   UNL     1      -2.728   5.095  -3.372  0.00  0.00    +0.198 A 
ENDBRANCH  15  16
ENDBRANCH   6  15
TORSDOF 5
ENDMDL
MODEL 3
REMARK VINA RESULT:      -6.5      4.845      7.307
REMARK  Name = 
REMARK  5 active torsions:
REMARK  status: ('A' for Active; 'I' for Inactive)
REMARK    1  A    between atoms: N_2  and  C_4
REMARK    2  A    between atoms: C_4  and  C_5
REMARK    3  A    between atoms: C_5  and  C_6
REMARK    4  A    between atoms: C_12  and  C_13
REMARK    5  A    between atoms: C_13  and  N_14
REMARK                            x       y       z     vdW  Elec       q    Type
REMARK                         _______ _______ _______ _____ _____    ______ ____
ROOT
ATOM      1  C   UNL     1      -1.580   6.659  -5.270  0.00  0.00    -0.000 A 
ATOM      2  C   UNL     1      -0.391   6.401  -5.932  0.00  0.00    +0.015 A 
ATOM      3  C   UNL     1      -0.746   5.627  -7.031  0.00  0.00    +0.081 A 
ATOM      4  C   UNL     1       0.029   5.575  -8.181  0.00  0.00    +0.019 A 
ATOM      5  C   UNL     1       1.184   6.343  -8.174  0.00  0.00    -0.001 A 
ATOM      6  C   UNL     1       1.736   6.722  -6.957  0.00  0.00    +0.002 A 
ATOM      7  N   UNL     1      -1.834   4.924  -6.639  0.00  0.00    -0.244 NA
ATOM      8  C   UNL     1       0.882   6.941  -5.888  0.00  0.00    -0.001 A 
ATOM      9  C   UNL     1      -2.410   5.618  -5.655  0.00  0.00    +0.095 A 
ENDROOT
BRANCH   1  10
ATOM     10  C   UNL     1      -1.823   7.777  -4.338  0.00  0.00    +0.045 C 
BRANCH  10  11
ATOM     11  C   UNL     1      -2.418   7.262  -3.061  0.00  0.00    +0.077 C 
BRANCH  11  13
ATOM     12  C   UNL     1      -1.728   7.664  -0.787  0.00  0.00    +0.090 C 
ATOM     13  N   UNL     1      -1.456   6.987  -2.030  0.00  0.00    -0.270 NA
ATOM     14  C   UNL     1      -1.151   5.593  -1.863  0.00  0.00    +0.090 C 
ENDBRANCH  11  13
ENDBRANCH  10  11
ENDBRANCH   1  10
BRANCH   6  15
ATOM     15  C   UNL     1       3.211   6.930  -6.846  0.00  0.00    +0.156 C 
BRANCH  15  16
ATOM     16  N   UNL     1       3.649   6.463  -5.553  0.00  0.00    -0.226 N 
ATOM     17  N   UNL     1       3.863   5.193  -5.218  0.00  0.00    -0.145 NA
ATOM     18  C   UNL     1       4.765   5.129  -4.209  0.00  0.00    +0.221 A 
ATOM     19  N   UNL     1       5.142   6.399  -3.927  0.00  0.00    -0.201 NA
ATOM     20  C   UNL     1       4.367   7.209  -4.683  0.00  0.00    +0.198 A 
ENDBRANCH  15  16
ENDBRANCH   6  15
TORSDOF 5
ENDMDL
MODEL 4
REMARK VINA RESULT:      -6.5      5.301      8.463
REMARK  Name = 
REMARK  5 active torsions:
REMARK  status: ('A' for Active; 'I' for Inactive)
REMARK    1  A    between atoms: N_2  and  C_4
REMARK    2  A    between atoms: C_4  and  C_5
REMARK    3  A    between atoms: C_5  and  C_6
REMARK    4  A    between atoms: C_12  and  C_13
REMARK    5  A    between atoms: C_13  and  N_14
REMARK                            x       y       z     vdW  Elec       q    Type
REMARK                         _______ _______ _______ _____ _____    ______ ____
ROOT
ATOM      1  C   UNL     1      -0.753   5.748  -1.948  0.00  0.00    -0.000 A 
ATOM      2  C   UNL     1      -0.839   5.440  -3.296  0.00  0.00    +0.015 A 
ATOM      3  C   UNL     1      -2.193   5.506  -3.600  0.00  0.00    +0.081 A 
ATOM      4  C   UNL     1      -2.653   5.753  -4.886  0.00  0.00    +0.019 A 
ATOM      5  C   UNL     1      -1.680   5.933  -5.858  0.00  0.00    -0.001 A 
ATOM      6  C   UNL     1      -0.405   5.426  -5.639  0.00  0.00    +0.002 A 
ATOM      7  N   UNL     1      -2.835   5.155  -2.461  0.00  0.00    -0.244 NA
ATOM      8  C   UNL     1       0.070   5.379  -4.338  0.00  0.00    -0.001 A 
ATOM      9  C   UNL     1      -2.005   5.422  -1.450  0.00  0.00    +0.095 A 
ENDROOT
BRANCH   1  10
ATOM     10  C   UNL     1       0.447   6.254  -1.255  0.00  0.00    +0.045 C 
BRANCH  10  11
ATOM     11  C   UNL     1       1.375   5.119  -0.937  0.00  0.00    +0.077 C 
BRANCH  11  13
ATOM     12  C   UNL     1       3.746   4.791  -1.219  0.00  0.00    +0.090 C 
ATOM     13  N   UNL     1       2.698   5.528  -0.556  0.00  0.00    -0.270 NA
ATOM     14  C   UNL     1       2.906   6.949  -0.572  0.00  0.00    +0.090 C 
ENDBRANCH  11  13
ENDBRANCH  10  11
ENDBRANCH   1  10
BRANCH   6  15
ATOM     15  C   UNL     1       0.430   4.996  -6.802  0.00  0.00    +0.156 C 
BRANCH  15  16
ATOM     16  N   UNL     1       0.868   6.171  -7.515  0.00  0.00    -0.226 N 
ATOM     17  N   UNL     1       1.693   7.103  -7.044  0.00  0.00    -0.145 NA
ATOM     18  C   UNL     1       2.335   7.712  -8.071  0.00  0.00    +0.221 A 
ATOM     19  N   UNL     1       1.914   7.121  -9.214  0.00  0.00    -0.201 NA
ATOM     20  C   UNL     1       0.934   6.256  -8.864  0.00  0.00    +0.198 A 
ENDBRANCH  15  16
ENDBRANCH   6  15
TORSDOF 5
ENDMDL
MODEL 5
REMARK VINA RESULT:      -6.4      4.639      8.557
REMARK  Name = 
REMARK  5 active torsions:
REMARK  status: ('A' for Active; 'I' for Inactive)
REMARK    1  A    between atoms: N_2  and  C_4
REMARK    2  A    between atoms: C_4  and  C_5
REMARK    3  A    between atoms: C_5  and  C_6
REMARK    4  A    between atoms: C_12  and  C_13
REMARK    5  A    between atoms: C_13  and  N_14
REMARK                            x       y       z     vdW  Elec       q    Type
REMARK                         _______ _______ _______ _____ _____    ______ ____
ROOT
ATOM      1  C   UNL     1       0.716   5.744  -8.030  0.00  0.00    -0.000 A 
ATOM      2  C   UNL     1      -0.050   5.757  -6.875  0.00  0.00    +0.015 A 
ATOM      3  C   UNL     1       0.631   6.589  -5.995  0.00  0.00    +0.081 A 
ATOM      4  C   UNL     1      -0.010   7.253  -4.958  0.00  0.00    +0.019 A 
ATOM      5  C   UNL     1      -1.375   7.039  -4.847  0.00  0.00    -0.001 A 
ATOM      6  C   UNL     1      -1.929   5.899  -5.416  0.00  0.00    +0.002 A 
ATOM      7  N   UNL     1       1.939   6.456  -6.314  0.00  0.00    -0.244 NA
ATOM      8  C   UNL     1      -1.349   5.390  -6.568  0.00  0.00    -0.001 A 
ATOM      9  C   UNL     1       1.990   6.065  -7.589  0.00  0.00    +0.095 A 
ENDROOT
BRANCH   1  10
ATOM     10  C   UNL     1       0.232   5.403  -9.381  0.00  0.00    +0.045 C 
BRANCH  10  11
ATOM     11  C   UNL     1       0.592   6.492 -10.347  0.00  0.00    +0.077 C 
BRANCH  11  13
ATOM     12  C   UNL     1       1.987   6.324 -12.305  0.00  0.00    +0.090 C 
ATOM     13  N   UNL     1       0.700   6.058 -11.712  0.00  0.00    -0.270 NA
ATOM     14  C   UNL     1       0.233   4.719 -11.946  0.00  0.00    +0.090 C 
ENDBRANCH  11  13
ENDBRANCH  10  11
ENDBRANCH   1  10
BRANCH   6  15
ATOM     15  C   UNL     1      -3.149   5.287  -4.808  0.00  0.00    +0.156 C 
BRANCH  15  16
ATOM     16  N   UNL     1      -3.066   5.417  -3.374  0.00  0.00    -0.226 N 
ATOM     17  N   UNL     1      -2.122   4.887  -2.600  0.00  0.00    -0.145 NA
ATOM     18  C   UNL     1      -1.988   5.622  -1.468  0.00  0.00    +0.221 A 
ATOM     19  N   UNL     1      -2.859   6.655  -1.556  0.00  0.00    -0.201 NA
ATOM     20  C   UNL     1      -3.588   6.453  -2.677  0.00  0.00    +0.198 A 
ENDBRANCH  15  16
ENDBRANCH   6  15
TORSDOF 5
ENDMDL
MODEL 6
REMARK VINA RESULT:      -6.4      2.114      5.788
REMARK  Name = 
REMARK  5 active torsions:
REMARK  status: ('A' for Active; 'I' for Inactive)
REMARK    1  A    between atoms: N_2  and  C_4
REMARK    2  A    between atoms: C_4  and  C_5
REMARK    3  A    between atoms: C_5  and  C_6
REMARK    4  A    between atoms: C_12  and  C_13
REMARK    5  A    between atoms: C_13  and  N_14
REMARK                            x       y       z     vdW  Elec       q    Type
REMARK                         _______ _______ _______ _____ _____    ______ ____
ROOT
ATOM      1  C   UNL     1       7.161   6.421 -12.847  0.00  0.00    -0.000 A 
ATOM      2  C   UNL     1       6.636   5.824 -11.712  0.00  0.00    +0.015 A 
ATOM      3  C   UNL     1       7.721   5.630 -10.866  0.00  0.00    +0.081 A 
ATOM      4  C   UNL     1       7.578   5.530  -9.489  0.00  0.00    +0.019 A 
ATOM      5  C   UNL     1       6.285   5.635  -9.001  0.00  0.00    -0.001 A 
ATOM      6  C   UNL     1       5.218   5.373  -9.852  0.00  0.00    +0.002 A 
ATOM      7  N   UNL     1       8.785   5.443 -11.682  0.00  0.00    -0.244 NA
ATOM      8  C   UNL     1       5.361   5.672 -11.197  0.00  0.00    -0.001 A 
ATOM      9  C   UNL     1       8.492   6.035 -12.842  0.00  0.00    +0.095 A 
ENDROOT
BRANCH   1  10
ATOM     10  C   UNL     1       6.406   7.228 -13.823  0.00  0.00    +0.045 C 
BRANCH  10  11
ATOM     11  C   UNL     1       6.206   6.450 -15.089  0.00  0.00    +0.077 C 
BRANCH  11  13
ATOM     12  C   UNL     1       3.871   6.175 -14.557  0.00  0.00    +0.090 C 
ATOM     13  N   UNL     1       4.854   6.452 -15.575  0.00  0.00    -0.270 NA
ATOM     14  C   UNL     1       4.521   7.586 -16.393  0.00  0.00    +0.090 C 
ENDBRANCH  11  13
ENDBRANCH  10  11
ENDBRANCH   1  10
BRANCH   6  15
ATOM     15  C   UNL     1       3.943   4.828  -9.293  0.00  0.00    +0.156 C 
BRANCH  15  16
ATOM     16  N   UNL     1       2.879   5.760  -9.576  0.00  0.00    -0.226 N 
ATOM     17  N   UNL     1       1.709   5.456 -10.134  0.00  0.00    -0.145 NA
ATOM     18  C   UNL     1       0.769   6.355  -9.751  0.00  0.00    +0.221 A 
ATOM     19  N   UNL     1       1.370   7.228  -8.909  0.00  0.00    -0.201 NA
ATOM     20  C   UNL     1       2.686   6.915  -8.900  0.00  0.00    +0.198 A 
ENDBRANCH  15  16
ENDBRANCH   6  15
TORSDOF 5
ENDMDL
MODEL 7
REMARK VINA RESULT:      -6.4      5.271      7.836
REMARK  Name = 
REMARK  5 active torsions:
REMARK  status: ('A' for Active; 'I' for Inactive)
REMARK    1  A    between atoms: N_2  and  C_4
REMARK    2  A    between atoms: C_4  and  C_5
REMARK    3  A    between atoms: C_5  and  C_6
REMARK    4  A    between atoms: C_12  and  C_13
REMARK    5  A    between atoms: C_13  and  N_14
REMARK                            x       y       z     vdW  Elec       q    Type
REMARK                         _______ _______ _______ _____ _____    ______ ____
ROOT
ATOM      1  C   UNL     1      -0.156   6.638  -5.577  0.00  0.00    -0.000 A 
ATOM      2  C   UNL     1       1.196   6.458  -5.334  0.00  0.00    +0.015 A 
ATOM      3  C   UNL     1       1.709   5.915  -6.506  0.00  0.00    +0.081 A 
ATOM      4  C   UNL     1       3.045   6.045  -6.859  0.00  0.00    +0.019 A 
ATOM      5  C   UNL     1       3.845   6.751  -5.974  0.00  0.00    -0.001 A 
ATOM      6  C   UNL     1       3.439   6.878  -4.650  0.00  0.00    +0.002 A 
ATOM      7  N   UNL     1       0.696   5.196  -7.043  0.00  0.00    -0.244 NA
ATOM      8  C   UNL     1       2.081   6.930  -4.381  0.00  0.00    -0.001 A 
ATOM      9  C   UNL     1      -0.441   5.719  -6.576  0.00  0.00    +0.095 A 
ENDROOT
BRANCH   1  10
ATOM     10  C   UNL     1      -1.044   7.573  -4.861  0.00  0.00    +0.045 C 
BRANCH  10  11
ATOM     11  C   UNL     1      -2.453   7.060  -4.877  0.00  0.00    +0.077 C 
BRANCH  11  13
ATOM     12  C   UNL     1      -3.089   5.237  -3.434  0.00  0.00    +0.090 C 
ATOM     13  N   UNL     1      -2.951   6.664  -3.589  0.00  0.00    -0.270 NA
ATOM     14  C   UNL     1      -2.290   7.293  -2.480  0.00  0.00    +0.090 C 
ENDBRANCH  11  13
ENDBRANCH  10  11
ENDBRANCH   1  10
BRANCH   6  15
ATOM     15  C   UNL     1       4.466   7.002  -3.572  0.00  0.00    +0.156 C 
BRANCH  15  16
ATOM     16  N   UNL     1       4.035   6.228  -2.432  0.00  0.00    -0.226 N 
ATOM     17  N   UNL     1       4.070   4.901  -2.338  0.00  0.00    -0.145 NA
ATOM     18  C   UNL     1       4.157   4.534  -1.036  0.00  0.00    +0.221 A 
ATOM     19  N   UNL     1       4.203   5.671  -0.301  0.00  0.00    -0.201 NA
ATOM     20  C   UNL     1       4.016   6.697  -1.163  0.00  0.00    +0.198 A 
ENDBRANCH  15  16
ENDBRANCH   6  15
TORSDOF 5
ENDMDL
MODEL 8
REMARK VINA RESULT:      -6.4      6.205      9.045
REMARK  Name = 
REMARK  5 active torsions:
REMARK  status: ('A' for Active; 'I' for Inactive)
REMARK    1  A    between atoms: N_2  and  C_4
REMARK    2  A    between atoms: C_4  and  C_5
REMARK    3  A    between atoms: C_5  and  C_6
REMARK    4  A    between atoms: C_12  and  C_13
REMARK    5  A    between atoms: C_13  and  N_14
REMARK                            x       y       z     vdW  Elec       q    Type
REMARK                         _______ _______ _______ _____ _____    ______ ____
ROOT
ATOM      1  C   UNL     1      -2.135   6.727  -2.650  0.00  0.00    -0.000 A 
ATOM      2  C   UNL     1      -1.546   6.274  -3.819  0.00  0.00    +0.015 A 
ATOM      3  C   UNL     1      -2.529   5.530  -4.459  0.00  0.00    +0.081 A 
ATOM      4  C   UNL     1      -2.528   5.328  -5.833  0.00  0.00    +0.019 A 
ATOM      5  C   UNL     1      -1.486   5.914  -6.535  0.00  0.00    -0.001 A 
ATOM      6  C   UNL     1      -0.317   6.243  -5.860  0.00  0.00    +0.002 A 
ATOM      7  N   UNL     1      -3.290   5.010  -3.468  0.00  0.00    -0.244 NA
ATOM      8  C   UNL     1      -0.409   6.619  -4.530  0.00  0.00    -0.001 A 
ATOM      9  C   UNL     1      -3.147   5.811  -2.409  0.00  0.00    +0.095 A 
ENDROOT
BRANCH   1  10
ATOM     10  C   UNL     1      -1.700   7.895  -1.861  0.00  0.00    +0.045 C 
BRANCH  10  11
ATOM     11  C   UNL     1      -1.894   7.630  -0.398  0.00  0.00    +0.077 C 
BRANCH  11  13
ATOM     12  C   UNL     1      -2.213   8.903   1.624  0.00  0.00    +0.090 C 
ATOM     13  N   UNL     1      -1.393   8.667   0.461  0.00  0.00    -0.270 NA
ATOM     14  C   UNL     1       0.007   8.560   0.765  0.00  0.00    +0.090 C 
ENDBRANCH  11  13
ENDBRANCH  10  11
ENDBRANCH   1  10
BRANCH   6  15
ATOM     15  C   UNL     1       0.987   6.230  -6.590  0.00  0.00    +0.156 C 
BRANCH  15  16
ATOM     16  N   UNL     1       2.046   5.990  -5.640  0.00  0.00    -0.226 N 
ATOM     17  N   UNL     1       2.479   4.795  -5.245  0.00  0.00    -0.145 NA
ATOM     18  C   UNL     1       3.770   4.883  -4.842  0.00  0.00    +0.221 A 
ATOM     19  N   UNL     1       4.158   6.168  -5.018  0.00  0.00    -0.201 NA
ATOM     20  C   UNL     1       3.059   6.855  -5.402  0.00  0.00    +0.198 A 
ENDBRANCH  15  16
ENDBRANCH   6  15
TORSDOF 5
ENDMDL
MODEL 9
REMARK VINA RESULT:      -6.3      3.249      5.945
REMARK  Name = 
REMARK  5 active torsions:
REMARK  status: ('A' for Active; 'I' for Inactive)
REMARK    1  A    between atoms: N_2  and  C_4
REMARK    2  A    between atoms: C_4  and  C_5
REMARK    3  A    between atoms: C_5  and  C_6
REMARK    4  A    between atoms: C_12  and  C_13
REMARK    5  A    between atoms: C_13  and  N_14
REMARK                            x       y       z     vdW  Elec       q    Type
REMARK                         _______ _______ _______ _____ _____    ______ ____
ROOT
ATOM      1  C   UNL     1       0.625   5.398  -4.095  0.00  0.00    -0.000 A 
ATOM      2  C   UNL     1       0.792   5.000  -5.412  0.00  0.00    +0.015 A 
ATOM      3  C   UNL     1      -0.365   5.407  -6.066  0.00  0.00    +0.081 A 
ATOM      4  C   UNL     1      -0.397   5.650  -7.432  0.00  0.00    +0.019 A 
ATOM      5  C   UNL     1       0.796   5.463  -8.113  0.00  0.00    -0.001 A 
ATOM      6  C   UNL     1       1.773   4.648  -7.555  0.00  0.00    +0.002 A 
ATOM      7  N   UNL     1      -1.343   5.355  -5.132  0.00  0.00    -0.244 NA
ATOM      8  C   UNL     1       1.874   4.594  -6.174  0.00  0.00    -0.001 A 
ATOM      9  C   UNL     1      -0.750   5.477  -3.942  0.00  0.00    +0.095 A 
ENDROOT
BRANCH   1  10
ATOM     10  C   UNL     1       1.708   5.617  -3.117  0.00  0.00    +0.045 C 
BRANCH  10  11
ATOM     11  C   UNL     1       2.476   6.855  -3.469  0.00  0.00    +0.077 C 
BRANCH  11  13
ATOM     12  C   UNL     1       4.677   7.752  -3.873  0.00  0.00    +0.090 C 
ATOM     13  N   UNL     1       3.804   6.607  -3.957  0.00  0.00    -0.270 NA
ATOM     14  C   UNL     1       4.402   5.399  -3.459  0.00  0.00    +0.090 C 
ENDBRANCH  11  13
ENDBRANCH  10  11
ENDBRANCH   1  10
BRANCH   6  15
ATOM     15  C   UNL     1       2.709   3.898  -8.446  0.00  0.00    +0.156 C 
BRANCH  15  16
ATOM     16  N   UNL     1       3.738   4.801  -8.900  0.00  0.00    -0.226 N 
ATOM     17  N   UNL     1       4.880   5.058  -8.266  0.00  0.00    -0.145 NA
ATOM     18  C   UNL     1       5.823   5.450  -9.157  0.00  0.00    +0.221 A 
ATOM     19  N   UNL     1       5.256   5.410 -10.386  0.00  0.00    -0.201 NA
ATOM     20  C   UNL     1       3.948   5.117 -10.199  0.00  0.00    +0.198 A 
ENDBRANCH  15  16
ENDBRANCH   6  15
TORSDOF 5
ENDMDL
