MODEL 1
REMARK VINA RESULT:      -8.3      0.000      0.000
REMARK  Name = 
REMARK  8 active torsions:
REMARK  status: ('A' for Active; 'I' for Inactive)
REMARK    1  A    between atoms: C_2  and  C_3
REMARK    2  A    between atoms: C_2  and  N_11
REMARK    3  A    between atoms: C_3  and  C_4
REMARK    4  A    between atoms: C_4  and  C_5
REMARK    5  A    between atoms: N_11  and  C_12
REMARK    6  A    between atoms: C_12  and  C_13
REMARK    7  A    between atoms: C_13  and  C_15
REMARK    8  A    between atoms: C_20  and  C_21
REMARK                            x       y       z     vdW  Elec       q    Type
REMARK                         _______ _______ _______ _____ _____    ______ ____
ROOT
ATOM      1  C   UNL     1       1.327   6.762  -6.580  0.00  0.00    +0.126 C 
ENDROOT
BRANCH   1   2
ATOM      2  C   UNL     1       0.948   5.192  -6.939  0.00  0.00    +0.192 C 
ATOM      3  O   UNL     1       0.056   5.621  -8.098  0.00  0.00    -0.217 OA
BRANCH   2   4
ATOM      4  C   UNL     1      -0.297   5.213  -5.898  0.00  0.00    +0.009 A 
ATOM      5  C   UNL     1       0.024   5.718  -4.662  0.00  0.00    +0.006 A 
ATOM      6  C   UNL     1      -1.001   5.714  -3.722  0.00  0.00    +0.095 A 
ATOM      7  C   UNL     1      -2.312   5.511  -4.150  0.00  0.00    +0.200 A 
ATOM      8  O   UNL     1      -3.300   5.063  -3.267  0.00  0.00    -0.286 OA
ATOM      9  C   UNL     1      -2.545   5.650  -5.514  0.00  0.00    +0.042 A 
ATOM     10  C   UNL     1      -1.498   5.582  -6.430  0.00  0.00    +0.001 A 
BRANCH   6  11
ATOM     11  C   UNL     1      -0.725   5.500  -2.296  0.00  0.00    +0.287 C 
ATOM     12  O   UNL     1       0.106   4.625  -1.906  0.00  0.00    -0.267 OA
ATOM     13  N   UNL     1      -0.817   6.656  -1.463  0.00  0.00    -0.084 NA
ENDBRANCH   6  11
ENDBRANCH   2   4
ENDBRANCH   1   2
BRANCH   1  14
ATOM     14  N   UNL     1       2.696   6.749  -7.099  0.00  0.00    -0.216 NA
BRANCH  14  16
ATOM     15  C   UNL     1       3.916   6.499  -5.145  0.00  0.00    +0.019 C 
ATOM     16  C   UNL     1       3.311   5.527  -6.320  0.00  0.00    +0.073 C 
BRANCH  16  17
ATOM     17  C   UNL     1       4.728   5.546  -7.159  0.00  0.00    +0.022 C 
BRANCH  17  18
ATOM     18  C   UNL     1       4.340   5.533  -8.549  0.00  0.00    +0.028 C 
BRANCH  18  19
ATOM     19  C   UNL     1       5.188   5.840  -9.656  0.00  0.00    -0.022 A 
ATOM     20  C   UNL     1       4.849   7.008 -10.343  0.00  0.00    -0.004 A 
ATOM     21  C   UNL     1       5.778   7.613 -11.169  0.00  0.00    -0.000 A 
ATOM     22  C   UNL     1       7.109   7.382 -10.943  0.00  0.00    -0.000 A 
ATOM     23  C   UNL     1       7.519   6.360 -10.120  0.00  0.00    -0.000 A 
ATOM     24  C   UNL     1       6.550   5.772  -9.341  0.00  0.00    -0.004 A 
ENDBRANCH  18  19
ENDBRANCH  17  18
ENDBRANCH  16  17
ENDBRANCH  14  16
ENDBRANCH   1  14
TORSDOF 8
ENDMDL
MODEL 2
REMARK VINA RESULT:      -8.0      1.505      2.030
REMARK  Name = 
REMARK  8 active torsions:
REMARK  status: ('A' for Active; 'I' for Inactive)
REMARK    1  A    between atoms: C_2  and  C_3
REMARK    2  A    between atoms: C_2  and  N_11
REMARK    3  A    between atoms: C_3  and  C_4
REMARK    4  A    between atoms: C_4  and  C_5
REMARK    5  A    between atoms: N_11  and  C_12
REMARK    6  A    between atoms: C_12  and  C_13
REMARK    7  A    between atoms: C_13  and  C_15
REMARK    8  A    between atoms: C_20  and  C_21
REMARK                            x       y       z     vdW  Elec       q    Type
REMARK                         _______ _______ _______ _____ _____    ______ ____
ROOT
ATOM      1  C   UNL     1      -0.197   5.475  -7.695  0.00  0.00    +0.126 C 
ENDROOT
BRANCH   1   2
ATOM      2  C   UNL     1       0.916   5.721  -6.496  0.00  0.00    +0.192 C 
ATOM      3  O   UNL     1       1.290   4.244  -6.473  0.00  0.00    -0.217 OA
BRANCH   2   4
ATOM      4  C   UNL     1      -0.215   5.512  -5.350  0.00  0.00    +0.009 A 
ATOM      5  C   UNL     1       0.182   5.917  -4.099  0.00  0.00    +0.006 A 
ATOM      6  C   UNL     1      -0.738   5.714  -3.077  0.00  0.00    +0.095 A 
ATOM      7  C   UNL     1      -2.062   5.427  -3.405  0.00  0.00    +0.200 A 
ATOM      8  O   UNL     1      -2.912   4.795  -2.492  0.00  0.00    -0.286 OA
ATOM      9  C   UNL     1      -2.443   5.682  -4.718  0.00  0.00    +0.042 A 
ATOM     10  C   UNL     1      -1.492   5.813  -5.727  0.00  0.00    +0.001 A 
BRANCH   6  11
ATOM     11  C   UNL     1      -0.302   5.384  -1.715  0.00  0.00    +0.287 C 
ATOM     12  O   UNL     1       0.584   4.503  -1.498  0.00  0.00    -0.267 OA
ATOM     13  N   UNL     1      -0.324   6.458  -0.775  0.00  0.00    -0.084 NA
ENDBRANCH   6  11
ENDBRANCH   2   4
ENDBRANCH   1   2
BRANCH   1  14
ATOM     14  N   UNL     1       0.741   5.062  -8.741  0.00  0.00    -0.216 NA
BRANCH  14  16
ATOM     15  C   UNL     1       0.280   6.614 -10.399  0.00  0.00    +0.019 C 
ATOM     16  C   UNL     1       1.356   6.446  -9.171  0.00  0.00    +0.073 C 
BRANCH  16  17
ATOM     17  C   UNL     1       2.486   5.776 -10.164  0.00  0.00    +0.022 C 
BRANCH  17  18
ATOM     18  C   UNL     1       3.751   6.029  -9.515  0.00  0.00    +0.028 C 
BRANCH  18  19
ATOM     19  C   UNL     1       5.023   6.093 -10.159  0.00  0.00    -0.022 A 
ATOM     20  C   UNL     1       5.298   7.312 -10.783  0.00  0.00    -0.004 A 
ATOM     21  C   UNL     1       6.602   7.639 -11.105  0.00  0.00    -0.000 A 
ATOM     22  C   UNL     1       7.621   7.048 -10.407  0.00  0.00    -0.000 A 
ATOM     23  C   UNL     1       7.390   5.948  -9.614  0.00  0.00    -0.000 A 
ATOM     24  C   UNL     1       6.073   5.649  -9.348  0.00  0.00    -0.004 A 
ENDBRANCH  18  19
ENDBRANCH  17  18
ENDBRANCH  16  17
ENDBRANCH  14  16
ENDBRANCH   1  14
TORSDOF 8
ENDMDL
MODEL 3
REMARK VINA RESULT:      -7.6      3.383      7.071
REMARK  Name = 
REMARK  8 active torsions:
REMARK  status: ('A' for Active; 'I' for Inactive)
REMARK    1  A    between atoms: C_2  and  C_3
REMARK    2  A    between atoms: C_2  and  N_11
REMARK    3  A    between atoms: C_3  and  C_4
REMARK    4  A    between atoms: C_4  and  C_5
REMARK    5  A    between atoms: N_11  and  C_12
REMARK    6  A    between atoms: C_12  and  C_13
REMARK    7  A    between atoms: C_13  and  C_15
REMARK    8  A    between atoms: C_20  and  C_21
REMARK                            x       y       z     vdW  Elec       q    Type
REMARK                         _______ _______ _______ _____ _____    ______ ____
ROOT
ATOM      1  C   UNL     1       2.872   6.078  -6.587  0.00  0.00    +0.126 C 
ENDROOT
BRANCH   1   2
ATOM      2  C   UNL     1       3.989   5.087  -5.874  0.00  0.00    +0.192 C 
ATOM      3  O   UNL     1       2.897   4.214  -5.266  0.00  0.00    -0.217 OA
BRANCH   2   4
ATOM      4  C   UNL     1       4.045   6.034  -4.556  0.00  0.00    +0.009 A 
ATOM      5  C   UNL     1       4.333   5.354  -3.398  0.00  0.00    +0.006 A 
ATOM      6  C   UNL     1       4.348   6.118  -2.237  0.00  0.00    +0.095 A 
ATOM      7  C   UNL     1       4.387   7.507  -2.339  0.00  0.00    +0.200 A 
ATOM      8  O   UNL     1       3.968   8.323  -1.283  0.00  0.00    -0.286 OA
ATOM      9  C   UNL     1       4.736   8.025  -3.582  0.00  0.00    +0.042 A 
ATOM     10  C   UNL     1       4.645   7.247  -4.733  0.00  0.00    +0.001 A 
BRANCH   6  11
ATOM     11  C   UNL     1       3.911   5.557  -0.952  0.00  0.00    +0.287 C 
ATOM     12  O   UNL     1       4.582   5.732   0.110  0.00  0.00    -0.267 OA
ATOM     13  N   UNL     1       2.499   5.457  -0.762  0.00  0.00    -0.084 NA
ENDBRANCH   6  11
ENDBRANCH   2   4
ENDBRANCH   1   2
BRANCH   1  14
ATOM     14  N   UNL     1       2.018   5.028  -7.147  0.00  0.00    -0.216 NA
BRANCH  14  16
ATOM     15  C   UNL     1       1.676   7.240  -7.746  0.00  0.00    +0.019 C 
ATOM     16  C   UNL     1       0.784   5.866  -7.649  0.00  0.00    +0.073 C 
BRANCH  16  17
ATOM     17  C   UNL     1       0.260   6.233  -6.131  0.00  0.00    +0.022 C 
BRANCH  17  18
ATOM     18  C   UNL     1      -1.160   5.973  -6.152  0.00  0.00    +0.028 C 
BRANCH  18  19
ATOM     19  C   UNL     1      -2.103   6.405  -5.172  0.00  0.00    -0.022 A 
ATOM     20  C   UNL     1      -2.657   5.377  -4.404  0.00  0.00    -0.004 A 
ATOM     21  C   UNL     1      -3.274   5.674  -3.203  0.00  0.00    -0.000 A 
ATOM     22  C   UNL     1      -2.923   6.826  -2.550  0.00  0.00    -0.000 A 
ATOM     23  C   UNL     1      -2.207   7.811  -3.188  0.00  0.00    -0.000 A 
ATOM     24  C   UNL     1      -1.639   7.472  -4.395  0.00  0.00    -0.004 A 
ENDBRANCH  18  19
ENDBRANCH  17  18
ENDBRANCH  16  17
ENDBRANCH  14  16
ENDBRANCH   1  14
TORSDOF 8
ENDMDL
MODEL 4
REMARK VINA RESULT:      -7.6      3.687      9.224
REMARK  Name = 
REMARK  8 active torsions:
REMARK  status: ('A' for Active; 'I' for Inactive)
REMARK    1  A    between atoms: C_2  and  C_3
REMARK    2  A    between atoms: C_2  and  N_11
REMARK    3  A    between atoms: C_3  and  C_4
REMARK    4  A    between atoms: C_4  and  C_5
REMARK    5  A    between atoms: N_11  and  C_12
REMARK    6  A    between atoms: C_12  and  C_13
REMARK    7  A    between atoms: C_13  and  C_15
REMARK    8  A    between atoms: C_20  and  C_21
REMARK                            x       y       z     vdW  Elec       q    Type
REMARK                         _______ _______ _______ _____ _____    ______ ____
ROOT
ATOM      1  C   UNL     1       3.369   6.622  -9.840  0.00  0.00    +0.126 C 
ENDROOT
BRANCH   1   2
ATOM      2  C   UNL     1       3.906   5.154  -9.297  0.00  0.00    +0.192 C 
ATOM      3  O   UNL     1       4.374   5.758  -7.979  0.00  0.00    -0.217 OA
BRANCH   2   4
ATOM      4  C   UNL     1       5.358   5.386  -9.985  0.00  0.00    +0.009 A 
ATOM      5  C   UNL     1       5.301   6.040 -11.191  0.00  0.00    +0.006 A 
ATOM      6  C   UNL     1       6.518   6.221 -11.839  0.00  0.00    +0.095 A 
ATOM      7  C   UNL     1       7.700   6.031 -11.126  0.00  0.00    +0.200 A 
ATOM      8  O   UNL     1       8.906   5.763 -11.783  0.00  0.00    -0.286 OA
ATOM      9  C   UNL     1       7.587   5.992  -9.740  0.00  0.00    +0.042 A 
ATOM     10  C   UNL     1       6.360   5.741  -9.129  0.00  0.00    +0.001 A 
BRANCH   6  11
ATOM     11  C   UNL     1       6.611   6.192 -13.304  0.00  0.00    +0.287 C 
ATOM     12  O   UNL     1       6.832   7.246 -13.975  0.00  0.00    -0.267 OA
ATOM     13  N   UNL     1       7.141   4.994 -13.873  0.00  0.00    -0.084 NA
ENDBRANCH   6  11
ENDBRANCH   2   4
ENDBRANCH   1   2
BRANCH   1  14
ATOM     14  N   UNL     1       2.057   6.594  -9.192  0.00  0.00    -0.216 NA
BRANCH  14  16
ATOM     15  C   UNL     1       0.654   6.316 -11.015  0.00  0.00    +0.019 C 
ATOM     16  C   UNL     1       1.386   5.359  -9.901  0.00  0.00    +0.073 C 
BRANCH  16  17
ATOM     17  C   UNL     1       0.058   5.362  -8.927  0.00  0.00    +0.022 C 
BRANCH  17  18
ATOM     18  C   UNL     1       0.548   5.767  -7.630  0.00  0.00    +0.028 C 
BRANCH  18  19
ATOM     19  C   UNL     1      -0.224   5.838  -6.431  0.00  0.00    -0.022 A 
ATOM     20  C   UNL     1      -0.022   6.997  -5.677  0.00  0.00    -0.004 A 
ATOM     21  C   UNL     1      -0.952   7.366  -4.724  0.00  0.00    -0.000 A 
ATOM     22  C   UNL     1      -2.240   6.919  -4.853  0.00  0.00    -0.000 A 
ATOM     23  C   UNL     1      -2.551   5.900  -5.722  0.00  0.00    -0.000 A 
ATOM     24  C   UNL     1      -1.579   5.552  -6.631  0.00  0.00    -0.004 A 
ENDBRANCH  18  19
ENDBRANCH  17  18
ENDBRANCH  16  17
ENDBRANCH  14  16
ENDBRANCH   1  14
TORSDOF 8
ENDMDL
MODEL 5
REMARK VINA RESULT:      -7.6      3.174      8.671
REMARK  Name = 
REMARK  8 active torsions:
REMARK  status: ('A' for Active; 'I' for Inactive)
REMARK    1  A    between atoms: C_2  and  C_3
REMARK    2  A    between atoms: C_2  and  N_11
REMARK    3  A    between atoms: C_3  and  C_4
REMARK    4  A    between atoms: C_4  and  C_5
REMARK    5  A    between atoms: N_11  and  C_12
REMARK    6  A    between atoms: C_12  and  C_13
REMARK    7  A    between atoms: C_13  and  C_15
REMARK    8  A    between atoms: C_20  and  C_21
REMARK                            x       y       z     vdW  Elec       q    Type
REMARK                         _______ _______ _______ _____ _____    ______ ____
ROOT
ATOM      1  C   UNL     1       4.288   5.650  -7.427  0.00  0.00    +0.126 C 
ENDROOT
BRANCH   1   2
ATOM      2  C   UNL     1       3.393   5.424  -8.800  0.00  0.00    +0.192 C 
ATOM      3  O   UNL     1       3.369   3.914  -8.594  0.00  0.00    -0.217 OA
BRANCH   2   4
ATOM      4  C   UNL     1       4.736   5.336  -9.708  0.00  0.00    +0.009 A 
ATOM      5  C   UNL     1       4.556   5.752 -11.004  0.00  0.00    +0.006 A 
ATOM      6  C   UNL     1       5.670   5.651 -11.831  0.00  0.00    +0.095 A 
ATOM      7  C   UNL     1       6.924   5.452 -11.258  0.00  0.00    +0.200 A 
ATOM      8  O   UNL     1       7.981   4.914 -11.999  0.00  0.00    -0.286 OA
ATOM      9  C   UNL     1       7.024   5.690  -9.891  0.00  0.00    +0.042 A 
ATOM     10  C   UNL     1       5.889   5.718  -9.084  0.00  0.00    +0.001 A 
BRANCH   6  11
ATOM     11  C   UNL     1       5.531   5.335 -13.258  0.00  0.00    +0.287 C 
ATOM     12  O   UNL     1       4.724   4.445 -13.664  0.00  0.00    -0.267 OA
ATOM     13  N   UNL     1       5.731   6.423 -14.161  0.00  0.00    -0.084 NA
ENDBRANCH   6  11
ENDBRANCH   2   4
ENDBRANCH   1   2
BRANCH   1  14
ATOM     14  N   UNL     1       3.352   6.541  -6.737  0.00  0.00    -0.216 NA
BRANCH  14  16
ATOM     15  C   UNL     1       3.667   4.893  -5.139  0.00  0.00    +0.019 C 
ATOM     16  C   UNL     1       3.919   6.509  -5.269  0.00  0.00    +0.073 C 
BRANCH  16  17
ATOM     17  C   UNL     1       2.469   6.858  -4.569  0.00  0.00    +0.022 C 
BRANCH  17  18
ATOM     18  C   UNL     1       1.481   6.514  -5.564  0.00  0.00    +0.028 C 
BRANCH  18  19
ATOM     19  C   UNL     1       0.106   6.225  -5.311  0.00  0.00    -0.022 A 
ATOM     20  C   UNL     1      -0.644   7.314  -4.860  0.00  0.00    -0.004 A 
ATOM     21  C   UNL     1      -2.024   7.276  -4.940  0.00  0.00    -0.000 A 
ATOM     22  C   UNL     1      -2.608   6.453  -5.865  0.00  0.00    -0.000 A 
ATOM     23  C   UNL     1      -1.881   5.472  -6.497  0.00  0.00    -0.000 A 
ATOM     24  C   UNL     1      -0.513   5.537  -6.361  0.00  0.00    -0.004 A 
ENDBRANCH  18  19
ENDBRANCH  17  18
ENDBRANCH  16  17
ENDBRANCH  14  16
ENDBRANCH   1  14
TORSDOF 8
ENDMDL
MODEL 6
REMARK VINA RESULT:      -7.5      1.711      2.814
REMARK  Name = 
REMARK  8 active torsions:
REMARK  status: ('A' for Active; 'I' for Inactive)
REMARK    1  A    between atoms: C_2  and  C_3
REMARK    2  A    between atoms: C_2  and  N_11
REMARK    3  A    between atoms: C_3  and  C_4
REMARK    4  A    between atoms: C_4  and  C_5
REMARK    5  A    between atoms: N_11  and  C_12
REMARK    6  A    between atoms: C_12  and  C_13
REMARK    7  A    between atoms: C_13  and  C_15
REMARK    8  A    between atoms: C_20  and  C_21
REMARK                            x       y       z     vdW  Elec       q    Type
REMARK                         _______ _______ _______ _____ _____    ______ ____
ROOT
ATOM      1  C   UNL     1       2.153   6.553  -5.582  0.00  0.00    +0.126 C 
ENDROOT
BRANCH   1   2
ATOM      2  C   UNL     1       3.223   5.893  -4.506  0.00  0.00    +0.192 C 
ATOM      3  O   UNL     1       2.902   4.480  -4.979  0.00  0.00    -0.217 OA
BRANCH   2   4
ATOM      4  C   UNL     1       2.083   5.827  -3.352  0.00  0.00    +0.009 A 
ATOM      5  C   UNL     1       0.878   5.336  -3.791  0.00  0.00    +0.006 A 
ATOM      6  C   UNL     1      -0.142   5.304  -2.847  0.00  0.00    +0.095 A 
ATOM      7  C   UNL     1       0.177   5.457  -1.499  0.00  0.00    +0.200 A 
ATOM      8  O   UNL     1      -0.784   5.870  -0.571  0.00  0.00    -0.286 OA
ATOM      9  C   UNL     1       1.518   5.307  -1.160  0.00  0.00    +0.042 A 
ATOM     10  C   UNL     1       2.516   5.412  -2.126  0.00  0.00    +0.001 A 
BRANCH   6  11
ATOM     11  C   UNL     1      -1.541   5.530  -3.231  0.00  0.00    +0.287 C 
ATOM     12  O   UNL     1      -2.474   4.784  -2.805  0.00  0.00    -0.267 OA
ATOM     13  N   UNL     1      -1.913   6.890  -3.458  0.00  0.00    -0.084 NA
ENDBRANCH   6  11
ENDBRANCH   2   4
ENDBRANCH   1   2
BRANCH   1  14
ATOM     14  N   UNL     1       3.099   7.428  -6.276  0.00  0.00    -0.216 NA
BRANCH  14  16
ATOM     15  C   UNL     1       1.200   6.548  -7.269  0.00  0.00    +0.019 C 
ATOM     16  C   UNL     1       2.482   7.465  -7.724  0.00  0.00    +0.073 C 
BRANCH  16  17
ATOM     17  C   UNL     1       3.322   6.149  -8.250  0.00  0.00    +0.022 C 
BRANCH  17  18
ATOM     18  C   UNL     1       3.637   6.433  -9.630  0.00  0.00    +0.028 C 
BRANCH  18  19
ATOM     19  C   UNL     1       4.927   6.328 -10.231  0.00  0.00    -0.022 A 
ATOM     20  C   UNL     1       5.387   7.502 -10.832  0.00  0.00    -0.004 A 
ATOM     21  C   UNL     1       6.733   7.651 -11.107  0.00  0.00    -0.000 A 
ATOM     22  C   UNL     1       7.638   6.922 -10.381  0.00  0.00    -0.000 A 
ATOM     23  C   UNL     1       7.232   5.858  -9.609  0.00  0.00    -0.000 A 
ATOM     24  C   UNL     1       5.879   5.740  -9.391  0.00  0.00    -0.004 A 
ENDBRANCH  18  19
ENDBRANCH  17  18
ENDBRANCH  16  17
ENDBRANCH  14  16
ENDBRANCH   1  14
TORSDOF 8
ENDMDL
MODEL 7
REMARK VINA RESULT:      -7.5      1.807      2.443
REMARK  Name = 
REMARK  8 active torsions:
REMARK  status: ('A' for Active; 'I' for Inactive)
REMARK    1  A    between atoms: C_2  and  C_3
REMARK    2  A    between atoms: C_2  and  N_11
REMARK    3  A    between atoms: C_3  and  C_4
REMARK    4  A    between atoms: C_4  and  C_5
REMARK    5  A    between atoms: N_11  and  C_12
REMARK    6  A    between atoms: C_12  and  C_13
REMARK    7  A    between atoms: C_13  and  C_15
REMARK    8  A    between atoms: C_20  and  C_21
REMARK                            x       y       z     vdW  Elec       q    Type
REMARK                         _______ _______ _______ _____ _____    ______ ____
ROOT
ATOM      1  C   UNL     1       2.443   5.670  -6.902  0.00  0.00    +0.126 C 
ENDROOT
BRANCH   1   2
ATOM      2  C   UNL     1       2.202   4.834  -5.494  0.00  0.00    +0.192 C 
ATOM      3  O   UNL     1       2.177   3.501  -6.233  0.00  0.00    -0.217 OA
BRANCH   2   4
ATOM      4  C   UNL     1       0.593   5.002  -5.623  0.00  0.00    +0.009 A 
ATOM      5  C   UNL     1       0.037   5.781  -4.638  0.00  0.00    +0.006 A 
ATOM      6  C   UNL     1      -1.346   5.916  -4.683  0.00  0.00    +0.095 A 
ATOM      7  C   UNL     1      -2.026   5.544  -5.841  0.00  0.00    +0.200 A 
ATOM      8  O   UNL     1      -3.391   5.237  -5.811  0.00  0.00    -0.286 OA
ATOM      9  C   UNL     1      -1.253   5.371  -6.984  0.00  0.00    +0.042 A 
ATOM     10  C   UNL     1       0.123   5.172  -6.893  0.00  0.00    +0.001 A 
BRANCH   6  11
ATOM     11  C   UNL     1      -2.139   6.033  -3.452  0.00  0.00    +0.287 C 
ATOM     12  O   UNL     1      -2.978   6.970  -3.291  0.00  0.00    -0.267 OA
ATOM     13  N   UNL     1      -2.479   4.804  -2.810  0.00  0.00    -0.084 NA
ENDBRANCH   6  11
ENDBRANCH   2   4
ENDBRANCH   1   2
BRANCH   1  14
ATOM     14  N   UNL     1       3.871   5.384  -7.049  0.00  0.00    -0.216 NA
BRANCH  14  16
ATOM     15  C   UNL     1       3.546   4.330  -9.087  0.00  0.00    +0.019 C 
ATOM     16  C   UNL     1       4.112   5.775  -8.555  0.00  0.00    +0.073 C 
BRANCH  16  17
ATOM     17  C   UNL     1       5.672   5.247  -8.571  0.00  0.00    +0.022 C 
BRANCH  17  18
ATOM     18  C   UNL     1       6.320   6.024  -9.602  0.00  0.00    +0.028 C 
BRANCH  18  19
ATOM     19  C   UNL     1       6.797   5.523 -10.850  0.00  0.00    -0.022 A 
ATOM     20  C   UNL     1       5.886   5.623 -11.904  0.00  0.00    -0.004 A 
ATOM     21  C   UNL     1       6.333   5.534 -13.209  0.00  0.00    -0.000 A 
ATOM     22  C   UNL     1       7.640   5.841 -13.479  0.00  0.00    -0.000 A 
ATOM     23  C   UNL     1       8.565   5.947 -12.467  0.00  0.00    -0.000 A 
ATOM     24  C   UNL     1       8.068   6.002 -11.185  0.00  0.00    -0.004 A 
ENDBRANCH  18  19
ENDBRANCH  17  18
ENDBRANCH  16  17
ENDBRANCH  14  16
ENDBRANCH   1  14
TORSDOF 8
ENDMDL
MODEL 8
REMARK VINA RESULT:      -7.5      3.048      4.241
REMARK  Name = 
REMARK  8 active torsions:
REMARK  status: ('A' for Active; 'I' for Inactive)
REMARK    1  A    between atoms: C_2  and  C_3
REMARK    2  A    between atoms: C_2  and  N_11
REMARK    3  A    between atoms: C_3  and  C_4
REMARK    4  A    between atoms: C_4  and  C_5
REMARK    5  A    between atoms: N_11  and  C_12
REMARK    6  A    between atoms: C_12  and  C_13
REMARK    7  A    between atoms: C_13  and  C_15
REMARK    8  A    between atoms: C_20  and  C_21
REMARK                            x       y       z     vdW  Elec       q    Type
REMARK                         _______ _______ _______ _____ _____    ______ ____
ROOT
ATOM      1  C   UNL     1       2.088   6.251  -6.602  0.00  0.00    +0.126 C 
ENDROOT
BRANCH   1   2
ATOM      2  C   UNL     1       3.105   5.051  -6.088  0.00  0.00    +0.192 C 
ATOM      3  O   UNL     1       1.978   4.350  -5.339  0.00  0.00    -0.217 OA
BRANCH   2   4
ATOM      4  C   UNL     1       3.520   5.912  -4.776  0.00  0.00    +0.009 A 
ATOM      5  C   UNL     1       3.826   5.140  -3.682  0.00  0.00    +0.006 A 
ATOM      6  C   UNL     1       4.144   5.836  -2.521  0.00  0.00    +0.095 A 
ATOM      7  C   UNL     1       4.435   7.196  -2.604  0.00  0.00    +0.200 A 
ATOM      8  O   UNL     1       4.327   8.029  -1.486  0.00  0.00    -0.286 OA
ATOM      9  C   UNL     1       4.706   7.694  -3.875  0.00  0.00    +0.042 A 
ATOM     10  C   UNL     1       4.312   6.998  -5.015  0.00  0.00    +0.001 A 
BRANCH   6  11
ATOM     11  C   UNL     1       3.785   5.311  -1.197  0.00  0.00    +0.287 C 
ATOM     12  O   UNL     1       2.578   5.236  -0.819  0.00  0.00    -0.267 OA
ATOM     13  N   UNL     1       4.644   4.295  -0.676  0.00  0.00    -0.084 NA
ENDBRANCH   6  11
ENDBRANCH   2   4
ENDBRANCH   1   2
BRANCH   1  14
ATOM     14  N   UNL     1       1.434   5.497  -7.674  0.00  0.00    -0.216 NA
BRANCH  14  16
ATOM     15  C   UNL     1       0.205   5.776  -9.618  0.00  0.00    +0.019 C 
ATOM     16  C   UNL     1       1.414   6.561  -8.834  0.00  0.00    +0.073 C 
BRANCH  16  17
ATOM     17  C   UNL     1       2.574   5.799  -9.721  0.00  0.00    +0.022 C 
BRANCH  17  18
ATOM     18  C   UNL     1       3.681   6.725  -9.764  0.00  0.00    +0.028 C 
BRANCH  18  19
ATOM     19  C   UNL     1       4.975   6.456 -10.301  0.00  0.00    -0.022 A 
ATOM     20  C   UNL     1       5.568   7.536 -10.959  0.00  0.00    -0.004 A 
ATOM     21  C   UNL     1       6.932   7.536 -11.186  0.00  0.00    -0.000 A 
ATOM     22  C   UNL     1       7.735   6.778 -10.376  0.00  0.00    -0.000 A 
ATOM     23  C   UNL     1       7.200   5.816  -9.552  0.00  0.00    -0.000 A 
ATOM     24  C   UNL     1       5.835   5.841  -9.384  0.00  0.00    -0.004 A 
ENDBRANCH  18  19
ENDBRANCH  17  18
ENDBRANCH  16  17
ENDBRANCH  14  16
ENDBRANCH   1  14
TORSDOF 8
ENDMDL
MODEL 9
REMARK VINA RESULT:      -7.4      2.899      8.534
REMARK  Name = 
REMARK  8 active torsions:
REMARK  status: ('A' for Active; 'I' for Inactive)
REMARK    1  A    between atoms: C_2  and  C_3
REMARK    2  A    between atoms: C_2  and  N_11
REMARK    3  A    between atoms: C_3  and  C_4
REMARK    4  A    between atoms: C_4  and  C_5
REMARK    5  A    between atoms: N_11  and  C_12
REMARK    6  A    between atoms: C_12  and  C_13
REMARK    7  A    between atoms: C_13  and  C_15
REMARK    8  A    between atoms: C_20  and  C_21
REMARK                            x       y       z     vdW  Elec       q    Type
REMARK                         _______ _______ _______ _____ _____    ______ ____
ROOT
ATOM      1  C   UNL     1       2.795   5.062  -6.545  0.00  0.00    +0.126 C 
ENDROOT
BRANCH   1   2
ATOM      2  C   UNL     1       4.355   5.610  -6.484  0.00  0.00    +0.192 C 
ATOM      3  O   UNL     1       3.893   7.053  -6.320  0.00  0.00    -0.217 OA
BRANCH   2   4
ATOM      4  C   UNL     1       4.410   5.751  -8.100  0.00  0.00    +0.009 A 
ATOM      5  C   UNL     1       5.654   5.524  -8.634  0.00  0.00    +0.006 A 
ATOM      6  C   UNL     1       5.758   5.679 -10.012  0.00  0.00    +0.095 A 
ATOM      7  C   UNL     1       4.595   5.734 -10.778  0.00  0.00    +0.200 A 
ATOM      8  O   UNL     1       4.594   6.313 -12.051  0.00  0.00    -0.286 OA
ATOM      9  C   UNL     1       3.426   5.308 -10.157  0.00  0.00    +0.042 A 
ATOM     10  C   UNL     1       3.339   5.230  -8.769  0.00  0.00    +0.001 A 
BRANCH   6  11
ATOM     11  C   UNL     1       6.988   6.192 -10.629  0.00  0.00    +0.287 C 
ATOM     12  O   UNL     1       7.483   7.309 -10.290  0.00  0.00    -0.267 OA
ATOM     13  N   UNL     1       7.942   5.208 -11.031  0.00  0.00    -0.084 NA
ENDBRANCH   6  11
ENDBRANCH   2   4
ENDBRANCH   1   2
BRANCH   1  14
ATOM     14  N   UNL     1       2.345   5.633  -5.273  0.00  0.00    -0.216 NA
BRANCH  14  16
ATOM     15  C   UNL     1       1.208   3.896  -6.301  0.00  0.00    +0.019 C 
ATOM     16  C   UNL     1       0.896   5.030  -5.157  0.00  0.00    +0.073 C 
BRANCH  16  17
ATOM     17  C   UNL     1       0.244   6.063  -6.264  0.00  0.00    +0.022 C 
BRANCH  17  18
ATOM     18  C   UNL     1      -1.175   5.801  -6.229  0.00  0.00    +0.028 C 
BRANCH  18  19
ATOM     19  C   UNL     1      -2.095   6.309  -5.263  0.00  0.00    -0.022 A 
ATOM     20  C   UNL     1      -2.642   5.342  -4.416  0.00  0.00    -0.004 A 
ATOM     21  C   UNL     1      -3.232   5.726  -3.226  0.00  0.00    -0.000 A 
ATOM     22  C   UNL     1      -2.858   6.915  -2.660  0.00  0.00    -0.000 A 
ATOM     23  C   UNL     1      -2.146   7.847  -3.378  0.00  0.00    -0.000 A 
ATOM     24  C   UNL     1      -1.605   7.422  -4.570  0.00  0.00    -0.004 A 
ENDBRANCH  18  19
ENDBRANCH  17  18
ENDBRANCH  16  17
ENDBRANCH  14  16
ENDBRANCH   1  14
TORSDOF 8
ENDMDL
