MODEL 1
REMARK VINA RESULT:      -8.7      0.000      0.000
REMARK  Name = 
REMARK  7 active torsions:
REMARK  status: ('A' for Active; 'I' for Inactive)
REMARK    1  A    between atoms: C_2  and  C_4
REMARK    2  A    between atoms: C_8  and  C_9
REMARK    3  A    between atoms: C_12  and  S_13
REMARK    4  A    between atoms: S_13  and  C_14
REMARK    5  A    between atoms: C_17  and  C_18
REMARK    6  A    between atoms: C_18  and  N_19
REMARK    7  A    between atoms: N_19  and  S_20
REMARK                            x       y       z     vdW  Elec       q    Type
REMARK                         _______ _______ _______ _____ _____    ______ ____
ROOT
ATOM      1  C   UNL     1       5.567   5.556 -11.272  0.00  0.00    +0.126 C 
ATOM      2  C   UNL     1       4.184   5.214 -10.398  0.00  0.00    +0.096 C 
ATOM      3  N   UNL     1       4.251   6.708 -10.008  0.00  0.00    -0.254 N 
ATOM      4  C   UNL     1       3.451   6.536  -8.833  0.00  0.00    +0.136 C 
ATOM      5  C   UNL     1       3.952   5.637  -8.034  0.00  0.00    +0.024 C 
ATOM      6  C   UNL     1       4.877   4.695  -8.933  0.00  0.00    +0.049 C 
ATOM      7  C   UNL     1       6.129   5.719  -8.858  0.00  0.00    +0.007 C 
ATOM      8  C   UNL     1       5.290   7.053 -10.867  0.00  0.00    +0.233 C 
ATOM      9  O   UNL     1       5.816   8.133 -11.044  0.00  0.00    -0.274 OA
ENDROOT
BRANCH   4  10
ATOM     10  C   UNL     1       2.320   7.393  -8.531  0.00  0.00    +0.401 C 
ATOM     11  O   UNL     1       1.197   7.316  -9.367  0.00  0.00    -0.239 OA
ATOM     12  O   UNL     1       2.375   8.475  -7.883  0.00  0.00    -0.239 OA
ENDBRANCH   4  10
BRANCH   1  14
ATOM     13  C   UNL     1       6.027   6.158 -13.525  0.00  0.00    +0.036 C 
ATOM     14  C   UNL     1       4.651   5.863 -12.679  0.00  0.00    +0.162 C 
ATOM     15  O   UNL     1       4.624   4.417 -13.096  0.00  0.00    -0.223 OA
ENDBRANCH   1  14
BRANCH   5  16
ATOM     16  S   UNL     1       4.318   5.953  -6.290  0.00  0.00    -0.116 S 
BRANCH  16  17
ATOM     17  C   UNL     1       2.924   5.054  -5.358  0.00  0.00    +0.070 C 
ATOM     18  C   UNL     1       1.756   6.133  -5.245  0.00  0.00    +0.031 C 
ATOM     19  C   UNL     1       0.896   4.841  -4.684  0.00  0.00    +0.093 C 
ATOM     20  N   UNL     1       0.948   4.094  -6.061  0.00  0.00    -0.217 NA
ATOM     21  C   UNL     1       2.160   4.516  -6.649  0.00  0.00    +0.100 C 
BRANCH  19  22
ATOM     22  C   UNL     1      -0.565   5.488  -5.027  0.00  0.00    +0.134 C 
BRANCH  22  23
ATOM     23  N   UNL     1      -0.786   6.290  -3.881  0.00  0.00    -0.063 NA
BRANCH  23  24
ATOM     24  S   UNL     1      -1.630   5.649  -2.580  0.00  0.00    +0.146 S 
ATOM     25  O   UNL     1      -0.808   5.031  -1.497  0.00  0.00    -0.137 OA
ATOM     26  O   UNL     1      -2.708   4.673  -2.909  0.00  0.00    -0.137 OA
ATOM     27  N   UNL     1      -2.421   7.020  -1.844  0.00  0.00    +0.053 NA
ENDBRANCH  23  24
ENDBRANCH  22  23
ENDBRANCH  19  22
ENDBRANCH  16  17
ENDBRANCH   5  16
TORSDOF 7
ENDMDL
MODEL 2
REMARK VINA RESULT:      -8.7      2.638      8.595
REMARK  Name = 
REMARK  7 active torsions:
REMARK  status: ('A' for Active; 'I' for Inactive)
REMARK    1  A    between atoms: C_2  and  C_4
REMARK    2  A    between atoms: C_8  and  C_9
REMARK    3  A    between atoms: C_12  and  S_13
REMARK    4  A    between atoms: S_13  and  C_14
REMARK    5  A    between atoms: C_17  and  C_18
REMARK    6  A    between atoms: C_18  and  N_19
REMARK    7  A    between atoms: N_19  and  S_20
REMARK                            x       y       z     vdW  Elec       q    Type
REMARK                         _______ _______ _______ _____ _____    ______ ____
ROOT
ATOM      1  C   UNL     1      -1.134   5.745  -4.231  0.00  0.00    +0.126 C 
ATOM      2  C   UNL     1       0.314   5.396  -4.990  0.00  0.00    +0.096 C 
ATOM      3  N   UNL     1       0.194   6.836  -5.538  0.00  0.00    -0.254 N 
ATOM      4  C   UNL     1       1.070   6.591  -6.644  0.00  0.00    +0.136 C 
ATOM      5  C   UNL     1       0.663   5.588  -7.370  0.00  0.00    +0.024 C 
ATOM      6  C   UNL     1      -0.264   4.691  -6.427  0.00  0.00    +0.049 C 
ATOM      7  C   UNL     1      -1.560   5.629  -6.676  0.00  0.00    +0.007 C 
ATOM      8  C   UNL     1      -0.911   7.206  -4.776  0.00  0.00    +0.233 C 
ATOM      9  O   UNL     1      -1.501   8.267  -4.742  0.00  0.00    -0.274 OA
ENDROOT
BRANCH   4  10
ATOM     10  C   UNL     1       2.170   7.476  -6.973  0.00  0.00    +0.401 C 
ATOM     11  O   UNL     1       3.262   7.521  -6.093  0.00  0.00    -0.239 OA
ATOM     12  O   UNL     1       2.092   8.499  -7.708  0.00  0.00    -0.239 OA
ENDBRANCH   4  10
BRANCH   1  14
ATOM     13  C   UNL     1      -1.747   6.327  -2.010  0.00  0.00    +0.036 C 
ATOM     14  C   UNL     1      -0.320   6.245  -2.818  0.00  0.00    +0.162 C 
ATOM     15  O   UNL     1      -0.058   4.839  -2.352  0.00  0.00    -0.223 OA
ENDBRANCH   1  14
BRANCH   5  16
ATOM     16  S   UNL     1       0.386   5.704  -9.154  0.00  0.00    -0.116 S 
BRANCH  16  17
ATOM     17  C   UNL     1       1.923   4.877  -9.912  0.00  0.00    +0.070 C 
ATOM     18  C   UNL     1       2.955   6.072 -10.129  0.00  0.00    +0.031 C 
ATOM     19  C   UNL     1       3.991   4.838 -10.485  0.00  0.00    +0.093 C 
ATOM     20  N   UNL     1       3.962   4.272  -9.024  0.00  0.00    -0.217 NA
ATOM     21  C   UNL     1       2.681   4.608  -8.537  0.00  0.00    +0.100 C 
BRANCH  19  22
ATOM     22  C   UNL     1       5.345   5.703 -10.182  0.00  0.00    +0.134 C 
BRANCH  22  23
ATOM     23  N   UNL     1       5.529   6.367 -11.420  0.00  0.00    -0.063 NA
BRANCH  23  24
ATOM     24  S   UNL     1       6.274   5.556 -12.685  0.00  0.00    +0.146 S 
ATOM     25  O   UNL     1       5.388   4.717 -13.546  0.00  0.00    -0.137 OA
ATOM     26  O   UNL     1       7.448   4.711 -12.326  0.00  0.00    -0.137 OA
ATOM     27  N   UNL     1       6.881   6.818 -13.726  0.00  0.00    +0.053 NA
ENDBRANCH  23  24
ENDBRANCH  22  23
ENDBRANCH  19  22
ENDBRANCH  16  17
ENDBRANCH   5  16
TORSDOF 7
ENDMDL
MODEL 3
REMARK VINA RESULT:      -8.5      3.339      8.895
REMARK  Name = 
REMARK  7 active torsions:
REMARK  status: ('A' for Active; 'I' for Inactive)
REMARK    1  A    between atoms: C_2  and  C_4
REMARK    2  A    between atoms: C_8  and  C_9
REMARK    3  A    between atoms: C_12  and  S_13
REMARK    4  A    between atoms: S_13  and  C_14
REMARK    5  A    between atoms: C_17  and  C_18
REMARK    6  A    between atoms: C_18  and  N_19
REMARK    7  A    between atoms: N_19  and  S_20
REMARK                            x       y       z     vdW  Elec       q    Type
REMARK                         _______ _______ _______ _____ _____    ______ ____
ROOT
ATOM      1  C   UNL     1       4.337   6.723  -1.869  0.00  0.00    +0.126 C 
ATOM      2  C   UNL     1       3.163   7.107  -2.995  0.00  0.00    +0.096 C 
ATOM      3  N   UNL     1       2.559   5.740  -2.600  0.00  0.00    -0.254 N 
ATOM      4  C   UNL     1       1.817   5.608  -3.817  0.00  0.00    +0.136 C 
ATOM      5  C   UNL     1       2.586   5.695  -4.866  0.00  0.00    +0.024 C 
ATOM      6  C   UNL     1       3.891   6.493  -4.406  0.00  0.00    +0.049 C 
ATOM      7  C   UNL     1       4.581   5.165  -3.788  0.00  0.00    +0.007 C 
ATOM      8  C   UNL     1       3.421   5.485  -1.537  0.00  0.00    +0.233 C 
ATOM      9  O   UNL     1       3.453   4.533  -0.783  0.00  0.00    -0.274 OA
ENDROOT
BRANCH   4  10
ATOM     10  C   UNL     1       0.409   5.256  -3.833  0.00  0.00    +0.401 C 
ATOM     11  O   UNL     1      -0.389   5.791  -4.854  0.00  0.00    -0.239 OA
ATOM     12  O   UNL     1      -0.261   4.881  -2.832  0.00  0.00    -0.239 OA
ENDBRANCH   4  10
BRANCH   1  14
ATOM     13  C   UNL     1       4.797   7.451   0.347  0.00  0.00    +0.036 C 
ATOM     14  C   UNL     1       3.493   7.560  -0.645  0.00  0.00    +0.162 C 
ATOM     15  O   UNL     1       3.905   8.917  -1.150  0.00  0.00    -0.223 OA
ENDBRANCH   1  14
BRANCH   5  16
ATOM     16  S   UNL     1       2.642   4.434  -6.162  0.00  0.00    -0.116 S 
BRANCH  16  17
ATOM     17  C   UNL     1       3.113   5.406  -7.728  0.00  0.00    +0.070 C 
ATOM     18  C   UNL     1       4.706   5.353  -7.768  0.00  0.00    +0.031 C 
ATOM     19  C   UNL     1       4.486   6.021  -9.261  0.00  0.00    +0.093 C 
ATOM     20  N   UNL     1       3.787   4.739  -9.830  0.00  0.00    -0.217 NA
ATOM     21  C   UNL     1       3.151   4.155  -8.714  0.00  0.00    +0.100 C 
BRANCH  19  22
ATOM     22  C   UNL     1       5.941   5.552  -9.839  0.00  0.00    +0.134 C 
BRANCH  22  23
ATOM     23  N   UNL     1       6.042   6.349 -11.005  0.00  0.00    -0.063 NA
BRANCH  23  24
ATOM     24  S   UNL     1       6.611   5.659 -12.425  0.00  0.00    +0.146 S 
ATOM     25  O   UNL     1       7.659   4.606 -12.276  0.00  0.00    -0.137 OA
ATOM     26  O   UNL     1       7.097   6.604 -13.469  0.00  0.00    -0.137 OA
ATOM     27  N   UNL     1       5.226   4.847 -13.110  0.00  0.00    +0.053 NA
ENDBRANCH  23  24
ENDBRANCH  22  23
ENDBRANCH  19  22
ENDBRANCH  16  17
ENDBRANCH   5  16
TORSDOF 7
ENDMDL
MODEL 4
REMARK VINA RESULT:      -8.4      2.767      3.872
REMARK  Name = 
REMARK  7 active torsions:
REMARK  status: ('A' for Active; 'I' for Inactive)
REMARK    1  A    between atoms: C_2  and  C_4
REMARK    2  A    between atoms: C_8  and  C_9
REMARK    3  A    between atoms: C_12  and  S_13
REMARK    4  A    between atoms: S_13  and  C_14
REMARK    5  A    between atoms: C_17  and  C_18
REMARK    6  A    between atoms: C_18  and  N_19
REMARK    7  A    between atoms: N_19  and  S_20
REMARK                            x       y       z     vdW  Elec       q    Type
REMARK                         _______ _______ _______ _____ _____    ______ ____
ROOT
ATOM      1  C   UNL     1       0.525   6.245 -13.482  0.00  0.00    +0.126 C 
ATOM      2  C   UNL     1       1.426   6.898 -12.235  0.00  0.00    +0.096 C 
ATOM      3  N   UNL     1       2.363   5.695 -12.491  0.00  0.00    -0.254 N 
ATOM      4  C   UNL     1       2.949   5.751 -11.185  0.00  0.00    +0.136 C 
ATOM      5  C   UNL     1       2.048   5.679 -10.247  0.00  0.00    +0.024 C 
ATOM      6  C   UNL     1       0.671   6.157 -10.901  0.00  0.00    +0.049 C 
ATOM      7  C   UNL     1       0.379   4.700 -11.542  0.00  0.00    +0.007 C 
ATOM      8  C   UNL     1       1.727   5.239 -13.642  0.00  0.00    +0.233 C 
ATOM      9  O   UNL     1       2.005   4.293 -14.351  0.00  0.00    -0.274 OA
ENDROOT
BRANCH   4  10
ATOM     10  C   UNL     1       4.384   5.723 -10.978  0.00  0.00    +0.401 C 
ATOM     11  O   UNL     1       4.941   6.683 -10.121  0.00  0.00    -0.239 OA
ATOM     12  O   UNL     1       5.229   5.228 -11.775  0.00  0.00    -0.239 OA
ENDBRANCH   4  10
BRANCH   1  14
ATOM     13  C   UNL     1       0.133   6.935 -15.722  0.00  0.00    +0.036 C 
ATOM     14  C   UNL     1       1.318   7.232 -14.626  0.00  0.00    +0.162 C 
ATOM     15  O   UNL     1       0.653   8.494 -14.146  0.00  0.00    -0.223 OA
ENDBRANCH   1  14
BRANCH   5  16
ATOM     16  S   UNL     1       2.100   4.456  -8.914  0.00  0.00    -0.116 S 
BRANCH  16  17
ATOM     17  C   UNL     1       1.649   5.453  -7.358  0.00  0.00    +0.070 C 
ATOM     18  C   UNL     1       0.056   5.406  -7.299  0.00  0.00    +0.031 C 
ATOM     19  C   UNL     1       0.295   6.096  -5.820  0.00  0.00    +0.093 C 
ATOM     20  N   UNL     1       0.997   4.820  -5.238  0.00  0.00    -0.217 NA
ATOM     21  C   UNL     1       1.619   4.217  -6.353  0.00  0.00    +0.100 C 
BRANCH  19  22
ATOM     22  C   UNL     1      -1.155   5.640  -5.218  0.00  0.00    +0.134 C 
BRANCH  22  23
ATOM     23  N   UNL     1      -1.228   6.434  -4.048  0.00  0.00    -0.063 NA
BRANCH  23  24
ATOM     24  S   UNL     1      -1.762   5.741  -2.617  0.00  0.00    +0.146 S 
ATOM     25  O   UNL     1      -2.807   4.681  -2.743  0.00  0.00    -0.137 OA
ATOM     26  O   UNL     1      -2.233   6.683  -1.562  0.00  0.00    -0.137 OA
ATOM     27  N   UNL     1      -0.358   4.937  -1.961  0.00  0.00    +0.053 NA
ENDBRANCH  23  24
ENDBRANCH  22  23
ENDBRANCH  19  22
ENDBRANCH  16  17
ENDBRANCH   5  16
TORSDOF 7
ENDMDL
MODEL 5
REMARK VINA RESULT:      -7.8      2.974      4.139
REMARK  Name = 
REMARK  7 active torsions:
REMARK  status: ('A' for Active; 'I' for Inactive)
REMARK    1  A    between atoms: C_2  and  C_4
REMARK    2  A    between atoms: C_8  and  C_9
REMARK    3  A    between atoms: C_12  and  S_13
REMARK    4  A    between atoms: S_13  and  C_14
REMARK    5  A    between atoms: C_17  and  C_18
REMARK    6  A    between atoms: C_18  and  N_19
REMARK    7  A    between atoms: N_19  and  S_20
REMARK                            x       y       z     vdW  Elec       q    Type
REMARK                         _______ _______ _______ _____ _____    ______ ____
ROOT
ATOM      1  C   UNL     1       6.900   6.171 -11.569  0.00  0.00    +0.126 C 
ATOM      2  C   UNL     1       5.685   5.111 -12.009  0.00  0.00    +0.096 C 
ATOM      3  N   UNL     1       5.136   6.317 -12.805  0.00  0.00    -0.254 N 
ATOM      4  C   UNL     1       3.802   5.799 -12.856  0.00  0.00    +0.136 C 
ATOM      5  C   UNL     1       3.336   5.544 -11.666  0.00  0.00    +0.024 C 
ATOM      6  C   UNL     1       4.604   5.341 -10.715  0.00  0.00    +0.049 C 
ATOM      7  C   UNL     1       4.793   6.934 -10.496  0.00  0.00    +0.007 C 
ATOM      8  C   UNL     1       6.226   7.156 -12.597  0.00  0.00    +0.233 C 
ATOM      9  O   UNL     1       6.413   8.289 -12.995  0.00  0.00    -0.274 OA
ENDROOT
BRANCH   4  10
ATOM     10  C   UNL     1       3.041   5.736 -14.089  0.00  0.00    +0.401 C 
ATOM     11  O   UNL     1       2.260   4.595 -14.321  0.00  0.00    -0.239 OA
ATOM     12  O   UNL     1       3.310   6.369 -15.147  0.00  0.00    -0.239 OA
ENDBRANCH   4  10
BRANCH   1  14
ATOM     13  C   UNL     1       9.229   6.107 -12.039  0.00  0.00    +0.036 C 
ATOM     14  C   UNL     1       7.884   5.643 -12.859  0.00  0.00    +0.162 C 
ATOM     15  O   UNL     1       7.974   4.232 -12.343  0.00  0.00    -0.223 OA
ENDBRANCH   1  14
BRANCH   5  16
ATOM     16  S   UNL     1       1.775   6.217 -11.047  0.00  0.00    -0.116 S 
BRANCH  16  17
ATOM     17  C   UNL     1       1.646   5.530  -9.278  0.00  0.00    +0.070 C 
ATOM     18  C   UNL     1       1.756   6.814  -8.340  0.00  0.00    +0.031 C 
ATOM     19  C   UNL     1       1.357   5.732  -7.160  0.00  0.00    +0.093 C 
ATOM     20  N   UNL     1      -0.076   5.486  -7.746  0.00  0.00    -0.217 NA
ATOM     21  C   UNL     1       0.068   5.689  -9.136  0.00  0.00    +0.100 C 
BRANCH  19  22
ATOM     22  C   UNL     1       0.798   6.862  -6.119  0.00  0.00    +0.134 C 
BRANCH  22  23
ATOM     23  N   UNL     1       1.344   6.403  -4.896  0.00  0.00    -0.063 NA
BRANCH  23  24
ATOM     24  S   UNL     1       2.990   6.572  -4.617  0.00  0.00    +0.146 S 
ATOM     25  O   UNL     1       3.713   7.547  -5.489  0.00  0.00    -0.137 OA
ATOM     26  O   UNL     1       3.792   5.316  -4.622  0.00  0.00    -0.137 OA
ATOM     27  N   UNL     1       3.103   7.218  -3.000  0.00  0.00    +0.053 NA
ENDBRANCH  23  24
ENDBRANCH  22  23
ENDBRANCH  19  22
ENDBRANCH  16  17
ENDBRANCH   5  16
TORSDOF 7
ENDMDL
MODEL 6
REMARK VINA RESULT:      -7.7      3.806      8.358
REMARK  Name = 
REMARK  7 active torsions:
REMARK  status: ('A' for Active; 'I' for Inactive)
REMARK    1  A    between atoms: C_2  and  C_4
REMARK    2  A    between atoms: C_8  and  C_9
REMARK    3  A    between atoms: C_12  and  S_13
REMARK    4  A    between atoms: S_13  and  C_14
REMARK    5  A    between atoms: C_17  and  C_18
REMARK    6  A    between atoms: C_18  and  N_19
REMARK    7  A    between atoms: N_19  and  S_20
REMARK                            x       y       z     vdW  Elec       q    Type
REMARK                         _______ _______ _______ _____ _____    ______ ____
ROOT
ATOM      1  C   UNL     1       4.360   7.036  -1.977  0.00  0.00    +0.126 C 
ATOM      2  C   UNL     1       3.482   7.615  -3.276  0.00  0.00    +0.096 C 
ATOM      3  N   UNL     1       2.870   6.196  -3.295  0.00  0.00    -0.254 N 
ATOM      4  C   UNL     1       2.458   6.287  -4.663  0.00  0.00    +0.136 C 
ATOM      5  C   UNL     1       3.456   6.570  -5.451  0.00  0.00    +0.024 C 
ATOM      6  C   UNL     1       4.565   7.275  -4.544  0.00  0.00    +0.049 C 
ATOM      7  C   UNL     1       5.148   5.859  -4.018  0.00  0.00    +0.007 C 
ATOM      8  C   UNL     1       3.454   5.753  -2.111  0.00  0.00    +0.233 C 
ATOM      9  O   UNL     1       3.348   4.679  -1.555  0.00  0.00    -0.274 OA
ENDROOT
BRANCH   4  10
ATOM     10  C   UNL     1       1.117   5.938  -5.094  0.00  0.00    +0.401 C 
ATOM     11  O   UNL     1       0.844   4.588  -5.358  0.00  0.00    -0.239 OA
ATOM     12  O   UNL     1       0.302   6.721  -5.654  0.00  0.00    -0.239 OA
ENDBRANCH   4  10
BRANCH   1  14
ATOM     13  C   UNL     1       4.236   7.380   0.371  0.00  0.00    +0.036 C 
ATOM     14  C   UNL     1       3.199   7.629  -0.876  0.00  0.00    +0.162 C 
ATOM     15  O   UNL     1       3.631   9.061  -1.039  0.00  0.00    -0.223 OA
ENDBRANCH   1  14
BRANCH   5  16
ATOM     16  S   UNL     1       3.894   5.569  -6.894  0.00  0.00    -0.116 S 
BRANCH  16  17
ATOM     17  C   UNL     1       2.610   6.069  -8.206  0.00  0.00    +0.070 C 
ATOM     18  C   UNL     1       3.458   6.269  -9.541  0.00  0.00    +0.031 C 
ATOM     19  C   UNL     1       1.963   6.394 -10.228  0.00  0.00    +0.093 C 
ATOM     20  N   UNL     1       1.597   4.902  -9.917  0.00  0.00    -0.217 NA
ATOM     21  C   UNL     1       2.313   4.598  -8.739  0.00  0.00    +0.100 C 
BRANCH  19  22
ATOM     22  C   UNL     1       2.470   6.014 -11.735  0.00  0.00    +0.134 C 
BRANCH  22  23
ATOM     23  N   UNL     1       1.315   5.388 -12.263  0.00  0.00    -0.063 NA
BRANCH  23  24
ATOM     24  S   UNL     1       1.256   5.018 -13.898  0.00  0.00    +0.146 S 
ATOM     25  O   UNL     1       0.715   6.080 -14.798  0.00  0.00    -0.137 OA
ATOM     26  O   UNL     1       0.561   3.752 -14.264  0.00  0.00    -0.137 OA
ATOM     27  N   UNL     1       2.924   4.812 -14.368  0.00  0.00    +0.053 NA
ENDBRANCH  23  24
ENDBRANCH  22  23
ENDBRANCH  19  22
ENDBRANCH  16  17
ENDBRANCH   5  16
TORSDOF 7
ENDMDL
MODEL 7
REMARK VINA RESULT:      -7.7      3.510      8.390
REMARK  Name = 
REMARK  7 active torsions:
REMARK  status: ('A' for Active; 'I' for Inactive)
REMARK    1  A    between atoms: C_2  and  C_4
REMARK    2  A    between atoms: C_8  and  C_9
REMARK    3  A    between atoms: C_12  and  S_13
REMARK    4  A    between atoms: S_13  and  C_14
REMARK    5  A    between atoms: C_17  and  C_18
REMARK    6  A    between atoms: C_18  and  N_19
REMARK    7  A    between atoms: N_19  and  S_20
REMARK                            x       y       z     vdW  Elec       q    Type
REMARK                         _______ _______ _______ _____ _____    ______ ____
ROOT
ATOM      1  C   UNL     1       4.418   6.885  -2.742  0.00  0.00    +0.126 C 
ATOM      2  C   UNL     1       3.219   7.340  -3.814  0.00  0.00    +0.096 C 
ATOM      3  N   UNL     1       2.761   5.870  -3.682  0.00  0.00    -0.254 N 
ATOM      4  C   UNL     1       2.046   5.881  -4.922  0.00  0.00    +0.136 C 
ATOM      5  C   UNL     1       2.810   6.232  -5.918  0.00  0.00    +0.024 C 
ATOM      6  C   UNL     1       4.019   7.065  -5.291  0.00  0.00    +0.049 C 
ATOM      7  C   UNL     1       4.841   5.726  -4.898  0.00  0.00    +0.007 C 
ATOM      8  C   UNL     1       3.635   5.521  -2.657  0.00  0.00    +0.233 C 
ATOM      9  O   UNL     1       3.762   4.459  -2.082  0.00  0.00    -0.274 OA
ENDROOT
BRANCH   4  10
ATOM     10  C   UNL     1       0.684   5.395  -5.036  0.00  0.00    +0.401 C 
ATOM     11  O   UNL     1      -0.132   5.456  -3.898  0.00  0.00    -0.239 OA
ATOM     12  O   UNL     1       0.275   4.557  -5.888  0.00  0.00    -0.239 OA
ENDBRANCH   4  10
BRANCH   1  14
ATOM     13  C   UNL     1       4.772   7.218  -0.415  0.00  0.00    +0.036 C 
ATOM     14  C   UNL     1       3.481   7.401  -1.412  0.00  0.00    +0.162 C 
ATOM     15  O   UNL     1       3.777   8.858  -1.642  0.00  0.00    -0.223 OA
ENDBRANCH   1  14
BRANCH   5  16
ATOM     16  S   UNL     1       3.009   5.233  -7.414  0.00  0.00    -0.116 S 
BRANCH  16  17
ATOM     17  C   UNL     1       1.995   6.166  -8.727  0.00  0.00    +0.070 C 
ATOM     18  C   UNL     1       2.660   5.751 -10.115  0.00  0.00    +0.031 C 
ATOM     19  C   UNL     1       1.355   6.542 -10.741  0.00  0.00    +0.093 C 
ATOM     20  N   UNL     1       0.335   5.493 -10.179  0.00  0.00    -0.217 NA
ATOM     21  C   UNL     1       0.942   5.003  -9.002  0.00  0.00    +0.100 C 
BRANCH  19  22
ATOM     22  C   UNL     1       1.417   5.788 -12.190  0.00  0.00    +0.134 C 
BRANCH  22  23
ATOM     23  N   UNL     1       2.745   6.071 -12.590  0.00  0.00    -0.063 NA
BRANCH  23  24
ATOM     24  S   UNL     1       3.436   5.182 -13.834  0.00  0.00    +0.146 S 
ATOM     25  O   UNL     1       2.566   4.149 -14.472  0.00  0.00    -0.137 OA
ATOM     26  O   UNL     1       4.735   4.519 -13.529  0.00  0.00    -0.137 OA
ATOM     27  N   UNL     1       3.767   6.353 -15.086  0.00  0.00    +0.053 NA
ENDBRANCH  23  24
ENDBRANCH  22  23
ENDBRANCH  19  22
ENDBRANCH  16  17
ENDBRANCH   5  16
TORSDOF 7
ENDMDL
MODEL 8
REMARK VINA RESULT:      -7.5      3.333      8.586
REMARK  Name = 
REMARK  7 active torsions:
REMARK  status: ('A' for Active; 'I' for Inactive)
REMARK    1  A    between atoms: C_2  and  C_4
REMARK    2  A    between atoms: C_8  and  C_9
REMARK    3  A    between atoms: C_12  and  S_13
REMARK    4  A    between atoms: S_13  and  C_14
REMARK    5  A    between atoms: C_17  and  C_18
REMARK    6  A    between atoms: C_18  and  N_19
REMARK    7  A    between atoms: N_19  and  S_20
REMARK                            x       y       z     vdW  Elec       q    Type
REMARK                         _______ _______ _______ _____ _____    ______ ____
ROOT
ATOM      1  C   UNL     1       2.418   5.684  -3.057  0.00  0.00    +0.126 C 
ATOM      2  C   UNL     1       1.820   6.902  -4.033  0.00  0.00    +0.096 C 
ATOM      3  N   UNL     1       0.445   6.285  -3.693  0.00  0.00    -0.254 N 
ATOM      4  C   UNL     1      -0.200   6.848  -4.841  0.00  0.00    +0.136 C 
ATOM      5  C   UNL     1       0.402   6.513  -5.947  0.00  0.00    +0.024 C 
ATOM      6  C   UNL     1       1.903   6.136  -5.551  0.00  0.00    +0.049 C 
ATOM      7  C   UNL     1       1.492   4.634  -5.109  0.00  0.00    +0.007 C 
ATOM      8  C   UNL     1       0.905   5.381  -2.740  0.00  0.00    +0.233 C 
ATOM      9  O   UNL     1       0.281   4.583  -2.070  0.00  0.00    -0.274 OA
ENDROOT
BRANCH   4  10
ATOM     10  C   UNL     1      -1.460   7.561  -4.751  0.00  0.00    +0.401 C 
ATOM     11  O   UNL     1      -2.605   6.936  -5.264  0.00  0.00    -0.239 OA
ATOM     12  O   UNL     1      -1.586   8.813  -4.654  0.00  0.00    -0.239 OA
ENDBRANCH   4  10
BRANCH   1  14
ATOM     13  C   UNL     1       3.439   5.710  -0.911  0.00  0.00    +0.036 C 
ATOM     14  C   UNL     1       2.404   6.713  -1.696  0.00  0.00    +0.162 C 
ATOM     15  O   UNL     1       3.523   7.576  -2.212  0.00  0.00    -0.223 OA
ENDBRANCH   1  14
BRANCH   5  16
ATOM     16  S   UNL     1      -0.447   5.728  -7.339  0.00  0.00    -0.116 S 
BRANCH  16  17
ATOM     17  C   UNL     1       0.957   5.299  -8.550  0.00  0.00    +0.070 C 
ATOM     18  C   UNL     1       0.264   5.304  -9.985  0.00  0.00    +0.031 C 
ATOM     19  C   UNL     1       1.822   5.163 -10.511  0.00  0.00    +0.093 C 
ATOM     20  N   UNL     1       2.222   6.585  -9.986  0.00  0.00    -0.217 NA
ATOM     21  C   UNL     1       1.388   6.799  -8.867  0.00  0.00    +0.100 C 
BRANCH  19  22
ATOM     22  C   UNL     1       1.515   5.742 -12.008  0.00  0.00    +0.134 C 
BRANCH  22  23
ATOM     23  N   UNL     1       2.822   6.060 -12.452  0.00  0.00    -0.063 NA
BRANCH  23  24
ATOM     24  S   UNL     1       3.406   5.359 -13.860  0.00  0.00    +0.146 S 
ATOM     25  O   UNL     1       3.659   6.285 -15.004  0.00  0.00    -0.137 OA
ATOM     26  O   UNL     1       2.622   4.213 -14.400  0.00  0.00    -0.137 OA
ATOM     27  N   UNL     1       4.969   4.717 -13.422  0.00  0.00    +0.053 NA
ENDBRANCH  23  24
ENDBRANCH  22  23
ENDBRANCH  19  22
ENDBRANCH  16  17
ENDBRANCH   5  16
TORSDOF 7
ENDMDL
MODEL 9
REMARK VINA RESULT:      -7.4      4.171      5.269
REMARK  Name = 
REMARK  7 active torsions:
REMARK  status: ('A' for Active; 'I' for Inactive)
REMARK    1  A    between atoms: C_2  and  C_4
REMARK    2  A    between atoms: C_8  and  C_9
REMARK    3  A    between atoms: C_12  and  S_13
REMARK    4  A    between atoms: S_13  and  C_14
REMARK    5  A    between atoms: C_17  and  C_18
REMARK    6  A    between atoms: C_18  and  N_19
REMARK    7  A    between atoms: N_19  and  S_20
REMARK                            x       y       z     vdW  Elec       q    Type
REMARK                         _______ _______ _______ _____ _____    ______ ____
ROOT
ATOM      1  C   UNL     1       3.605   6.288  -7.875  0.00  0.00    +0.126 C 
ATOM      2  C   UNL     1       2.582   5.148  -7.206  0.00  0.00    +0.096 C 
ATOM      3  N   UNL     1       1.611   6.340  -7.050  0.00  0.00    -0.254 N 
ATOM      4  C   UNL     1       0.849   5.708  -6.016  0.00  0.00    +0.136 C 
ATOM      5  C   UNL     1       1.599   5.350  -5.012  0.00  0.00    +0.024 C 
ATOM      6  C   UNL     1       3.085   5.213  -5.582  0.00  0.00    +0.049 C 
ATOM      7  C   UNL     1       3.365   6.802  -5.457  0.00  0.00    +0.007 C 
ATOM      8  C   UNL     1       2.372   7.262  -7.763  0.00  0.00    +0.233 C 
ATOM      9  O   UNL     1       2.133   8.426  -8.016  0.00  0.00    -0.274 OA
ENDROOT
BRANCH   4  10
ATOM     10  C   UNL     1      -0.600   5.642  -6.049  0.00  0.00    +0.401 C 
ATOM     11  O   UNL     1      -1.199   4.910  -7.084  0.00  0.00    -0.239 OA
ATOM     12  O   UNL     1      -1.382   6.484  -5.527  0.00  0.00    -0.239 OA
ENDBRANCH   4  10
BRANCH   1  14
ATOM     13  C   UNL     1       4.302   6.765 -10.097  0.00  0.00    +0.036 C 
ATOM     14  C   UNL     1       3.055   5.919  -9.448  0.00  0.00    +0.162 C 
ATOM     15  O   UNL     1       3.811   4.620  -9.515  0.00  0.00    -0.223 OA
ENDBRANCH   1  14
BRANCH   5  16
ATOM     16  S   UNL     1       1.272   5.848  -3.303  0.00  0.00    -0.116 S 
BRANCH  16  17
ATOM     17  C   UNL     1       2.995   5.886  -2.498  0.00  0.00    +0.070 C 
ATOM     18  C   UNL     1       3.061   7.296  -1.758  0.00  0.00    +0.031 C 
ATOM     19  C   UNL     1       4.458   6.674  -1.137  0.00  0.00    +0.093 C 
ATOM     20  N   UNL     1       3.708   5.560  -0.329  0.00  0.00    -0.217 NA
ATOM     21  C   UNL     1       2.551   5.285  -1.091  0.00  0.00    +0.100 C 
BRANCH  19  22
ATOM     22  C   UNL     1       4.489   7.671   0.158  0.00  0.00    +0.134 C 
BRANCH  22  23
ATOM     23  N   UNL     1       3.587   8.683  -0.252  0.00  0.00    -0.063 NA
BRANCH  23  24
ATOM     24  S   UNL     1       3.551  10.138   0.581  0.00  0.00    +0.146 S 
ATOM     25  O   UNL     1       4.716  10.421   1.472  0.00  0.00    -0.137 OA
ATOM     26  O   UNL     1       2.324  10.409   1.382  0.00  0.00    -0.137 OA
ATOM     27  N   UNL     1       3.603  11.363  -0.661  0.00  0.00    +0.053 NA
ENDBRANCH  23  24
ENDBRANCH  22  23
ENDBRANCH  19  22
ENDBRANCH  16  17
ENDBRANCH   5  16
TORSDOF 7
ENDMDL
