MODEL 1
REMARK VINA RESULT:      -7.4      0.000      0.000
REMARK  Name = 
REMARK  9 active torsions:
REMARK  status: ('A' for Active; 'I' for Inactive)
REMARK    1  A    between atoms: C_2  and  C_4
REMARK    2  A    between atoms: C_4  and  O_6
REMARK    3  A    between atoms: O_6  and  C_7
REMARK    4  A    between atoms: C_7  and  O_9
REMARK    5  A    between atoms: O_9  and  C_10
REMARK    6  A    between atoms: N_12  and  C_13
REMARK    7  A    between atoms: C_13  and  C_14
REMARK    8  A    between atoms: C_14  and  C_15
REMARK    9  A    between atoms: C_15  and  C_16
REMARK                            x       y       z     vdW  Elec       q    Type
REMARK                         _______ _______ _______ _____ _____    ______ ____
ROOT
ATOM      1  C   UNL     1       2.416   7.234  -7.762  0.00  0.00    +0.424 C 
ATOM      2  N   UNL     1       3.169   6.520  -8.731  0.00  0.00    -0.169 NA
ATOM      3  O   UNL     1       2.223   8.440  -7.951  0.00  0.00    -0.224 OA
ENDROOT
BRANCH   1   4
ATOM      4  O   UNL     1       2.109   6.588  -6.620  0.00  0.00    -0.398 OA
BRANCH   4   5
ATOM      5  C   UNL     1       0.975   5.531  -6.655  0.00  0.00    +0.346 C 
ATOM      6  C   UNL     1       1.477   4.794  -5.251  0.00  0.00    +0.100 C 
BRANCH   5   7
ATOM      7  O   UNL     1      -0.007   6.459  -5.885  0.00  0.00    -0.414 OA
BRANCH   7   8
ATOM      8  C   UNL     1      -1.309   6.056  -6.095  0.00  0.00    +0.319 C 
ATOM      9  O   UNL     1      -1.609   5.063  -6.820  0.00  0.00    -0.250 OA
BRANCH   8  11
ATOM     10  C   UNL     1      -2.125   7.804  -4.660  0.00  0.00    +0.012 C 
ATOM     11  C   UNL     1      -2.439   6.590  -5.274  0.00  0.00    +0.099 C 
ATOM     12  C   UNL     1      -2.637   5.598  -4.132  0.00  0.00    +0.012 C 
ENDBRANCH   8  11
ENDBRANCH   7   8
ENDBRANCH   5   7
ENDBRANCH   4   5
ENDBRANCH   1   4
BRANCH   2  13
ATOM     13  C   UNL     1       3.884   6.960  -9.770  0.00  0.00    +0.119 C 
BRANCH  13  14
ATOM     14  C   UNL     1       4.946   6.357 -10.519  0.00  0.00    +0.031 C 
ATOM     15  C   UNL     1       5.961   5.810  -9.518  0.00  0.00    +0.002 C 
ATOM     16  C   UNL     1       7.347   5.740 -10.077  0.00  0.00    +0.000 C 
ATOM     17  C   UNL     1       7.908   7.071 -10.496  0.00  0.00    +0.000 C 
ATOM     18  C   UNL     1       6.791   7.989 -10.928  0.00  0.00    +0.000 C 
ATOM     19  C   UNL     1       5.691   7.166 -11.532  0.00  0.00    +0.002 C 
BRANCH  14  20
ATOM     20  C   UNL     1       4.385   5.127 -11.231  0.00  0.00    +0.116 C 
BRANCH  20  21
ATOM     21  C   UNL     1       4.218   5.391 -12.673  0.00  0.00    +0.365 C 
ATOM     22  O   UNL     1       3.085   5.961 -13.247  0.00  0.00    -0.246 OA
ATOM     23  O   UNL     1       4.832   4.595 -13.450  0.00  0.00    -0.246 OA
ENDBRANCH  20  21
ENDBRANCH  14  20
ENDBRANCH  13  14
ENDBRANCH   2  13
TORSDOF 9
ENDMDL
MODEL 2
REMARK VINA RESULT:      -7.4      1.672      3.083
REMARK  Name = 
REMARK  9 active torsions:
REMARK  status: ('A' for Active; 'I' for Inactive)
REMARK    1  A    between atoms: C_2  and  C_4
REMARK    2  A    between atoms: C_4  and  O_6
REMARK    3  A    between atoms: O_6  and  C_7
REMARK    4  A    between atoms: C_7  and  O_9
REMARK    5  A    between atoms: O_9  and  C_10
REMARK    6  A    between atoms: N_12  and  C_13
REMARK    7  A    between atoms: C_13  and  C_14
REMARK    8  A    between atoms: C_14  and  C_15
REMARK    9  A    between atoms: C_15  and  C_16
REMARK                            x       y       z     vdW  Elec       q    Type
REMARK                         _______ _______ _______ _____ _____    ______ ____
ROOT
ATOM      1  C   UNL     1       1.989   7.173  -8.148  0.00  0.00    +0.424 C 
ATOM      2  N   UNL     1       2.791   6.569  -9.152  0.00  0.00    -0.169 NA
ATOM      3  O   UNL     1       2.128   8.384  -7.944  0.00  0.00    -0.224 OA
ENDROOT
BRANCH   1   4
ATOM      4  O   UNL     1       1.256   6.354  -7.368  0.00  0.00    -0.398 OA
BRANCH   4   5
ATOM      5  C   UNL     1       0.757   6.890  -6.001  0.00  0.00    +0.346 C 
ATOM      6  C   UNL     1      -0.447   5.750  -5.876  0.00  0.00    +0.100 C 
BRANCH   5   7
ATOM      7  O   UNL     1       1.759   6.003  -5.210  0.00  0.00    -0.414 OA
BRANCH   7   8
ATOM      8  C   UNL     1       2.691   6.791  -4.568  0.00  0.00    +0.319 C 
ATOM      9  O   UNL     1       2.607   7.088  -3.342  0.00  0.00    -0.250 OA
BRANCH   8  11
ATOM     10  C   UNL     1       4.605   6.020  -5.803  0.00  0.00    +0.012 C 
ATOM     11  C   UNL     1       4.004   7.128  -5.201  0.00  0.00    +0.099 C 
ATOM     12  C   UNL     1       4.934   7.523  -4.059  0.00  0.00    +0.012 C 
ENDBRANCH   8  11
ENDBRANCH   7   8
ENDBRANCH   5   7
ENDBRANCH   4   5
ENDBRANCH   1   4
BRANCH   2  13
ATOM     13  C   UNL     1       3.833   7.051  -9.834  0.00  0.00    +0.119 C 
BRANCH  13  14
ATOM     14  C   UNL     1       4.902   6.395 -10.527  0.00  0.00    +0.031 C 
ATOM     15  C   UNL     1       5.856   5.835  -9.475  0.00  0.00    +0.002 C 
ATOM     16  C   UNL     1       7.261   5.705  -9.975  0.00  0.00    +0.000 C 
ATOM     17  C   UNL     1       7.884   7.007 -10.398  0.00  0.00    +0.000 C 
ATOM     18  C   UNL     1       6.818   7.953 -10.894  0.00  0.00    +0.000 C 
ATOM     19  C   UNL     1       5.715   7.155 -11.525  0.00  0.00    +0.002 C 
BRANCH  14  20
ATOM     20  C   UNL     1       4.327   5.170 -11.236  0.00  0.00    +0.116 C 
BRANCH  20  21
ATOM     21  C   UNL     1       4.246   5.400 -12.692  0.00  0.00    +0.365 C 
ATOM     22  O   UNL     1       3.138   5.931 -13.347  0.00  0.00    -0.246 OA
ATOM     23  O   UNL     1       4.926   4.605 -13.411  0.00  0.00    -0.246 OA
ENDBRANCH  20  21
ENDBRANCH  14  20
ENDBRANCH  13  14
ENDBRANCH   2  13
TORSDOF 9
ENDMDL
MODEL 3
REMARK VINA RESULT:      -7.4      2.265      8.517
REMARK  Name = 
REMARK  9 active torsions:
REMARK  status: ('A' for Active; 'I' for Inactive)
REMARK    1  A    between atoms: C_2  and  C_4
REMARK    2  A    between atoms: C_4  and  O_6
REMARK    3  A    between atoms: O_6  and  C_7
REMARK    4  A    between atoms: C_7  and  O_9
REMARK    5  A    between atoms: O_9  and  C_10
REMARK    6  A    between atoms: N_12  and  C_13
REMARK    7  A    between atoms: C_13  and  C_14
REMARK    8  A    between atoms: C_14  and  C_15
REMARK    9  A    between atoms: C_15  and  C_16
REMARK                            x       y       z     vdW  Elec       q    Type
REMARK                         _______ _______ _______ _____ _____    ______ ____
ROOT
ATOM      1  C   UNL     1       2.525   7.238  -7.771  0.00  0.00    +0.424 C 
ATOM      2  N   UNL     1       2.158   6.574  -6.571  0.00  0.00    -0.169 NA
ATOM      3  O   UNL     1       2.193   8.421  -7.905  0.00  0.00    -0.224 OA
ENDROOT
BRANCH   1   4
ATOM      4  O   UNL     1       3.058   6.486  -8.754  0.00  0.00    -0.398 OA
BRANCH   4   5
ATOM      5  C   UNL     1       4.371   5.716  -8.461  0.00  0.00    +0.346 C 
ATOM      6  C   UNL     1       3.765   4.266  -9.005  0.00  0.00    +0.100 C 
BRANCH   5   7
ATOM      7  O   UNL     1       4.965   6.057  -9.857  0.00  0.00    -0.414 OA
BRANCH   7   8
ATOM      8  C   UNL     1       6.337   6.170  -9.778  0.00  0.00    +0.319 C 
ATOM      9  O   UNL     1       7.055   5.344  -9.144  0.00  0.00    -0.250 OA
BRANCH   8  11
ATOM     10  C   UNL     1       6.261   7.968 -11.374  0.00  0.00    +0.012 C 
ATOM     11  C   UNL     1       7.099   7.114 -10.653  0.00  0.00    +0.099 C 
ATOM     12  C   UNL     1       7.795   6.250 -11.700  0.00  0.00    +0.012 C 
ENDBRANCH   8  11
ENDBRANCH   7   8
ENDBRANCH   5   7
ENDBRANCH   4   5
ENDBRANCH   1   4
BRANCH   2  13
ATOM     13  C   UNL     1       1.341   6.954  -5.585  0.00  0.00    +0.119 C 
BRANCH  13  14
ATOM     14  C   UNL     1       0.170   6.342  -5.031  0.00  0.00    +0.031 C 
ATOM     15  C   UNL     1      -0.691   5.859  -6.195  0.00  0.00    +0.002 C 
ATOM     16  C   UNL     1      -2.147   5.795  -5.853  0.00  0.00    +0.000 C 
ATOM     17  C   UNL     1      -2.744   7.119  -5.464  0.00  0.00    +0.000 C 
ATOM     18  C   UNL     1      -1.691   7.994  -4.829  0.00  0.00    +0.000 C 
ATOM     19  C   UNL     1      -0.707   7.123  -4.105  0.00  0.00    +0.002 C 
BRANCH  14  20
ATOM     20  C   UNL     1       0.599   5.072  -4.299  0.00  0.00    +0.116 C 
BRANCH  20  21
ATOM     21  C   UNL     1       0.803   5.342  -2.862  0.00  0.00    +0.365 C 
ATOM     22  O   UNL     1       1.999   5.785  -2.303  0.00  0.00    -0.246 OA
ATOM     23  O   UNL     1       0.104   4.638  -2.069  0.00  0.00    -0.246 OA
ENDBRANCH  20  21
ENDBRANCH  14  20
ENDBRANCH  13  14
ENDBRANCH   2  13
TORSDOF 9
ENDMDL
MODEL 4
REMARK VINA RESULT:      -7.3      2.372      7.685
REMARK  Name = 
REMARK  9 active torsions:
REMARK  status: ('A' for Active; 'I' for Inactive)
REMARK    1  A    between atoms: C_2  and  C_4
REMARK    2  A    between atoms: C_4  and  O_6
REMARK    3  A    between atoms: O_6  and  C_7
REMARK    4  A    between atoms: C_7  and  O_9
REMARK    5  A    between atoms: O_9  and  C_10
REMARK    6  A    between atoms: N_12  and  C_13
REMARK    7  A    between atoms: C_13  and  C_14
REMARK    8  A    between atoms: C_14  and  C_15
REMARK    9  A    between atoms: C_15  and  C_16
REMARK                            x       y       z     vdW  Elec       q    Type
REMARK                         _______ _______ _______ _____ _____    ______ ____
ROOT
ATOM      1  C   UNL     1       2.662   7.198  -7.443  0.00  0.00    +0.424 C 
ATOM      2  N   UNL     1       2.218   6.714  -6.184  0.00  0.00    -0.169 NA
ATOM      3  O   UNL     1       2.184   8.259  -7.859  0.00  0.00    -0.224 OA
ENDROOT
BRANCH   1   4
ATOM      4  O   UNL     1       3.445   6.382  -8.176  0.00  0.00    -0.398 OA
BRANCH   4   5
ATOM      5  C   UNL     1       3.703   6.747  -9.660  0.00  0.00    +0.346 C 
ATOM      6  C   UNL     1       5.089   5.833  -9.753  0.00  0.00    +0.100 C 
BRANCH   5   7
ATOM      7  O   UNL     1       2.824   5.573 -10.175  0.00  0.00    -0.414 OA
BRANCH   7   8
ATOM      8  C   UNL     1       1.986   6.009 -11.180  0.00  0.00    +0.319 C 
ATOM      9  O   UNL     1       2.406   6.333 -12.328  0.00  0.00    -0.250 OA
BRANCH   8  11
ATOM     10  C   UNL     1      -0.154   7.105 -11.177  0.00  0.00    +0.012 C 
ATOM     11  C   UNL     1       0.500   5.875 -11.076  0.00  0.00    +0.099 C 
ATOM     12  C   UNL     1       0.218   5.381  -9.661  0.00  0.00    +0.012 C 
ENDBRANCH   8  11
ENDBRANCH   7   8
ENDBRANCH   5   7
ENDBRANCH   4   5
ENDBRANCH   1   4
BRANCH   2  13
ATOM     13  C   UNL     1       1.212   7.121  -5.405  0.00  0.00    +0.119 C 
BRANCH  13  14
ATOM     14  C   UNL     1       0.052   6.439  -4.915  0.00  0.00    +0.031 C 
ATOM     15  C   UNL     1      -0.747   5.963  -6.126  0.00  0.00    +0.002 C 
ATOM     16  C   UNL     1      -2.209   5.823  -5.839  0.00  0.00    +0.000 C 
ATOM     17  C   UNL     1      -2.877   7.105  -5.424  0.00  0.00    +0.000 C 
ATOM     18  C   UNL     1      -1.887   8.000  -4.721  0.00  0.00    +0.000 C 
ATOM     19  C   UNL     1      -0.890   7.146  -3.994  0.00  0.00    +0.002 C 
BRANCH  14  20
ATOM     20  C   UNL     1       0.512   5.162  -4.215  0.00  0.00    +0.116 C 
BRANCH  20  21
ATOM     21  C   UNL     1       0.746   5.411  -2.779  0.00  0.00    +0.365 C 
ATOM     22  O   UNL     1       1.927   5.922  -2.247  0.00  0.00    -0.246 OA
ATOM     23  O   UNL     1       0.123   4.643  -1.982  0.00  0.00    -0.246 OA
ENDBRANCH  20  21
ENDBRANCH  14  20
ENDBRANCH  13  14
ENDBRANCH   2  13
TORSDOF 9
ENDMDL
MODEL 5
REMARK VINA RESULT:      -7.1      3.600      5.003
REMARK  Name = 
REMARK  9 active torsions:
REMARK  status: ('A' for Active; 'I' for Inactive)
REMARK    1  A    between atoms: C_2  and  C_4
REMARK    2  A    between atoms: C_4  and  O_6
REMARK    3  A    between atoms: O_6  and  C_7
REMARK    4  A    between atoms: C_7  and  O_9
REMARK    5  A    between atoms: O_9  and  C_10
REMARK    6  A    between atoms: N_12  and  C_13
REMARK    7  A    between atoms: C_13  and  C_14
REMARK    8  A    between atoms: C_14  and  C_15
REMARK    9  A    between atoms: C_15  and  C_16
REMARK                            x       y       z     vdW  Elec       q    Type
REMARK                         _______ _______ _______ _____ _____    ______ ____
ROOT
ATOM      1  C   UNL     1       2.715   5.375 -13.247  0.00  0.00    +0.424 C 
ATOM      2  N   UNL     1       4.007   5.802 -12.844  0.00  0.00    -0.169 NA
ATOM      3  O   UNL     1       2.626   4.661 -14.252  0.00  0.00    -0.224 OA
ENDROOT
BRANCH   1   4
ATOM      4  O   UNL     1       1.659   5.916 -12.607  0.00  0.00    -0.398 OA
BRANCH   4   5
ATOM      5  C   UNL     1       1.862   6.436 -11.161  0.00  0.00    +0.346 C 
ATOM      6  C   UNL     1       0.260   6.840 -10.969  0.00  0.00    +0.100 C 
BRANCH   5   7
ATOM      7  O   UNL     1       1.640   5.025 -10.548  0.00  0.00    -0.414 OA
BRANCH   7   8
ATOM      8  C   UNL     1       2.473   4.838  -9.465  0.00  0.00    +0.319 C 
ATOM      9  O   UNL     1       2.454   3.787  -8.761  0.00  0.00    -0.250 OA
BRANCH   8  11
ATOM     10  C   UNL     1       4.808   5.029  -8.922  0.00  0.00    +0.012 C 
ATOM     11  C   UNL     1       3.638   5.738  -9.205  0.00  0.00    +0.099 C 
ATOM     12  C   UNL     1       3.306   6.499  -7.925  0.00  0.00    +0.012 C 
ENDBRANCH   8  11
ENDBRANCH   7   8
ENDBRANCH   5   7
ENDBRANCH   4   5
ENDBRANCH   1   4
BRANCH   2  13
ATOM     13  C   UNL     1       5.184   5.713 -13.470  0.00  0.00    +0.119 C 
BRANCH  13  14
ATOM     14  C   UNL     1       6.452   6.323 -13.205  0.00  0.00    +0.031 C 
ATOM     15  C   UNL     1       7.295   5.312 -12.431  0.00  0.00    +0.002 C 
ATOM     16  C   UNL     1       8.324   5.960 -11.559  0.00  0.00    +0.000 C 
ATOM     17  C   UNL     1       7.751   6.863 -10.502  0.00  0.00    +0.000 C 
ATOM     18  C   UNL     1       6.449   7.458 -10.980  0.00  0.00    +0.000 C 
ATOM     19  C   UNL     1       6.510   7.625 -12.471  0.00  0.00    +0.002 C 
BRANCH  14  20
ATOM     20  C   UNL     1       7.177   6.511 -14.536  0.00  0.00    +0.116 C 
BRANCH  20  21
ATOM     21  C   UNL     1       6.274   7.103 -15.542  0.00  0.00    +0.365 C 
ATOM     22  O   UNL     1       5.949   6.510 -16.759  0.00  0.00    -0.246 OA
ATOM     23  O   UNL     1       6.250   8.373 -15.575  0.00  0.00    -0.246 OA
ENDBRANCH  20  21
ENDBRANCH  14  20
ENDBRANCH  13  14
ENDBRANCH   2  13
TORSDOF 9
ENDMDL
MODEL 6
REMARK VINA RESULT:      -7.1      2.478      7.882
REMARK  Name = 
REMARK  9 active torsions:
REMARK  status: ('A' for Active; 'I' for Inactive)
REMARK    1  A    between atoms: C_2  and  C_4
REMARK    2  A    between atoms: C_4  and  O_6
REMARK    3  A    between atoms: O_6  and  C_7
REMARK    4  A    between atoms: C_7  and  O_9
REMARK    5  A    between atoms: O_9  and  C_10
REMARK    6  A    between atoms: N_12  and  C_13
REMARK    7  A    between atoms: C_13  and  C_14
REMARK    8  A    between atoms: C_14  and  C_15
REMARK    9  A    between atoms: C_15  and  C_16
REMARK                            x       y       z     vdW  Elec       q    Type
REMARK                         _______ _______ _______ _____ _____    ______ ____
ROOT
ATOM      1  C   UNL     1       3.504   5.837 -10.325  0.00  0.00    +0.424 C 
ATOM      2  N   UNL     1       4.332   6.107  -9.204  0.00  0.00    -0.169 NA
ATOM      3  O   UNL     1       2.509   5.125 -10.154  0.00  0.00    -0.224 OA
ENDROOT
BRANCH   1   4
ATOM      4  O   UNL     1       3.952   6.234 -11.533  0.00  0.00    -0.398 OA
BRANCH   4   5
ATOM      5  C   UNL     1       4.659   5.191 -12.435  0.00  0.00    +0.346 C 
ATOM      6  C   UNL     1       3.873   5.694 -13.811  0.00  0.00    +0.100 C 
BRANCH   5   7
ATOM      7  O   UNL     1       5.862   6.137 -12.706  0.00  0.00    -0.414 OA
BRANCH   7   8
ATOM      8  C   UNL     1       7.021   5.596 -12.191  0.00  0.00    +0.319 C 
ATOM      9  O   UNL     1       7.617   4.618 -12.727  0.00  0.00    -0.250 OA
BRANCH   8  11
ATOM     10  C   UNL     1       7.720   5.633  -9.890  0.00  0.00    +0.012 C 
ATOM     11  C   UNL     1       7.804   6.289 -11.121  0.00  0.00    +0.099 C 
ATOM     12  C   UNL     1       7.126   7.638 -10.908  0.00  0.00    +0.012 C 
ENDBRANCH   8  11
ENDBRANCH   7   8
ENDBRANCH   5   7
ENDBRANCH   4   5
ENDBRANCH   1   4
BRANCH   2  13
ATOM     13  C   UNL     1       4.332   5.575  -7.979  0.00  0.00    +0.119 C 
BRANCH  13  14
ATOM     14  C   UNL     1       3.547   5.864  -6.816  0.00  0.00    +0.031 C 
ATOM     15  C   UNL     1       2.602   4.686  -6.594  0.00  0.00    +0.002 C 
ATOM     16  C   UNL     1       1.348   5.074  -5.875  0.00  0.00    +0.000 C 
ATOM     17  C   UNL     1       0.516   6.095  -6.600  0.00  0.00    +0.000 C 
ATOM     18  C   UNL     1       1.402   6.981  -7.441  0.00  0.00    +0.000 C 
ATOM     19  C   UNL     1       2.734   7.119  -6.763  0.00  0.00    +0.002 C 
BRANCH  14  20
ATOM     20  C   UNL     1       4.476   5.864  -5.604  0.00  0.00    +0.116 C 
BRANCH  20  21
ATOM     21  C   UNL     1       4.149   6.981  -4.696  0.00  0.00    +0.365 C 
ATOM     22  O   UNL     1       4.929   8.124  -4.537  0.00  0.00    -0.246 OA
ATOM     23  O   UNL     1       3.495   6.667  -3.654  0.00  0.00    -0.246 OA
ENDBRANCH  20  21
ENDBRANCH  14  20
ENDBRANCH  13  14
ENDBRANCH   2  13
TORSDOF 9
ENDMDL
MODEL 7
REMARK VINA RESULT:      -6.9      2.551      6.958
REMARK  Name = 
REMARK  9 active torsions:
REMARK  status: ('A' for Active; 'I' for Inactive)
REMARK    1  A    between atoms: C_2  and  C_4
REMARK    2  A    between atoms: C_4  and  O_6
REMARK    3  A    between atoms: O_6  and  C_7
REMARK    4  A    between atoms: C_7  and  O_9
REMARK    5  A    between atoms: O_9  and  C_10
REMARK    6  A    between atoms: N_12  and  C_13
REMARK    7  A    between atoms: C_13  and  C_14
REMARK    8  A    between atoms: C_14  and  C_15
REMARK    9  A    between atoms: C_15  and  C_16
REMARK                            x       y       z     vdW  Elec       q    Type
REMARK                         _______ _______ _______ _____ _____    ______ ____
ROOT
ATOM      1  C   UNL     1       4.267   4.724  -9.134  0.00  0.00    +0.424 C 
ATOM      2  N   UNL     1       3.005   4.265  -8.672  0.00  0.00    -0.169 NA
ATOM      3  O   UNL     1       5.118   5.031  -8.292  0.00  0.00    -0.224 OA
ENDROOT
BRANCH   1   4
ATOM      4  O   UNL     1       4.392   4.957 -10.456  0.00  0.00    -0.398 OA
BRANCH   4   5
ATOM      5  C   UNL     1       3.930   6.329 -11.009  0.00  0.00    +0.346 C 
ATOM      6  C   UNL     1       5.378   6.628 -11.770  0.00  0.00    +0.100 C 
BRANCH   5   7
ATOM      7  O   UNL     1       3.323   5.688 -12.288  0.00  0.00    -0.414 OA
BRANCH   7   8
ATOM      8  C   UNL     1       1.973   5.960 -12.365  0.00  0.00    +0.319 C 
ATOM      9  O   UNL     1       1.366   6.104 -13.465  0.00  0.00    -0.250 OA
BRANCH   8  11
ATOM     10  C   UNL     1       0.308   4.674 -11.200  0.00  0.00    +0.012 C 
ATOM     11  C   UNL     1       1.078   5.839 -11.172  0.00  0.00    +0.099 C 
ATOM     12  C   UNL     1       0.080   6.988 -11.276  0.00  0.00    +0.012 C 
ENDBRANCH   8  11
ENDBRANCH   7   8
ENDBRANCH   5   7
ENDBRANCH   4   5
ENDBRANCH   1   4
BRANCH   2  13
ATOM     13  C   UNL     1       2.482   4.261  -7.443  0.00  0.00    +0.119 C 
BRANCH  13  14
ATOM     14  C   UNL     1       1.743   5.252  -6.720  0.00  0.00    +0.031 C 
ATOM     15  C   UNL     1       0.944   4.531  -5.637  0.00  0.00    +0.002 C 
ATOM     16  C   UNL     1      -0.298   5.267  -5.244  0.00  0.00    +0.000 C 
ATOM     17  C   UNL     1      -1.277   5.463  -6.368  0.00  0.00    +0.000 C 
ATOM     18  C   UNL     1      -0.543   5.542  -7.684  0.00  0.00    +0.000 C 
ATOM     19  C   UNL     1       0.806   6.159  -7.453  0.00  0.00    +0.002 C 
BRANCH  14  20
ATOM     20  C   UNL     1       2.738   6.130  -5.964  0.00  0.00    +0.116 C 
BRANCH  20  21
ATOM     21  C   UNL     1       3.312   5.398  -4.818  0.00  0.00    +0.365 C 
ATOM     22  O   UNL     1       3.039   5.682  -3.482  0.00  0.00    -0.246 OA
ATOM     23  O   UNL     1       4.469   4.908  -5.004  0.00  0.00    -0.246 OA
ENDBRANCH  20  21
ENDBRANCH  14  20
ENDBRANCH  13  14
ENDBRANCH   2  13
TORSDOF 9
ENDMDL
MODEL 8
REMARK VINA RESULT:      -6.8      5.384      6.829
REMARK  Name = 
REMARK  9 active torsions:
REMARK  status: ('A' for Active; 'I' for Inactive)
REMARK    1  A    between atoms: C_2  and  C_4
REMARK    2  A    between atoms: C_4  and  O_6
REMARK    3  A    between atoms: O_6  and  C_7
REMARK    4  A    between atoms: C_7  and  O_9
REMARK    5  A    between atoms: O_9  and  C_10
REMARK    6  A    between atoms: N_12  and  C_13
REMARK    7  A    between atoms: C_13  and  C_14
REMARK    8  A    between atoms: C_14  and  C_15
REMARK    9  A    between atoms: C_15  and  C_16
REMARK                            x       y       z     vdW  Elec       q    Type
REMARK                         _______ _______ _______ _____ _____    ______ ____
ROOT
ATOM      1  C   UNL     1       0.787   5.383  -1.223  0.00  0.00    +0.424 C 
ATOM      2  N   UNL     1       1.837   6.063  -1.895  0.00  0.00    -0.169 NA
ATOM      3  O   UNL     1       0.652   4.173  -1.431  0.00  0.00    -0.224 OA
ENDROOT
BRANCH   1   4
ATOM      4  O   UNL     1      -0.095   6.137  -0.537  0.00  0.00    -0.398 OA
BRANCH   4   5
ATOM      5  C   UNL     1      -1.605   5.968  -0.849  0.00  0.00    +0.346 C 
ATOM      6  C   UNL     1      -2.005   7.460  -0.231  0.00  0.00    +0.100 C 
BRANCH   5   7
ATOM      7  O   UNL     1      -1.443   6.542  -2.284  0.00  0.00    -0.414 OA
BRANCH   7   8
ATOM      8  C   UNL     1      -2.204   5.816  -3.177  0.00  0.00    +0.319 C 
ATOM      9  O   UNL     1      -2.709   4.693  -2.889  0.00  0.00    -0.250 OA
BRANCH   8  11
ATOM     10  C   UNL     1      -2.273   5.725  -5.579  0.00  0.00    +0.012 C 
ATOM     11  C   UNL     1      -2.712   6.419  -4.448  0.00  0.00    +0.099 C 
ATOM     12  C   UNL     1      -2.071   7.799  -4.547  0.00  0.00    +0.012 C 
ENDBRANCH   8  11
ENDBRANCH   7   8
ENDBRANCH   5   7
ENDBRANCH   4   5
ENDBRANCH   1   4
BRANCH   2  13
ATOM     13  C   UNL     1       2.639   5.657  -2.884  0.00  0.00    +0.119 C 
BRANCH  13  14
ATOM     14  C   UNL     1       2.793   6.115  -4.232  0.00  0.00    +0.031 C 
ATOM     15  C   UNL     1       1.424   6.584  -4.718  0.00  0.00    +0.002 C 
ATOM     16  C   UNL     1       1.268   6.484  -6.203  0.00  0.00    +0.000 C 
ATOM     17  C   UNL     1       1.401   5.086  -6.740  0.00  0.00    +0.000 C 
ATOM     18  C   UNL     1       2.323   4.279  -5.859  0.00  0.00    +0.000 C 
ATOM     19  C   UNL     1       3.355   5.194  -5.268  0.00  0.00    +0.002 C 
BRANCH  14  20
ATOM     20  C   UNL     1       3.661   7.371  -4.210  0.00  0.00    +0.116 C 
BRANCH  20  21
ATOM     21  C   UNL     1       4.870   7.155  -3.392  0.00  0.00    +0.365 C 
ATOM     22  O   UNL     1       5.007   7.551  -2.064  0.00  0.00    -0.246 OA
ATOM     23  O   UNL     1       5.968   7.140  -4.030  0.00  0.00    -0.246 OA
ENDBRANCH  20  21
ENDBRANCH  14  20
ENDBRANCH  13  14
ENDBRANCH   2  13
TORSDOF 9
ENDMDL
MODEL 9
REMARK VINA RESULT:      -6.8      2.000      7.694
REMARK  Name = 
REMARK  9 active torsions:
REMARK  status: ('A' for Active; 'I' for Inactive)
REMARK    1  A    between atoms: C_2  and  C_4
REMARK    2  A    between atoms: C_4  and  O_6
REMARK    3  A    between atoms: O_6  and  C_7
REMARK    4  A    between atoms: C_7  and  O_9
REMARK    5  A    between atoms: O_9  and  C_10
REMARK    6  A    between atoms: N_12  and  C_13
REMARK    7  A    between atoms: C_13  and  C_14
REMARK    8  A    between atoms: C_14  and  C_15
REMARK    9  A    between atoms: C_15  and  C_16
REMARK                            x       y       z     vdW  Elec       q    Type
REMARK                         _______ _______ _______ _____ _____    ______ ____
ROOT
ATOM      1  C   UNL     1       3.315   5.827 -10.172  0.00  0.00    +0.424 C 
ATOM      2  N   UNL     1       3.978   6.001  -8.928  0.00  0.00    -0.169 NA
ATOM      3  O   UNL     1       2.269   5.169 -10.185  0.00  0.00    -0.224 OA
ENDROOT
BRANCH   1   4
ATOM      4  O   UNL     1       3.960   6.246 -11.279  0.00  0.00    -0.398 OA
BRANCH   4   5
ATOM      5  C   UNL     1       4.592   5.180 -12.209  0.00  0.00    +0.346 C 
ATOM      6  C   UNL     1       3.735   5.684 -13.542  0.00  0.00    +0.100 C 
BRANCH   5   7
ATOM      7  O   UNL     1       5.794   6.101 -12.562  0.00  0.00    -0.414 OA
BRANCH   7   8
ATOM      8  C   UNL     1       6.958   5.593 -12.025  0.00  0.00    +0.319 C 
ATOM      9  O   UNL     1       7.602   4.645 -12.560  0.00  0.00    -0.250 OA
BRANCH   8  11
ATOM     10  C   UNL     1       7.461   5.715  -9.677  0.00  0.00    +0.012 C 
ATOM     11  C   UNL     1       7.689   6.297 -10.926  0.00  0.00    +0.099 C 
ATOM     12  C   UNL     1       7.079   7.693 -10.840  0.00  0.00    +0.012 C 
ENDBRANCH   8  11
ENDBRANCH   7   8
ENDBRANCH   5   7
ENDBRANCH   4   5
ENDBRANCH   1   4
BRANCH   2  13
ATOM     13  C   UNL     1       3.766   5.420  -7.744  0.00  0.00    +0.119 C 
BRANCH  13  14
ATOM     14  C   UNL     1       3.180   5.914  -6.533  0.00  0.00    +0.031 C 
ATOM     15  C   UNL     1       4.099   7.007  -5.992  0.00  0.00    +0.002 C 
ATOM     16  C   UNL     1       4.002   7.164  -4.507  0.00  0.00    +0.000 C 
ATOM     17  C   UNL     1       4.381   5.931  -3.733  0.00  0.00    +0.000 C 
ATOM     18  C   UNL     1       4.077   4.697  -4.546  0.00  0.00    +0.000 C 
ATOM     19  C   UNL     1       2.883   4.969  -5.414  0.00  0.00    +0.002 C 
BRANCH  14  20
ATOM     20  C   UNL     1       1.880   6.630  -6.893  0.00  0.00    +0.116 C 
BRANCH  20  21
ATOM     21  C   UNL     1       0.778   6.178  -6.020  0.00  0.00    +0.365 C 
ATOM     22  O   UNL     1      -0.207   5.269  -6.397  0.00  0.00    -0.246 OA
ATOM     23  O   UNL     1       0.385   7.020  -5.154  0.00  0.00    -0.246 OA
ENDBRANCH  20  21
ENDBRANCH  14  20
ENDBRANCH  13  14
ENDBRANCH   2  13
TORSDOF 9
ENDMDL
