MODEL 1
REMARK VINA RESULT:      -6.7      0.000      0.000
REMARK  Name = 
REMARK  2 active torsions:
REMARK  status: ('A' for Active; 'I' for Inactive)
REMARK    1  A    between atoms: C_5  and  S_6
REMARK    2  A    between atoms: S_6  and  N_9
REMARK                            x       y       z     vdW  Elec       q    Type
REMARK                         _______ _______ _______ _____ _____    ______ ____
ROOT
ATOM      1  S   UNL     1       0.760   5.714  -7.343  0.00  0.00    +0.096 S 
ATOM      2  O   UNL     1       1.405   7.044  -7.060  0.00  0.00    -0.148 OA
ATOM      3  O   UNL     1       1.810   4.624  -7.329  0.00  0.00    -0.148 OA
ENDROOT
BRANCH   1   8
ATOM      4  N   UNL     1      -2.785   5.050  -2.679  0.00  0.00    -0.128 NA
ATOM      5  C   UNL     1      -1.967   5.419  -3.772  0.00  0.00    +0.089 A 
ATOM      6  C   UNL     1      -0.604   5.441  -3.607  0.00  0.00    +0.019 A 
ATOM      7  C   UNL     1       0.198   5.593  -4.708  0.00  0.00    +0.022 A 
ATOM      8  C   UNL     1      -0.310   5.390  -5.983  0.00  0.00    +0.127 A 
ATOM      9  C   UNL     1      -1.648   5.712  -6.149  0.00  0.00    +0.022 A 
ATOM     10  C   UNL     1      -2.487   5.561  -5.053  0.00  0.00    +0.019 A 
ENDBRANCH   1   8
BRANCH   1  11
ATOM     11  N   UNL     1      -0.082   5.687  -8.828  0.00  0.00    -0.058 NA
ATOM     12  C   UNL     1       0.435   6.094 -10.075  0.00  0.00    +0.259 A 
ATOM     13  N   UNL     1      -0.363   6.823 -10.894  0.00  0.00    -0.210 NA
ATOM     14  C   UNL     1       0.038   7.227 -12.113  0.00  0.00    +0.104 A 
ATOM     15  C   UNL     1       1.171   6.611 -12.626  0.00  0.00    +0.041 A 
ATOM     16  C   UNL     1       2.141   6.279 -11.692  0.00  0.00    +0.104 A 
ATOM     17  N   UNL     1       1.724   6.018 -10.432  0.00  0.00    -0.210 NA
ENDBRANCH   1  11
TORSDOF 2
ENDMDL
MODEL 2
REMARK VINA RESULT:      -6.7      4.333      8.312
REMARK  Name = 
REMARK  2 active torsions:
REMARK  status: ('A' for Active; 'I' for Inactive)
REMARK    1  A    between atoms: C_5  and  S_6
REMARK    2  A    between atoms: S_6  and  N_9
REMARK                            x       y       z     vdW  Elec       q    Type
REMARK                         _______ _______ _______ _____ _____    ______ ____
ROOT
ATOM      1  S   UNL     1       3.915   5.742  -8.338  0.00  0.00    +0.096 S 
ATOM      2  O   UNL     1       3.274   7.053  -8.706  0.00  0.00    -0.148 OA
ATOM      3  O   UNL     1       2.878   4.640  -8.371  0.00  0.00    -0.148 OA
ENDROOT
BRANCH   1   8
ATOM      4  N   UNL     1       7.707   4.949 -12.783  0.00  0.00    -0.128 NA
ATOM      5  C   UNL     1       6.824   5.347 -11.754  0.00  0.00    +0.089 A 
ATOM      6  C   UNL     1       5.471   5.308 -11.984  0.00  0.00    +0.019 A 
ATOM      7  C   UNL     1       4.611   5.492 -10.932  0.00  0.00    +0.022 A 
ATOM      8  C   UNL     1       5.061   5.383  -9.625  0.00  0.00    +0.127 A 
ATOM      9  C   UNL     1       6.377   5.764  -9.416  0.00  0.00    +0.022 A 
ATOM     10  C   UNL     1       7.275   5.583 -10.460  0.00  0.00    +0.019 A 
ENDBRANCH   1   8
BRANCH   1  11
ATOM     11  N   UNL     1       4.674   5.779  -6.809  0.00  0.00    -0.058 NA
ATOM     12  C   UNL     1       4.152   6.380  -5.646  0.00  0.00    +0.259 A 
ATOM     13  N   UNL     1       4.993   7.093  -4.859  0.00  0.00    -0.210 NA
ATOM     14  C   UNL     1       4.588   7.674  -3.715  0.00  0.00    +0.104 A 
ATOM     15  C   UNL     1       3.363   7.257  -3.212  0.00  0.00    +0.041 A 
ATOM     16  C   UNL     1       2.405   6.942  -4.165  0.00  0.00    +0.104 A 
ATOM     17  N   UNL     1       2.847   6.497  -5.363  0.00  0.00    -0.210 NA
ENDBRANCH   1  11
TORSDOF 2
ENDMDL
MODEL 3
REMARK VINA RESULT:      -6.6      3.058      6.834
REMARK  Name = 
REMARK  2 active torsions:
REMARK  status: ('A' for Active; 'I' for Inactive)
REMARK    1  A    between atoms: C_5  and  S_6
REMARK    2  A    between atoms: S_6  and  N_9
REMARK                            x       y       z     vdW  Elec       q    Type
REMARK                         _______ _______ _______ _____ _____    ______ ____
ROOT
ATOM      1  S   UNL     1       2.756   6.108  -6.930  0.00  0.00    +0.096 S 
ATOM      2  O   UNL     1       3.053   5.018  -5.936  0.00  0.00    -0.148 OA
ATOM      3  O   UNL     1       3.116   7.453  -6.337  0.00  0.00    -0.148 OA
ENDROOT
BRANCH   1   8
ATOM      4  N   UNL     1       6.604   5.641 -11.373  0.00  0.00    -0.128 NA
ATOM      5  C   UNL     1       5.801   5.918 -10.243  0.00  0.00    +0.089 A 
ATOM      6  C   UNL     1       4.633   6.620 -10.411  0.00  0.00    +0.019 A 
ATOM      7  C   UNL     1       3.754   6.710  -9.363  0.00  0.00    +0.022 A 
ATOM      8  C   UNL     1       3.858   5.850  -8.279  0.00  0.00    +0.127 A 
ATOM      9  C   UNL     1       5.144   5.439  -7.968  0.00  0.00    +0.022 A 
ATOM     10  C   UNL     1       6.056   5.330  -9.010  0.00  0.00    +0.019 A 
ENDBRANCH   1   8
BRANCH   1  11
ATOM     11  N   UNL     1       1.127   6.117  -7.440  0.00  0.00    -0.058 NA
ATOM     12  C   UNL     1       0.004   6.266  -6.601  0.00  0.00    +0.259 A 
ATOM     13  N   UNL     1      -1.077   5.479  -6.830  0.00  0.00    -0.210 NA
ATOM     14  C   UNL     1      -2.202   5.574  -6.099  0.00  0.00    +0.104 A 
ATOM     15  C   UNL     1      -2.333   6.711  -5.313  0.00  0.00    +0.041 A 
ATOM     16  C   UNL     1      -1.153   7.198  -4.770  0.00  0.00    +0.104 A 
ATOM     17  N   UNL     1      -0.012   6.960  -5.456  0.00  0.00    -0.210 NA
ENDBRANCH   1  11
TORSDOF 2
ENDMDL
MODEL 4
REMARK VINA RESULT:      -6.6      2.837      3.716
REMARK  Name = 
REMARK  2 active torsions:
REMARK  status: ('A' for Active; 'I' for Inactive)
REMARK    1  A    between atoms: C_5  and  S_6
REMARK    2  A    between atoms: S_6  and  N_9
REMARK                            x       y       z     vdW  Elec       q    Type
REMARK                         _______ _______ _______ _____ _____    ______ ____
ROOT
ATOM      1  S   UNL     1       1.766   5.936  -8.843  0.00  0.00    +0.096 S 
ATOM      2  O   UNL     1       1.502   4.763  -9.748  0.00  0.00    -0.148 OA
ATOM      3  O   UNL     1       1.343   7.216  -9.530  0.00  0.00    -0.148 OA
ENDROOT
BRANCH   1   8
ATOM      4  N   UNL     1      -1.965   5.671  -4.286  0.00  0.00    -0.128 NA
ATOM      5  C   UNL     1      -1.185   5.903  -5.442  0.00  0.00    +0.089 A 
ATOM      6  C   UNL     1       0.015   6.559  -5.316  0.00  0.00    +0.019 A 
ATOM      7  C   UNL     1       0.866   6.603  -6.390  0.00  0.00    +0.022 A 
ATOM      8  C   UNL     1       0.696   5.737  -7.460  0.00  0.00    +0.127 A 
ATOM      9  C   UNL     1      -0.615   5.375  -7.729  0.00  0.00    +0.022 A 
ATOM     10  C   UNL     1      -1.499   5.314  -6.660  0.00  0.00    +0.019 A 
ENDBRANCH   1   8
BRANCH   1  11
ATOM     11  N   UNL     1       3.401   6.049  -8.364  0.00  0.00    -0.058 NA
ATOM     12  C   UNL     1       4.497   6.272  -9.222  0.00  0.00    +0.259 A 
ATOM     13  N   UNL     1       5.630   5.556  -9.016  0.00  0.00    -0.210 NA
ATOM     14  C   UNL     1       6.733   5.725  -9.768  0.00  0.00    +0.104 A 
ATOM     15  C   UNL     1       6.775   6.870 -10.552  0.00  0.00    +0.041 A 
ATOM     16  C   UNL     1       5.557   7.280 -11.071  0.00  0.00    +0.104 A 
ATOM     17  N   UNL     1       4.446   6.968 -10.365  0.00  0.00    -0.210 NA
ENDBRANCH   1  11
TORSDOF 2
ENDMDL
MODEL 5
REMARK VINA RESULT:      -6.5      3.210      4.817
REMARK  Name = 
REMARK  2 active torsions:
REMARK  status: ('A' for Active; 'I' for Inactive)
REMARK    1  A    between atoms: C_5  and  S_6
REMARK    2  A    between atoms: S_6  and  N_9
REMARK                            x       y       z     vdW  Elec       q    Type
REMARK                         _______ _______ _______ _____ _____    ______ ____
ROOT
ATOM      1  S   UNL     1       1.625   5.929  -7.861  0.00  0.00    +0.096 S 
ATOM      2  O   UNL     1       1.932   4.493  -8.188  0.00  0.00    -0.148 OA
ATOM      3  O   UNL     1       1.088   6.630  -9.090  0.00  0.00    -0.148 OA
ENDROOT
BRANCH   1   8
ATOM      4  N   UNL     1      -2.931   6.179  -4.126  0.00  0.00    -0.128 NA
ATOM      5  C   UNL     1      -1.943   6.268  -5.134  0.00  0.00    +0.089 A 
ATOM      6  C   UNL     1      -0.812   7.008  -4.894  0.00  0.00    +0.019 A 
ATOM      7  C   UNL     1       0.235   6.929  -5.777  0.00  0.00    +0.022 A 
ATOM      8  C   UNL     1       0.306   5.892  -6.695  0.00  0.00    +0.127 A 
ATOM      9  C   UNL     1      -0.914   5.411  -7.144  0.00  0.00    +0.022 A 
ATOM     10  C   UNL     1      -1.991   5.470  -6.270  0.00  0.00    +0.019 A 
ENDBRANCH   1   8
BRANCH   1  11
ATOM     11  N   UNL     1       2.978   6.777  -7.255  0.00  0.00    -0.058 NA
ATOM     12  C   UNL     1       3.624   6.524  -6.028  0.00  0.00    +0.259 A 
ATOM     13  N   UNL     1       4.005   7.583  -5.272  0.00  0.00    -0.210 NA
ATOM     14  C   UNL     1       4.654   7.435  -4.103  0.00  0.00    +0.104 A 
ATOM     15  C   UNL     1       5.196   6.182  -3.853  0.00  0.00    +0.041 A 
ATOM     16  C   UNL     1       4.462   5.109  -4.337  0.00  0.00    +0.104 A 
ATOM     17  N   UNL     1       3.700   5.325  -5.434  0.00  0.00    -0.210 NA
ENDBRANCH   1  11
TORSDOF 2
ENDMDL
MODEL 6
REMARK VINA RESULT:      -6.5      3.093      6.754
REMARK  Name = 
REMARK  2 active torsions:
REMARK  status: ('A' for Active; 'I' for Inactive)
REMARK    1  A    between atoms: C_5  and  S_6
REMARK    2  A    between atoms: S_6  and  N_9
REMARK                            x       y       z     vdW  Elec       q    Type
REMARK                         _______ _______ _______ _____ _____    ______ ____
ROOT
ATOM      1  S   UNL     1       1.822   6.029  -8.719  0.00  0.00    +0.096 S 
ATOM      2  O   UNL     1       1.176   7.151  -9.485  0.00  0.00    -0.148 OA
ATOM      3  O   UNL     1       1.403   4.700  -9.308  0.00  0.00    -0.148 OA
ENDROOT
BRANCH   1   8
ATOM      4  N   UNL     1       7.605   6.124  -9.865  0.00  0.00    -0.128 NA
ATOM      5  C   UNL     1       6.210   5.939  -9.729  0.00  0.00    +0.089 A 
ATOM      6  C   UNL     1       5.733   5.251  -8.641  0.00  0.00    +0.019 A 
ATOM      7  C   UNL     1       4.384   5.248  -8.395  0.00  0.00    +0.022 A 
ATOM      8  C   UNL     1       3.553   6.175  -9.007  0.00  0.00    +0.127 A 
ATOM      9  C   UNL     1       3.946   6.580 -10.273  0.00  0.00    +0.022 A 
ATOM     10  C   UNL     1       5.306   6.601 -10.550  0.00  0.00    +0.019 A 
ENDBRANCH   1   8
BRANCH   1  11
ATOM     11  N   UNL     1       1.456   6.065  -7.052  0.00  0.00    -0.058 NA
ATOM     12  C   UNL     1       0.161   6.108  -6.495  0.00  0.00    +0.259 A 
ATOM     13  N   UNL     1      -0.057   6.930  -5.440  0.00  0.00    -0.210 NA
ATOM     14  C   UNL     1      -1.252   7.011  -4.827  0.00  0.00    +0.104 A 
ATOM     15  C   UNL     1      -2.160   6.000  -5.111  0.00  0.00    +0.041 A 
ATOM     16  C   UNL     1      -2.118   5.509  -6.408  0.00  0.00    +0.104 A 
ATOM     17  N   UNL     1      -0.932   5.574  -7.056  0.00  0.00    -0.210 NA
ENDBRANCH   1  11
TORSDOF 2
ENDMDL
MODEL 7
REMARK VINA RESULT:      -6.5      4.237      7.613
REMARK  Name = 
REMARK  2 active torsions:
REMARK  status: ('A' for Active; 'I' for Inactive)
REMARK    1  A    between atoms: C_5  and  S_6
REMARK    2  A    between atoms: S_6  and  N_9
REMARK                            x       y       z     vdW  Elec       q    Type
REMARK                         _______ _______ _______ _____ _____    ______ ____
ROOT
ATOM      1  S   UNL     1       2.503   6.387  -8.315  0.00  0.00    +0.096 S 
ATOM      2  O   UNL     1       1.967   7.793  -8.324  0.00  0.00    -0.148 OA
ATOM      3  O   UNL     1       1.708   5.531  -9.277  0.00  0.00    -0.148 OA
ENDROOT
BRANCH   1   8
ATOM      4  N   UNL     1       7.880   6.350 -10.733  0.00  0.00    -0.128 NA
ATOM      5  C   UNL     1       6.538   6.221 -10.308  0.00  0.00    +0.089 A 
ATOM      6  C   UNL     1       6.251   5.397  -9.248  0.00  0.00    +0.019 A 
ATOM      7  C   UNL     1       4.994   5.428  -8.702  0.00  0.00    +0.022 A 
ATOM      8  C   UNL     1       4.134   6.483  -8.969  0.00  0.00    +0.127 A 
ATOM      9  C   UNL     1       4.275   7.061 -10.222  0.00  0.00    +0.022 A 
ATOM     10  C   UNL     1       5.538   7.053 -10.797  0.00  0.00    +0.019 A 
ENDBRANCH   1   8
BRANCH   1  11
ATOM     11  N   UNL     1       2.488   5.679  -6.761  0.00  0.00    -0.058 NA
ATOM     12  C   UNL     1       3.353   6.010  -5.699  0.00  0.00    +0.259 A 
ATOM     13  N   UNL     1       3.864   5.002  -4.949  0.00  0.00    -0.210 NA
ATOM     14  C   UNL     1       4.672   5.228  -3.897  0.00  0.00    +0.104 A 
ATOM     15  C   UNL     1       4.712   6.531  -3.418  0.00  0.00    +0.041 A 
ATOM     16  C   UNL     1       4.593   7.522  -4.381  0.00  0.00    +0.104 A 
ATOM     17  N   UNL     1       3.895   7.219  -5.499  0.00  0.00    -0.210 NA
ENDBRANCH   1  11
TORSDOF 2
ENDMDL
MODEL 8
REMARK VINA RESULT:      -6.5      1.744      2.216
REMARK  Name = 
REMARK  2 active torsions:
REMARK  status: ('A' for Active; 'I' for Inactive)
REMARK    1  A    between atoms: C_5  and  S_6
REMARK    2  A    between atoms: S_6  and  N_9
REMARK                            x       y       z     vdW  Elec       q    Type
REMARK                         _______ _______ _______ _____ _____    ______ ____
ROOT
ATOM      1  S   UNL     1       2.098   4.799  -7.103  0.00  0.00    +0.096 S 
ATOM      2  O   UNL     1       3.274   5.690  -6.807  0.00  0.00    -0.148 OA
ATOM      3  O   UNL     1       2.160   3.564  -6.230  0.00  0.00    -0.148 OA
ENDROOT
BRANCH   1   8
ATOM      4  N   UNL     1      -2.750   7.491  -5.098  0.00  0.00    -0.128 NA
ATOM      5  C   UNL     1      -1.592   6.737  -5.395  0.00  0.00    +0.089 A 
ATOM      6  C   UNL     1      -1.699   5.652  -6.231  0.00  0.00    +0.019 A 
ATOM      7  C   UNL     1      -0.556   5.047  -6.685  0.00  0.00    +0.022 A 
ATOM      8  C   UNL     1       0.669   5.693  -6.595  0.00  0.00    +0.127 A 
ATOM      9  C   UNL     1       0.814   6.543  -5.510  0.00  0.00    +0.022 A 
ATOM     10  C   UNL     1      -0.325   7.178  -5.031  0.00  0.00    +0.019 A 
ENDBRANCH   1   8
BRANCH   1  11
ATOM     11  N   UNL     1       2.006   4.344  -8.746  0.00  0.00    -0.058 NA
ATOM     12  C   UNL     1       1.290   5.026  -9.749  0.00  0.00    +0.259 A 
ATOM     13  N   UNL     1       0.583   4.294 -10.645  0.00  0.00    -0.210 NA
ATOM     14  C   UNL     1      -0.105   4.860 -11.654  0.00  0.00    +0.104 A 
ATOM     15  C   UNL     1       0.189   6.189 -11.930  0.00  0.00    +0.041 A 
ATOM     16  C   UNL     1       0.503   6.970 -10.828  0.00  0.00    +0.104 A 
ATOM     17  N   UNL     1       1.062   6.347  -9.766  0.00  0.00    -0.210 NA
ENDBRANCH   1  11
TORSDOF 2
ENDMDL
MODEL 9
REMARK VINA RESULT:      -6.4      4.630      7.227
REMARK  Name = 
REMARK  2 active torsions:
REMARK  status: ('A' for Active; 'I' for Inactive)
REMARK    1  A    between atoms: C_5  and  S_6
REMARK    2  A    between atoms: S_6  and  N_9
REMARK                            x       y       z     vdW  Elec       q    Type
REMARK                         _______ _______ _______ _____ _____    ______ ____
ROOT
ATOM      1  S   UNL     1       4.011   5.960  -8.753  0.00  0.00    +0.096 S 
ATOM      2  O   UNL     1       4.520   5.713  -7.359  0.00  0.00    -0.148 OA
ATOM      3  O   UNL     1       3.445   7.360  -8.850  0.00  0.00    -0.148 OA
ENDROOT
BRANCH   1   8
ATOM      4  N   UNL     1       8.858   6.217 -12.099  0.00  0.00    -0.128 NA
ATOM      5  C   UNL     1       7.787   6.310 -11.182  0.00  0.00    +0.089 A 
ATOM      6  C   UNL     1       6.661   7.009 -11.542  0.00  0.00    +0.019 A 
ATOM      7  C   UNL     1       5.546   6.929 -10.748  0.00  0.00    +0.022 A 
ATOM      8  C   UNL     1       5.424   5.922  -9.802  0.00  0.00    +0.127 A 
ATOM      9  C   UNL     1       6.614   5.492  -9.235  0.00  0.00    +0.022 A 
ATOM     10  C   UNL     1       7.759   5.553 -10.018  0.00  0.00    +0.019 A 
ENDBRANCH   1   8
BRANCH   1  11
ATOM     11  N   UNL     1       2.833   4.824  -9.241  0.00  0.00    -0.058 NA
ATOM     12  C   UNL     1       1.971   4.957 -10.348  0.00  0.00    +0.259 A 
ATOM     13  N   UNL     1       0.674   4.593 -10.200  0.00  0.00    -0.210 NA
ATOM     14  C   UNL     1      -0.211   4.657 -11.212  0.00  0.00    +0.104 A 
ATOM     15  C   UNL     1       0.320   4.809 -12.486  0.00  0.00    +0.041 A 
ATOM     16  C   UNL     1       1.466   5.587 -12.564  0.00  0.00    +0.104 A 
ATOM     17  N   UNL     1       2.266   5.621 -11.474  0.00  0.00    -0.210 NA
ENDBRANCH   1  11
TORSDOF 2
ENDMDL
