MODEL 1
REMARK VINA RESULT:      -6.6      0.000      0.000
REMARK  Name = 
REMARK  12 active torsions:
REMARK  status: ('A' for Active; 'I' for Inactive)
REMARK    1  A    between atoms: C_2  and  N_4
REMARK    2  A    between atoms: N_4  and  C_5
REMARK    3  A    between atoms: C_5  and  C_6
REMARK    4  A    between atoms: C_6  and  C_8
REMARK    5  A    between atoms: C_8  and  O_9
REMARK    6  A    between atoms: O_9  and  C_10
REMARK    7  A    between atoms: C_13  and  C_14
REMARK    8  A    between atoms: C_14  and  O_15
REMARK    9  A    between atoms: O_15  and  C_16
REMARK   10  A    between atoms: C_16  and  C_17
REMARK   11  A    between atoms: C_17  and  O_18
REMARK   12  A    between atoms: O_18  and  C_19
REMARK                            x       y       z     vdW  Elec       q    Type
REMARK                         _______ _______ _______ _____ _____    ______ ____
ROOT
ATOM      1  C   UNL     1       4.116   5.381  -9.699  0.00  0.00    +0.139 A 
ATOM      2  C   UNL     1       4.928   5.068  -8.615  0.00  0.00    +0.037 A 
ATOM      3  C   UNL     1       4.666   5.535  -7.343  0.00  0.00    +0.001 A 
ATOM      4  C   UNL     1       3.527   6.296  -7.134  0.00  0.00    +0.007 A 
ATOM      5  C   UNL     1       2.953   6.869  -8.241  0.00  0.00    +0.001 A 
ATOM      6  C   UNL     1       3.323   6.509  -9.531  0.00  0.00    +0.037 A 
ENDROOT
BRANCH   1   7
ATOM      7  O   UNL     1       4.619   5.079 -10.968  0.00  0.00    -0.473 OA
BRANCH   7   8
ATOM      8  C   UNL     1       4.369   5.935 -12.055  0.00  0.00    +0.240 C 
BRANCH   8   9
ATOM      9  C   UNL     1       4.925   5.071 -13.350  0.00  0.00    +0.213 C 
ATOM     10  O   UNL     1       4.331   6.059 -14.343  0.00  0.00    -0.218 OA
BRANCH   9  11
ATOM     11  C   UNL     1       6.381   5.851 -13.339  0.00  0.00    +0.125 C 
BRANCH  11  12
ATOM     12  N   UNL     1       7.362   4.892 -12.938  0.00  0.00    -0.217 NA
BRANCH  12  14
ATOM     13  C   UNL     1       8.759   5.877 -12.439  0.00  0.00    +0.019 C 
ATOM     14  C   UNL     1       8.449   5.540 -12.209  0.00  0.00    +0.073 C 
ATOM     15  C   UNL     1       7.893   5.876 -10.830  0.00  0.00    +0.019 C 
ENDBRANCH  12  14
ENDBRANCH  11  12
ENDBRANCH   9  11
ENDBRANCH   8   9
ENDBRANCH   7   8
ENDBRANCH   1   7
BRANCH   4  16
ATOM     16  C   UNL     1       3.048   6.527  -5.750  0.00  0.00    +0.169 C 
BRANCH  16  17
ATOM     17  O   UNL     1       1.792   7.151  -5.817  0.00  0.00    -0.346 OA
BRANCH  17  18
ATOM     18  C   UNL     1       1.057   6.651  -4.735  0.00  0.00    +0.175 C 
BRANCH  18  19
ATOM     19  C   UNL     1       0.118   5.544  -5.161  0.00  0.00    +0.174 C 
BRANCH  19  20
ATOM     20  O   UNL     1      -1.013   5.624  -4.335  0.00  0.00    -0.354 OA
BRANCH  20  21
ATOM     21  C   UNL     1      -2.080   5.921  -5.160  0.00  0.00    +0.115 C 
ATOM     22  C   UNL     1      -2.554   7.339  -5.065  0.00  0.00    +0.032 C 
ATOM     23  C   UNL     1      -1.909   5.426  -6.567  0.00  0.00    +0.032 C 
ENDBRANCH  20  21
ENDBRANCH  19  20
ENDBRANCH  18  19
ENDBRANCH  17  18
ENDBRANCH  16  17
ENDBRANCH   4  16
TORSDOF 12
ENDMDL
MODEL 2
REMARK VINA RESULT:      -6.6      4.617      9.047
REMARK  Name = 
REMARK  12 active torsions:
REMARK  status: ('A' for Active; 'I' for Inactive)
REMARK    1  A    between atoms: C_2  and  N_4
REMARK    2  A    between atoms: N_4  and  C_5
REMARK    3  A    between atoms: C_5  and  C_6
REMARK    4  A    between atoms: C_6  and  C_8
REMARK    5  A    between atoms: C_8  and  O_9
REMARK    6  A    between atoms: O_9  and  C_10
REMARK    7  A    between atoms: C_13  and  C_14
REMARK    8  A    between atoms: C_14  and  O_15
REMARK    9  A    between atoms: O_15  and  C_16
REMARK   10  A    between atoms: C_16  and  C_17
REMARK   11  A    between atoms: C_17  and  O_18
REMARK   12  A    between atoms: O_18  and  C_19
REMARK                            x       y       z     vdW  Elec       q    Type
REMARK                         _______ _______ _______ _____ _____    ______ ____
ROOT
ATOM      1  C   UNL     1      -1.350   5.897  -5.295  0.00  0.00    +0.139 A 
ATOM      2  C   UNL     1      -1.558   5.394  -6.573  0.00  0.00    +0.037 A 
ATOM      3  C   UNL     1      -0.575   5.421  -7.541  0.00  0.00    +0.001 A 
ATOM      4  C   UNL     1       0.675   5.919  -7.208  0.00  0.00    +0.007 A 
ATOM      5  C   UNL     1       0.749   6.708  -6.087  0.00  0.00    +0.001 A 
ATOM      6  C   UNL     1      -0.302   6.802  -5.184  0.00  0.00    +0.037 A 
ENDROOT
BRANCH   1   7
ATOM      7  O   UNL     1      -2.483   6.059  -4.492  0.00  0.00    -0.473 OA
BRANCH   7   8
ATOM      8  C   UNL     1      -2.487   6.999  -3.447  0.00  0.00    +0.240 C 
BRANCH   8   9
ATOM      9  C   UNL     1      -3.189   6.172  -2.199  0.00  0.00    +0.213 C 
ATOM     10  O   UNL     1      -2.884   4.825  -2.838  0.00  0.00    -0.218 OA
BRANCH   9  11
ATOM     11  C   UNL     1      -1.788   6.153  -1.325  0.00  0.00    +0.125 C 
BRANCH  11  12
ATOM     12  N   UNL     1      -1.074   4.977  -1.713  0.00  0.00    -0.217 NA
BRANCH  12  14
ATOM     13  C   UNL     1       0.683   5.113  -1.977  0.00  0.00    +0.019 C 
ATOM     14  C   UNL     1       0.366   5.181  -1.580  0.00  0.00    +0.073 C 
ATOM     15  C   UNL     1       0.540   6.419  -0.708  0.00  0.00    +0.019 C 
ENDBRANCH  12  14
ENDBRANCH  11  12
ENDBRANCH   9  11
ENDBRANCH   8   9
ENDBRANCH   7   8
ENDBRANCH   1   7
BRANCH   4  16
ATOM     16  C   UNL     1       1.827   5.660  -8.106  0.00  0.00    +0.169 C 
BRANCH  16  17
ATOM     17  O   UNL     1       2.842   6.579  -7.796  0.00  0.00    -0.346 OA
BRANCH  17  18
ATOM     18  C   UNL     1       4.021   5.830  -7.696  0.00  0.00    +0.175 C 
BRANCH  18  19
ATOM     19  C   UNL     1       4.386   5.553  -6.254  0.00  0.00    +0.174 C 
BRANCH  19  20
ATOM     20  O   UNL     1       4.256   6.765  -5.558  0.00  0.00    -0.354 OA
BRANCH  20  21
ATOM     21  C   UNL     1       4.132   6.436  -4.222  0.00  0.00    +0.115 C 
ATOM     22  C   UNL     1       3.280   7.384  -3.433  0.00  0.00    +0.032 C 
ATOM     23  C   UNL     1       3.816   4.988  -3.985  0.00  0.00    +0.032 C 
ENDBRANCH  20  21
ENDBRANCH  19  20
ENDBRANCH  18  19
ENDBRANCH  17  18
ENDBRANCH  16  17
ENDBRANCH   4  16
TORSDOF 12
ENDMDL
MODEL 3
REMARK VINA RESULT:      -6.4      3.147      7.140
REMARK  Name = 
REMARK  12 active torsions:
REMARK  status: ('A' for Active; 'I' for Inactive)
REMARK    1  A    between atoms: C_2  and  N_4
REMARK    2  A    between atoms: N_4  and  C_5
REMARK    3  A    between atoms: C_5  and  C_6
REMARK    4  A    between atoms: C_6  and  C_8
REMARK    5  A    between atoms: C_8  and  O_9
REMARK    6  A    between atoms: O_9  and  C_10
REMARK    7  A    between atoms: C_13  and  C_14
REMARK    8  A    between atoms: C_14  and  O_15
REMARK    9  A    between atoms: O_15  and  C_16
REMARK   10  A    between atoms: C_16  and  C_17
REMARK   11  A    between atoms: C_17  and  O_18
REMARK   12  A    between atoms: O_18  and  C_19
REMARK                            x       y       z     vdW  Elec       q    Type
REMARK                         _______ _______ _______ _____ _____    ______ ____
ROOT
ATOM      1  C   UNL     1       1.367   5.695  -7.452  0.00  0.00    +0.139 A 
ATOM      2  C   UNL     1       1.976   6.866  -7.887  0.00  0.00    +0.037 A 
ATOM      3  C   UNL     1       3.093   6.854  -8.697  0.00  0.00    +0.001 A 
ATOM      4  C   UNL     1       3.588   5.635  -9.133  0.00  0.00    +0.007 A 
ATOM      5  C   UNL     1       3.200   4.522  -8.430  0.00  0.00    +0.001 A 
ATOM      6  C   UNL     1       2.171   4.563  -7.498  0.00  0.00    +0.037 A 
ENDROOT
BRANCH   1   7
ATOM      7  O   UNL     1       0.418   5.822  -6.433  0.00  0.00    -0.473 OA
BRANCH   7   8
ATOM      8  C   UNL     1       0.496   5.015  -5.285  0.00  0.00    +0.240 C 
BRANCH   8   9
ATOM      9  C   UNL     1       0.643   6.116  -4.060  0.00  0.00    +0.213 C 
ATOM     10  O   UNL     1       0.228   5.096  -3.010  0.00  0.00    -0.218 OA
BRANCH   9  11
ATOM     11  C   UNL     1       2.247   5.780  -3.852  0.00  0.00    +0.125 C 
BRANCH  11  12
ATOM     12  N   UNL     1       2.967   6.966  -4.196  0.00  0.00    -0.217 NA
BRANCH  12  14
ATOM     13  C   UNL     1       4.516   6.981  -5.076  0.00  0.00    +0.019 C 
ATOM     14  C   UNL     1       4.137   6.642  -5.007  0.00  0.00    +0.073 C 
ATOM     15  C   UNL     1       4.497   5.199  -4.674  0.00  0.00    +0.019 C 
ENDBRANCH  12  14
ENDBRANCH  11  12
ENDBRANCH   9  11
ENDBRANCH   8   9
ENDBRANCH   7   8
ENDBRANCH   1   7
BRANCH   4  16
ATOM     16  C   UNL     1       4.562   5.601 -10.251  0.00  0.00    +0.169 C 
BRANCH  16  17
ATOM     17  O   UNL     1       4.163   6.546 -11.210  0.00  0.00    -0.346 OA
BRANCH  17  18
ATOM     18  C   UNL     1       3.652   5.809 -12.285  0.00  0.00    +0.175 C 
BRANCH  18  19
ATOM     19  C   UNL     1       2.275   6.290 -12.687  0.00  0.00    +0.174 C 
BRANCH  19  20
ATOM     20  O   UNL     1       1.381   5.240 -12.424  0.00  0.00    -0.354 OA
BRANCH  20  21
ATOM     21  C   UNL     1       0.757   5.548 -11.231  0.00  0.00    +0.115 C 
ATOM     22  C   UNL     1       0.055   6.872 -11.227  0.00  0.00    +0.032 C 
ATOM     23  C   UNL     1      -0.061   4.421 -10.671  0.00  0.00    +0.032 C 
ENDBRANCH  20  21
ENDBRANCH  19  20
ENDBRANCH  18  19
ENDBRANCH  17  18
ENDBRANCH  16  17
ENDBRANCH   4  16
TORSDOF 12
ENDMDL
MODEL 4
REMARK VINA RESULT:      -6.3      3.760      5.872
REMARK  Name = 
REMARK  12 active torsions:
REMARK  status: ('A' for Active; 'I' for Inactive)
REMARK    1  A    between atoms: C_2  and  N_4
REMARK    2  A    between atoms: N_4  and  C_5
REMARK    3  A    between atoms: C_5  and  C_6
REMARK    4  A    between atoms: C_6  and  C_8
REMARK    5  A    between atoms: C_8  and  O_9
REMARK    6  A    between atoms: O_9  and  C_10
REMARK    7  A    between atoms: C_13  and  C_14
REMARK    8  A    between atoms: C_14  and  O_15
REMARK    9  A    between atoms: O_15  and  C_16
REMARK   10  A    between atoms: C_16  and  C_17
REMARK   11  A    between atoms: C_17  and  O_18
REMARK   12  A    between atoms: O_18  and  C_19
REMARK                            x       y       z     vdW  Elec       q    Type
REMARK                         _______ _______ _______ _____ _____    ______ ____
ROOT
ATOM      1  C   UNL     1       0.223   5.427  -6.678  0.00  0.00    +0.139 A 
ATOM      2  C   UNL     1       0.458   6.585  -5.947  0.00  0.00    +0.037 A 
ATOM      3  C   UNL     1      -0.535   7.204  -5.214  0.00  0.00    +0.001 A 
ATOM      4  C   UNL     1      -1.790   6.619  -5.166  0.00  0.00    +0.007 A 
ATOM      5  C   UNL     1      -2.086   5.704  -6.144  0.00  0.00    +0.001 A 
ATOM      6  C   UNL     1      -1.110   5.190  -6.989  0.00  0.00    +0.037 A 
ENDROOT
BRANCH   1   7
ATOM      7  O   UNL     1       1.217   5.044  -7.584  0.00  0.00    -0.473 OA
BRANCH   7   8
ATOM      8  C   UNL     1       2.260   4.195  -7.177  0.00  0.00    +0.240 C 
BRANCH   8   9
ATOM      9  C   UNL     1       3.468   4.541  -8.252  0.00  0.00    +0.213 C 
ATOM     10  O   UNL     1       2.514   5.279  -9.180  0.00  0.00    -0.218 OA
BRANCH   9  11
ATOM     11  C   UNL     1       3.878   5.930  -7.457  0.00  0.00    +0.125 C 
BRANCH  11  12
ATOM     12  N   UNL     1       4.476   5.537  -6.219  0.00  0.00    -0.217 NA
BRANCH  12  14
ATOM     13  C   UNL     1       4.000   6.968  -5.272  0.00  0.00    +0.019 C 
ATOM     14  C   UNL     1       4.357   6.602  -5.228  0.00  0.00    +0.073 C 
ATOM     15  C   UNL     1       4.565   5.943  -3.870  0.00  0.00    +0.019 C 
ENDBRANCH  12  14
ENDBRANCH  11  12
ENDBRANCH   9  11
ENDBRANCH   8   9
ENDBRANCH   7   8
ENDBRANCH   1   7
BRANCH   4  16
ATOM     16  C   UNL     1      -2.764   7.067  -4.140  0.00  0.00    +0.169 C 
BRANCH  16  17
ATOM     17  O   UNL     1      -2.049   7.458  -2.996  0.00  0.00    -0.346 OA
BRANCH  17  18
ATOM     18  C   UNL     1      -2.616   6.753  -1.928  0.00  0.00    +0.175 C 
BRANCH  18  19
ATOM     19  C   UNL     1      -1.573   6.345  -0.911  0.00  0.00    +0.174 C 
BRANCH  19  20
ATOM     20  O   UNL     1      -0.995   5.152  -1.372  0.00  0.00    -0.354 OA
BRANCH  20  21
ATOM     21  C   UNL     1       0.372   5.306  -1.243  0.00  0.00    +0.115 C 
ATOM     22  C   UNL     1       1.110   5.353  -2.547  0.00  0.00    +0.032 C 
ATOM     23  C   UNL     1       0.768   6.383  -0.276  0.00  0.00    +0.032 C 
ENDBRANCH  20  21
ENDBRANCH  19  20
ENDBRANCH  18  19
ENDBRANCH  17  18
ENDBRANCH  16  17
ENDBRANCH   4  16
TORSDOF 12
ENDMDL
MODEL 5
REMARK VINA RESULT:      -6.3      2.773      4.917
REMARK  Name = 
REMARK  12 active torsions:
REMARK  status: ('A' for Active; 'I' for Inactive)
REMARK    1  A    between atoms: C_2  and  N_4
REMARK    2  A    between atoms: N_4  and  C_5
REMARK    3  A    between atoms: C_5  and  C_6
REMARK    4  A    between atoms: C_6  and  C_8
REMARK    5  A    between atoms: C_8  and  O_9
REMARK    6  A    between atoms: O_9  and  C_10
REMARK    7  A    between atoms: C_13  and  C_14
REMARK    8  A    between atoms: C_14  and  O_15
REMARK    9  A    between atoms: O_15  and  C_16
REMARK   10  A    between atoms: C_16  and  C_17
REMARK   11  A    between atoms: C_17  and  O_18
REMARK   12  A    between atoms: O_18  and  C_19
REMARK                            x       y       z     vdW  Elec       q    Type
REMARK                         _______ _______ _______ _____ _____    ______ ____
ROOT
ATOM      1  C   UNL     1       3.505   5.859  -7.850  0.00  0.00    +0.139 A 
ATOM      2  C   UNL     1       2.845   7.059  -7.612  0.00  0.00    +0.037 A 
ATOM      3  C   UNL     1       1.736   7.137  -6.794  0.00  0.00    +0.001 A 
ATOM      4  C   UNL     1       1.301   5.989  -6.150  0.00  0.00    +0.007 A 
ATOM      5  C   UNL     1       1.735   4.791  -6.658  0.00  0.00    +0.001 A 
ATOM      6  C   UNL     1       2.753   4.718  -7.600  0.00  0.00    +0.037 A 
ENDROOT
BRANCH   1   7
ATOM      7  O   UNL     1       4.439   5.851  -8.890  0.00  0.00    -0.473 OA
BRANCH   7   8
ATOM      8  C   UNL     1       4.210   5.085 -10.046  0.00  0.00    +0.240 C 
BRANCH   8   9
ATOM      9  C   UNL     1       3.924   6.229 -11.205  0.00  0.00    +0.213 C 
ATOM     10  O   UNL     1       4.511   5.353 -12.302  0.00  0.00    -0.218 OA
BRANCH   9  11
ATOM     11  C   UNL     1       2.394   5.672 -11.484  0.00  0.00    +0.125 C 
BRANCH  11  12
ATOM     12  N   UNL     1       1.497   6.613 -10.890  0.00  0.00    -0.217 NA
BRANCH  12  14
ATOM     13  C   UNL     1      -0.026   6.147 -10.093  0.00  0.00    +0.019 C 
ATOM     14  C   UNL     1       0.429   5.924 -10.171  0.00  0.00    +0.073 C 
ATOM     15  C   UNL     1       0.463   4.477 -10.647  0.00  0.00    +0.019 C 
ENDBRANCH  12  14
ENDBRANCH  11  12
ENDBRANCH   9  11
ENDBRANCH   8   9
ENDBRANCH   7   8
ENDBRANCH   1   7
BRANCH   4  16
ATOM     16  C   UNL     1       0.338   6.104  -5.027  0.00  0.00    +0.169 C 
BRANCH  16  17
ATOM     17  O   UNL     1       0.716   5.192  -4.028  0.00  0.00    -0.346 OA
BRANCH  17  18
ATOM     18  C   UNL     1       1.436   5.934  -3.084  0.00  0.00    +0.175 C 
BRANCH  18  19
ATOM     19  C   UNL     1       2.820   5.365  -2.863  0.00  0.00    +0.174 C 
BRANCH  19  20
ATOM     20  O   UNL     1       3.681   6.451  -2.645  0.00  0.00    -0.354 OA
BRANCH  20  21
ATOM     21  C   UNL     1       4.686   6.348  -3.588  0.00  0.00    +0.115 C 
ATOM     22  C   UNL     1       4.693   5.051  -4.338  0.00  0.00    +0.032 C 
ATOM     23  C   UNL     1       4.819   7.561  -4.462  0.00  0.00    +0.032 C 
ENDBRANCH  20  21
ENDBRANCH  19  20
ENDBRANCH  18  19
ENDBRANCH  17  18
ENDBRANCH  16  17
ENDBRANCH   4  16
TORSDOF 12
ENDMDL
MODEL 6
REMARK VINA RESULT:      -6.2      1.891      3.169
REMARK  Name = 
REMARK  12 active torsions:
REMARK  status: ('A' for Active; 'I' for Inactive)
REMARK    1  A    between atoms: C_2  and  N_4
REMARK    2  A    between atoms: N_4  and  C_5
REMARK    3  A    between atoms: C_5  and  C_6
REMARK    4  A    between atoms: C_6  and  C_8
REMARK    5  A    between atoms: C_8  and  O_9
REMARK    6  A    between atoms: O_9  and  C_10
REMARK    7  A    between atoms: C_13  and  C_14
REMARK    8  A    between atoms: C_14  and  O_15
REMARK    9  A    between atoms: O_15  and  C_16
REMARK   10  A    between atoms: C_16  and  C_17
REMARK   11  A    between atoms: C_17  and  O_18
REMARK   12  A    between atoms: O_18  and  C_19
REMARK                            x       y       z     vdW  Elec       q    Type
REMARK                         _______ _______ _______ _____ _____    ______ ____
ROOT
ATOM      1  C   UNL     1       3.073   5.246  -9.762  0.00  0.00    +0.139 A 
ATOM      2  C   UNL     1       3.151   4.154  -8.906  0.00  0.00    +0.037 A 
ATOM      3  C   UNL     1       2.430   4.091  -7.731  0.00  0.00    +0.001 A 
ATOM      4  C   UNL     1       1.562   5.127  -7.425  0.00  0.00    +0.007 A 
ATOM      5  C   UNL     1       1.758   6.315  -8.083  0.00  0.00    +0.001 A 
ATOM      6  C   UNL     1       2.605   6.416  -9.179  0.00  0.00    +0.037 A 
ENDROOT
BRANCH   1   7
ATOM      7  O   UNL     1       4.036   5.320 -10.774  0.00  0.00    -0.473 OA
BRANCH   7   8
ATOM      8  C   UNL     1       3.688   5.784 -12.054  0.00  0.00    +0.240 C 
BRANCH   8   9
ATOM      9  C   UNL     1       4.783   5.032 -13.037  0.00  0.00    +0.213 C 
ATOM     10  O   UNL     1       4.817   6.208 -14.003  0.00  0.00    -0.218 OA
BRANCH   9  11
ATOM     11  C   UNL     1       6.067   5.613 -12.176  0.00  0.00    +0.125 C 
BRANCH  11  12
ATOM     12  N   UNL     1       6.278   6.960 -12.605  0.00  0.00    -0.217 NA
BRANCH  12  14
ATOM     13  C   UNL     1       6.426   8.190 -11.326  0.00  0.00    +0.019 C 
ATOM     14  C   UNL     1       6.710   7.795 -11.488  0.00  0.00    +0.073 C 
ATOM     15  C   UNL     1       7.304   6.845 -10.454  0.00  0.00    +0.019 C 
ENDBRANCH  12  14
ENDBRANCH  11  12
ENDBRANCH   9  11
ENDBRANCH   8   9
ENDBRANCH   7   8
ENDBRANCH   1   7
BRANCH   4  16
ATOM     16  C   UNL     1       0.546   4.937  -6.361  0.00  0.00    +0.169 C 
BRANCH  16  17
ATOM     17  O   UNL     1       0.722   5.944  -5.399  0.00  0.00    -0.346 OA
BRANCH  17  18
ATOM     18  C   UNL     1       1.355   5.331  -4.312  0.00  0.00    +0.175 C 
BRANCH  18  19
ATOM     19  C   UNL     1       2.529   6.146  -3.817  0.00  0.00    +0.174 C 
BRANCH  19  20
ATOM     20  O   UNL     1       2.754   7.159  -4.762  0.00  0.00    -0.354 OA
BRANCH  20  21
ATOM     21  C   UNL     1       4.110   7.155  -5.025  0.00  0.00    +0.115 C 
ATOM     22  C   UNL     1       4.942   7.811  -3.965  0.00  0.00    +0.032 C 
ATOM     23  C   UNL     1       4.632   5.822  -5.474  0.00  0.00    +0.032 C 
ENDBRANCH  20  21
ENDBRANCH  19  20
ENDBRANCH  18  19
ENDBRANCH  17  18
ENDBRANCH  16  17
ENDBRANCH   4  16
TORSDOF 12
ENDMDL
MODEL 7
REMARK VINA RESULT:      -6.2      2.311      4.122
REMARK  Name = 
REMARK  12 active torsions:
REMARK  status: ('A' for Active; 'I' for Inactive)
REMARK    1  A    between atoms: C_2  and  N_4
REMARK    2  A    between atoms: N_4  and  C_5
REMARK    3  A    between atoms: C_5  and  C_6
REMARK    4  A    between atoms: C_6  and  C_8
REMARK    5  A    between atoms: C_8  and  O_9
REMARK    6  A    between atoms: O_9  and  C_10
REMARK    7  A    between atoms: C_13  and  C_14
REMARK    8  A    between atoms: C_14  and  O_15
REMARK    9  A    between atoms: O_15  and  C_16
REMARK   10  A    between atoms: C_16  and  C_17
REMARK   11  A    between atoms: C_17  and  O_18
REMARK   12  A    between atoms: O_18  and  C_19
REMARK                            x       y       z     vdW  Elec       q    Type
REMARK                         _______ _______ _______ _____ _____    ______ ____
ROOT
ATOM      1  C   UNL     1       1.433   6.356  -8.245  0.00  0.00    +0.139 A 
ATOM      2  C   UNL     1       1.549   7.204  -7.150  0.00  0.00    +0.037 A 
ATOM      3  C   UNL     1       0.779   7.046  -6.016  0.00  0.00    +0.001 A 
ATOM      4  C   UNL     1      -0.099   5.975  -5.950  0.00  0.00    +0.007 A 
ATOM      5  C   UNL     1      -0.442   5.380  -7.138  0.00  0.00    +0.001 A 
ATOM      6  C   UNL     1       0.237   5.653  -8.319  0.00  0.00    +0.037 A 
ENDROOT
BRANCH   1   7
ATOM      7  O   UNL     1       2.061   6.765  -9.425  0.00  0.00    -0.473 OA
BRANCH   7   8
ATOM      8  C   UNL     1       2.957   5.908 -10.089  0.00  0.00    +0.240 C 
BRANCH   8   9
ATOM      9  C   UNL     1       4.265   5.876  -9.079  0.00  0.00    +0.213 C 
ATOM     10  O   UNL     1       4.277   4.355  -9.042  0.00  0.00    -0.218 OA
BRANCH   9  11
ATOM     11  C   UNL     1       5.332   5.924 -10.338  0.00  0.00    +0.125 C 
BRANCH  11  12
ATOM     12  N   UNL     1       5.151   7.184 -10.988  0.00  0.00    -0.217 NA
BRANCH  12  14
ATOM     13  C   UNL     1       6.501   8.285 -11.359  0.00  0.00    +0.019 C 
ATOM     14  C   UNL     1       6.440   7.776 -11.332  0.00  0.00    +0.073 C 
ATOM     15  C   UNL     1       7.495   6.950 -10.605  0.00  0.00    +0.019 C 
ENDBRANCH  12  14
ENDBRANCH  11  12
ENDBRANCH   9  11
ENDBRANCH   8   9
ENDBRANCH   7   8
ENDBRANCH   1   7
BRANCH   4  16
ATOM     16  C   UNL     1      -0.683   5.592  -4.642  0.00  0.00    +0.169 C 
BRANCH  16  17
ATOM     17  O   UNL     1      -0.065   6.359  -3.641  0.00  0.00    -0.346 OA
BRANCH  17  18
ATOM     18  C   UNL     1       0.608   5.448  -2.819  0.00  0.00    +0.175 C 
BRANCH  18  19
ATOM     19  C   UNL     1       2.058   5.833  -2.627  0.00  0.00    +0.174 C 
BRANCH  19  20
ATOM     20  O   UNL     1       2.793   5.176  -3.626  0.00  0.00    -0.354 OA
BRANCH  20  21
ATOM     21  C   UNL     1       3.853   6.005  -3.940  0.00  0.00    +0.115 C 
ATOM     22  C   UNL     1       4.377   5.830  -5.333  0.00  0.00    +0.032 C 
ATOM     23  C   UNL     1       3.636   7.436  -3.543  0.00  0.00    +0.032 C 
ENDBRANCH  20  21
ENDBRANCH  19  20
ENDBRANCH  18  19
ENDBRANCH  17  18
ENDBRANCH  16  17
ENDBRANCH   4  16
TORSDOF 12
ENDMDL
MODEL 8
REMARK VINA RESULT:      -6.2      3.179      8.112
REMARK  Name = 
REMARK  12 active torsions:
REMARK  status: ('A' for Active; 'I' for Inactive)
REMARK    1  A    between atoms: C_2  and  N_4
REMARK    2  A    between atoms: N_4  and  C_5
REMARK    3  A    between atoms: C_5  and  C_6
REMARK    4  A    between atoms: C_6  and  C_8
REMARK    5  A    between atoms: C_8  and  O_9
REMARK    6  A    between atoms: O_9  and  C_10
REMARK    7  A    between atoms: C_13  and  C_14
REMARK    8  A    between atoms: C_14  and  O_15
REMARK    9  A    between atoms: O_15  and  C_16
REMARK   10  A    between atoms: C_16  and  C_17
REMARK   11  A    between atoms: C_17  and  O_18
REMARK   12  A    between atoms: O_18  and  C_19
REMARK                            x       y       z     vdW  Elec       q    Type
REMARK                         _______ _______ _______ _____ _____    ______ ____
ROOT
ATOM      1  C   UNL     1       1.057   5.969  -5.199  0.00  0.00    +0.139 A 
ATOM      2  C   UNL     1       1.499   6.893  -6.138  0.00  0.00    +0.037 A 
ATOM      3  C   UNL     1       1.875   6.521  -7.413  0.00  0.00    +0.001 A 
ATOM      4  C   UNL     1       1.755   5.190  -7.781  0.00  0.00    +0.007 A 
ATOM      5  C   UNL     1       1.657   4.272  -6.766  0.00  0.00    +0.001 A 
ATOM      6  C   UNL     1       1.428   4.654  -5.450  0.00  0.00    +0.037 A 
ENDROOT
BRANCH   1   7
ATOM      7  O   UNL     1       0.960   6.414  -3.877  0.00  0.00    -0.473 OA
BRANCH   7   8
ATOM      8  C   UNL     1       1.142   5.518  -2.810  0.00  0.00    +0.240 C 
BRANCH   8   9
ATOM      9  C   UNL     1       2.092   6.371  -1.761  0.00  0.00    +0.213 C 
ATOM     10  O   UNL     1       1.832   5.388  -0.628  0.00  0.00    -0.218 OA
BRANCH   9  11
ATOM     11  C   UNL     1       3.459   5.573  -2.232  0.00  0.00    +0.125 C 
BRANCH  11  12
ATOM     12  N   UNL     1       4.350   6.555  -2.766  0.00  0.00    -0.217 NA
BRANCH  12  14
ATOM     13  C   UNL     1       4.849   6.655  -4.473  0.00  0.00    +0.019 C 
ATOM     14  C   UNL     1       4.579   6.324  -4.189  0.00  0.00    +0.073 C 
ATOM     15  C   UNL     1       4.865   4.834  -4.336  0.00  0.00    +0.019 C 
ENDBRANCH  12  14
ENDBRANCH  11  12
ENDBRANCH   9  11
ENDBRANCH   8   9
ENDBRANCH   7   8
ENDBRANCH   1   7
BRANCH   4  16
ATOM     16  C   UNL     1       1.830   4.821  -9.216  0.00  0.00    +0.169 C 
BRANCH  16  17
ATOM     17  O   UNL     1       1.850   6.003  -9.974  0.00  0.00    -0.346 OA
BRANCH  17  18
ATOM     18  C   UNL     1       2.728   5.763 -11.037  0.00  0.00    +0.175 C 
BRANCH  18  19
ATOM     19  C   UNL     1       4.071   6.420 -10.811  0.00  0.00    +0.174 C 
BRANCH  19  20
ATOM     20  O   UNL     1       5.000   5.391 -10.593  0.00  0.00    -0.354 OA
BRANCH  20  21
ATOM     21  C   UNL     1       5.781   5.789  -9.526  0.00  0.00    +0.115 C 
ATOM     22  C   UNL     1       5.395   5.171  -8.217  0.00  0.00    +0.032 C 
ATOM     23  C   UNL     1       7.254   5.749  -9.809  0.00  0.00    +0.032 C 
ENDBRANCH  20  21
ENDBRANCH  19  20
ENDBRANCH  18  19
ENDBRANCH  17  18
ENDBRANCH  16  17
ENDBRANCH   4  16
TORSDOF 12
ENDMDL
MODEL 9
REMARK VINA RESULT:      -6.2      2.344      4.142
REMARK  Name = 
REMARK  12 active torsions:
REMARK  status: ('A' for Active; 'I' for Inactive)
REMARK    1  A    between atoms: C_2  and  N_4
REMARK    2  A    between atoms: N_4  and  C_5
REMARK    3  A    between atoms: C_5  and  C_6
REMARK    4  A    between atoms: C_6  and  C_8
REMARK    5  A    between atoms: C_8  and  O_9
REMARK    6  A    between atoms: O_9  and  C_10
REMARK    7  A    between atoms: C_13  and  C_14
REMARK    8  A    between atoms: C_14  and  O_15
REMARK    9  A    between atoms: O_15  and  C_16
REMARK   10  A    between atoms: C_16  and  C_17
REMARK   11  A    between atoms: C_17  and  O_18
REMARK   12  A    between atoms: O_18  and  C_19
REMARK                            x       y       z     vdW  Elec       q    Type
REMARK                         _______ _______ _______ _____ _____    ______ ____
ROOT
ATOM      1  C   UNL     1       1.592   4.796  -6.954  0.00  0.00    +0.139 A 
ATOM      2  C   UNL     1       1.232   5.005  -5.628  0.00  0.00    +0.037 A 
ATOM      3  C   UNL     1      -0.048   5.370  -5.265  0.00  0.00    +0.001 A 
ATOM      4  C   UNL     1      -1.016   5.480  -6.251  0.00  0.00    +0.007 A 
ATOM      5  C   UNL     1      -0.571   5.611  -7.543  0.00  0.00    +0.001 A 
ATOM      6  C   UNL     1       0.755   5.391  -7.890  0.00  0.00    +0.037 A 
ENDROOT
BRANCH   1   7
ATOM      7  O   UNL     1       2.960   4.693  -7.225  0.00  0.00    -0.473 OA
BRANCH   7   8
ATOM      8  C   UNL     1       3.591   5.626  -8.065  0.00  0.00    +0.240 C 
BRANCH   8   9
ATOM      9  C   UNL     1       4.258   4.680  -9.245  0.00  0.00    +0.213 C 
ATOM     10  O   UNL     1       3.769   5.605 -10.350  0.00  0.00    -0.218 OA
BRANCH   9  11
ATOM     11  C   UNL     1       5.714   5.453  -9.147  0.00  0.00    +0.125 C 
BRANCH  11  12
ATOM     12  N   UNL     1       6.072   5.832 -10.478  0.00  0.00    -0.217 NA
BRANCH  12  14
ATOM     13  C   UNL     1       7.544   6.835 -10.450  0.00  0.00    +0.019 C 
ATOM     14  C   UNL     1       7.039   6.926 -10.460  0.00  0.00    +0.073 C 
ATOM     15  C   UNL     1       6.504   7.980 -11.422  0.00  0.00    +0.019 C 
ENDBRANCH  12  14
ENDBRANCH  11  12
ENDBRANCH   9  11
ENDBRANCH   8   9
ENDBRANCH   7   8
ENDBRANCH   1   7
BRANCH   4  16
ATOM     16  C   UNL     1      -2.446   5.541  -5.865  0.00  0.00    +0.169 C 
BRANCH  16  17
ATOM     17  O   UNL     1      -2.562   5.112  -4.533  0.00  0.00    -0.346 OA
BRANCH  17  18
ATOM     18  C   UNL     1      -3.010   6.222  -3.809  0.00  0.00    +0.175 C 
BRANCH  18  19
ATOM     19  C   UNL     1      -3.083   5.930  -2.327  0.00  0.00    +0.174 C 
BRANCH  19  20
ATOM     20  O   UNL     1      -2.064   5.008  -2.039  0.00  0.00    -0.354 OA
BRANCH  20  21
ATOM     21  C   UNL     1      -1.020   5.735  -1.501  0.00  0.00    +0.115 C 
ATOM     22  C   UNL     1      -1.313   6.327  -0.156  0.00  0.00    +0.032 C 
ATOM     23  C   UNL     1       0.306   5.037  -1.586  0.00  0.00    +0.032 C 
ENDBRANCH  20  21
ENDBRANCH  19  20
ENDBRANCH  18  19
ENDBRANCH  17  18
ENDBRANCH  16  17
ENDBRANCH   4  16
TORSDOF 12
ENDMDL
