MODEL 1
REMARK VINA RESULT:      -6.3      0.000      0.000
REMARK  Name = 
REMARK  2 active torsions:
REMARK  status: ('A' for Active; 'I' for Inactive)
REMARK    1  A    between atoms: N1_5  and  C1*_6
REMARK    2  A    between atoms: C4*_8  and  C5*_9
REMARK                            x       y       z     vdW  Elec       q    Type
REMARK                         _______ _______ _______ _____ _____    ______ ____
ROOT
ATOM      1  C1*   C A   1       4.143   6.209 -10.721  0.00  0.00    +0.242 C 
ATOM      2  C2*   C A   1       3.456   4.768 -10.096  0.00  0.00    +0.234 C 
ATOM      3  O2*   C A   1       4.151   4.670  -8.774  0.00  0.00    -0.216 OA
ATOM      4  C3*   C A   1       2.186   5.650  -9.416  0.00  0.00    +0.216 C 
ATOM      5  O3*   C A   1       1.839   6.249 -10.753  0.00  0.00    -0.218 OA
ATOM      6  C4*   C A   1       3.050   7.048  -8.968  0.00  0.00    +0.183 C 
ATOM      7  O4*   C A   1       4.435   6.603  -9.304  0.00  0.00    -0.330 OA
ENDROOT
BRANCH   1  13
ATOM      8  N4    C A   1       9.344   5.909 -12.372  0.00  0.00    -0.107 NA
ATOM      9  C4    C A   1       8.099   5.506 -11.882  0.00  0.00    +0.176 A 
ATOM     10  N3    C A   1       7.067   5.095 -12.661  0.00  0.00    -0.174 NA
ATOM     11  C2    C A   1       5.782   5.308 -12.282  0.00  0.00    +0.353 A 
ATOM     12  O2    C A   1       4.883   4.752 -12.956  0.00  0.00    -0.244 OA
ATOM     13  N1    C A   1       5.556   5.565 -10.969  0.00  0.00    -0.254 N 
ATOM     14  C6    C A   1       6.555   5.816 -10.194  0.00  0.00    +0.085 A 
ATOM     15  C5    C A   1       7.832   5.457 -10.518  0.00  0.00    +0.057 A 
ENDBRANCH   1  13
BRANCH   6  16
ATOM     16  C5*   C A   1       3.220   6.527  -7.413  0.00  0.00    +0.214 C 
ATOM     17  O5*   C A   1       2.974   7.578  -6.591  0.00  0.00    -0.218 OA
ENDBRANCH   6  16
TORSDOF 2
ENDMDL
MODEL 2
REMARK VINA RESULT:      -6.3      6.272      9.146
REMARK  Name = 
REMARK  2 active torsions:
REMARK  status: ('A' for Active; 'I' for Inactive)
REMARK    1  A    between atoms: N1_5  and  C1*_6
REMARK    2  A    between atoms: C4*_8  and  C5*_9
REMARK                            x       y       z     vdW  Elec       q    Type
REMARK                         _______ _______ _______ _____ _____    ______ ____
ROOT
ATOM      1  C1*   C A   1       1.319   6.002  -4.212  0.00  0.00    +0.242 C 
ATOM      2  C2*   C A   1       1.702   4.682  -5.238  0.00  0.00    +0.234 C 
ATOM      3  O2*   C A   1       0.943   5.053  -6.474  0.00  0.00    -0.216 OA
ATOM      4  C3*   C A   1       3.081   5.490  -5.786  0.00  0.00    +0.216 C 
ATOM      5  O3*   C A   1       3.590   5.649  -4.378  0.00  0.00    -0.218 OA
ATOM      6  C4*   C A   1       2.470   7.079  -5.789  0.00  0.00    +0.183 C 
ATOM      7  O4*   C A   1       1.042   6.797  -5.453  0.00  0.00    -0.330 OA
ENDROOT
BRANCH   1  13
ATOM      8  N4    C A   1      -3.900   6.388  -2.637  0.00  0.00    -0.107 NA
ATOM      9  C4    C A   1      -2.717   5.829  -3.128  0.00  0.00    +0.176 A 
ATOM     10  N3    C A   1      -1.769   5.244  -2.356  0.00  0.00    -0.174 NA
ATOM     11  C2    C A   1      -0.460   5.285  -2.710  0.00  0.00    +0.353 A 
ATOM     12  O2    C A   1       0.337   4.578  -2.049  0.00  0.00    -0.244 OA
ATOM     13  N1    C A   1      -0.176   5.558  -4.008  0.00  0.00    -0.254 N 
ATOM     14  C6    C A   1      -1.116   5.982  -4.784  0.00  0.00    +0.085 A 
ATOM     15  C5    C A   1      -2.436   5.797  -4.490  0.00  0.00    +0.057 A 
ENDBRANCH   1  13
BRANCH   6  16
ATOM     16  C5*   C A   1       2.139   7.022  -7.403  0.00  0.00    +0.214 C 
ATOM     17  O5*   C A   1       2.123   8.295  -7.872  0.00  0.00    -0.218 OA
ENDBRANCH   6  16
TORSDOF 2
ENDMDL
MODEL 3
REMARK VINA RESULT:      -6.1      5.573      8.258
REMARK  Name = 
REMARK  2 active torsions:
REMARK  status: ('A' for Active; 'I' for Inactive)
REMARK    1  A    between atoms: N1_5  and  C1*_6
REMARK    2  A    between atoms: C4*_8  and  C5*_9
REMARK                            x       y       z     vdW  Elec       q    Type
REMARK                         _______ _______ _______ _____ _____    ______ ____
ROOT
ATOM      1  C1*   C A   1       0.748   4.963  -6.422  0.00  0.00    +0.242 C 
ATOM      2  C2*   C A   1       1.179   6.502  -7.043  0.00  0.00    +0.234 C 
ATOM      3  O2*   C A   1       2.086   7.001  -5.962  0.00  0.00    -0.216 OA
ATOM      4  C3*   C A   1       2.476   5.817  -7.880  0.00  0.00    +0.216 C 
ATOM      5  O3*   C A   1       1.560   4.845  -8.576  0.00  0.00    -0.218 OA
ATOM      6  C4*   C A   1       2.930   4.637  -6.740  0.00  0.00    +0.183 C 
ATOM      7  O4*   C A   1       2.014   5.007  -5.621  0.00  0.00    -0.330 OA
ENDROOT
BRANCH   1  13
ATOM      8  N4    C A   1      -2.760   4.934  -2.231  0.00  0.00    -0.107 NA
ATOM      9  C4    C A   1      -1.942   5.424  -3.253  0.00  0.00    +0.176 A 
ATOM     10  N3    C A   1      -2.346   5.608  -4.534  0.00  0.00    -0.174 NA
ATOM     11  C2    C A   1      -1.475   5.473  -5.565  0.00  0.00    +0.353 A 
ATOM     12  O2    C A   1      -1.869   5.827  -6.701  0.00  0.00    -0.244 OA
ATOM     13  N1    C A   1      -0.152   5.550  -5.274  0.00  0.00    -0.254 N 
ATOM     14  C6    C A   1       0.225   5.519  -4.041  0.00  0.00    +0.085 A 
ATOM     15  C5    C A   1      -0.627   5.809  -3.014  0.00  0.00    +0.057 A 
ENDBRANCH   1  13
BRANCH   6  16
ATOM     16  C5*   C A   1       4.125   5.592  -6.126  0.00  0.00    +0.214 C 
ATOM     17  O5*   C A   1       4.656   4.959  -5.050  0.00  0.00    -0.218 OA
ENDBRANCH   6  16
TORSDOF 2
ENDMDL
MODEL 4
REMARK VINA RESULT:      -6.1      2.924      5.175
REMARK  Name = 
REMARK  2 active torsions:
REMARK  status: ('A' for Active; 'I' for Inactive)
REMARK    1  A    between atoms: N1_5  and  C1*_6
REMARK    2  A    between atoms: C4*_8  and  C5*_9
REMARK                            x       y       z     vdW  Elec       q    Type
REMARK                         _______ _______ _______ _____ _____    ______ ____
ROOT
ATOM      1  C1*   C A   1       5.423   5.220 -12.725  0.00  0.00    +0.242 C 
ATOM      2  C2*   C A   1       6.056   6.729 -13.238  0.00  0.00    +0.234 C 
ATOM      3  O2*   C A   1       6.057   7.490 -11.948  0.00  0.00    -0.216 OA
ATOM      4  C3*   C A   1       7.629   6.178 -12.968  0.00  0.00    +0.216 C 
ATOM      5  O3*   C A   1       7.408   4.996 -13.875  0.00  0.00    -0.218 OA
ATOM      6  C4*   C A   1       7.340   5.225 -11.587  0.00  0.00    +0.183 C 
ATOM      7  O4*   C A   1       5.905   5.563 -11.348  0.00  0.00    -0.330 OA
ENDROOT
BRANCH   1  13
ATOM      8  N4    C A   1       0.077   5.086 -11.598  0.00  0.00    -0.107 NA
ATOM      9  C4    C A   1       1.322   5.585 -11.990  0.00  0.00    +0.176 A 
ATOM     10  N3    C A   1       1.795   5.549 -13.260  0.00  0.00    -0.174 NA
ATOM     11  C2    C A   1       3.125   5.445 -13.504  0.00  0.00    +0.353 A 
ATOM     12  O2    C A   1       3.507   5.594 -14.689  0.00  0.00    -0.244 OA
ATOM     13  N1    C A   1       3.970   5.776 -12.496  0.00  0.00    -0.254 N 
ATOM     14  C6    C A   1       3.497   5.952 -11.308  0.00  0.00    +0.085 A 
ATOM     15  C5    C A   1       2.175   6.211 -11.086  0.00  0.00    +0.057 A 
ENDBRANCH   1  13
BRANCH   6  16
ATOM     16  C5*   C A   1       7.830   6.428 -10.571  0.00  0.00    +0.214 C 
ATOM     17  O5*   C A   1       7.518   6.057  -9.303  0.00  0.00    -0.218 OA
ENDBRANCH   6  16
TORSDOF 2
ENDMDL
MODEL 5
REMARK VINA RESULT:      -6.0      1.718      2.993
REMARK  Name = 
REMARK  2 active torsions:
REMARK  status: ('A' for Active; 'I' for Inactive)
REMARK    1  A    between atoms: N1_5  and  C1*_6
REMARK    2  A    between atoms: C4*_8  and  C5*_9
REMARK                            x       y       z     vdW  Elec       q    Type
REMARK                         _______ _______ _______ _____ _____    ______ ____
ROOT
ATOM      1  C1*   C A   1       4.003   4.891  -9.208  0.00  0.00    +0.242 C 
ATOM      2  C2*   C A   1       3.463   6.425  -8.663  0.00  0.00    +0.234 C 
ATOM      3  O2*   C A   1       2.533   6.809  -9.771  0.00  0.00    -0.216 OA
ATOM      4  C3*   C A   1       2.208   5.693  -7.801  0.00  0.00    +0.216 C 
ATOM      5  O3*   C A   1       3.183   4.819  -7.055  0.00  0.00    -0.218 OA
ATOM      6  C4*   C A   1       1.845   4.433  -8.886  0.00  0.00    +0.183 C 
ATOM      7  O4*   C A   1       2.743   4.811 -10.017  0.00  0.00    -0.330 OA
ENDROOT
BRANCH   1  13
ATOM      8  N4    C A   1       7.500   4.896 -13.407  0.00  0.00    -0.107 NA
ATOM      9  C4    C A   1       6.661   5.379 -12.400  0.00  0.00    +0.176 A 
ATOM     10  N3    C A   1       7.058   5.625 -11.127  0.00  0.00    -0.174 NA
ATOM     11  C2    C A   1       6.196   5.482 -10.089  0.00  0.00    +0.353 A 
ATOM     12  O2    C A   1       6.573   5.893  -8.966  0.00  0.00    -0.244 OA
ATOM     13  N1    C A   1       4.870   5.483 -10.378  0.00  0.00    -0.254 N 
ATOM     14  C6    C A   1       4.493   5.392 -11.608  0.00  0.00    +0.085 A 
ATOM     15  C5    C A   1       5.328   5.690 -12.646  0.00  0.00    +0.057 A 
ENDBRANCH   1  13
BRANCH   6  16
ATOM     16  C5*   C A   1       0.593   5.275  -9.550  0.00  0.00    +0.214 C 
ATOM     17  O5*   C A   1       0.032   4.499 -10.513  0.00  0.00    -0.218 OA
ENDBRANCH   6  16
TORSDOF 2
ENDMDL
MODEL 6
REMARK VINA RESULT:      -6.0      6.020      7.719
REMARK  Name = 
REMARK  2 active torsions:
REMARK  status: ('A' for Active; 'I' for Inactive)
REMARK    1  A    between atoms: N1_5  and  C1*_6
REMARK    2  A    between atoms: C4*_8  and  C5*_9
REMARK                            x       y       z     vdW  Elec       q    Type
REMARK                         _______ _______ _______ _____ _____    ______ ____
ROOT
ATOM      1  C1*   C A   1       2.850   5.344  -4.384  0.00  0.00    +0.242 C 
ATOM      2  C2*   C A   1       3.965   6.064  -5.469  0.00  0.00    +0.234 C 
ATOM      3  O2*   C A   1       3.661   7.516  -5.268  0.00  0.00    -0.216 OA
ATOM      4  C3*   C A   1       5.144   6.097  -4.260  0.00  0.00    +0.216 C 
ATOM      5  O3*   C A   1       5.009   4.613  -4.039  0.00  0.00    -0.218 OA
ATOM      6  C4*   C A   1       4.141   6.429  -2.925  0.00  0.00    +0.183 C 
ATOM      7  O4*   C A   1       2.845   6.643  -3.635  0.00  0.00    -0.330 OA
ENDROOT
BRANCH   1  13
ATOM      8  N4    C A   1      -2.421   5.551  -5.811  0.00  0.00    -0.107 NA
ATOM      9  C4    C A   1      -1.033   5.682  -5.901  0.00  0.00    +0.176 A 
ATOM     10  N3    C A   1      -0.200   4.709  -6.345  0.00  0.00    -0.174 NA
ATOM     11  C2    C A   1       1.065   4.603  -5.867  0.00  0.00    +0.353 A 
ATOM     12  O2    C A   1       1.833   3.798  -6.444  0.00  0.00    -0.244 OA
ATOM     13  N1    C A   1       1.593   5.696  -5.260  0.00  0.00    -0.254 N 
ATOM     14  C6    C A   1       0.823   6.687  -4.964  0.00  0.00    +0.085 A 
ATOM     15  C5    C A   1      -0.388   6.869  -5.568  0.00  0.00    +0.057 A 
ENDBRANCH   1  13
BRANCH   6  16
ATOM     16  C5*   C A   1       4.482   8.041  -2.984  0.00  0.00    +0.214 C 
ATOM     17  O5*   C A   1       3.802   8.649  -1.979  0.00  0.00    -0.218 OA
ENDBRANCH   6  16
TORSDOF 2
ENDMDL
MODEL 7
REMARK VINA RESULT:      -5.9      2.729      4.093
REMARK  Name = 
REMARK  2 active torsions:
REMARK  status: ('A' for Active; 'I' for Inactive)
REMARK    1  A    between atoms: N1_5  and  C1*_6
REMARK    2  A    between atoms: C4*_8  and  C5*_9
REMARK                            x       y       z     vdW  Elec       q    Type
REMARK                         _______ _______ _______ _____ _____    ______ ____
ROOT
ATOM      1  C1*   C A   1       1.839   5.625  -7.045  0.00  0.00    +0.242 C 
ATOM      2  C2*   C A   1       1.774   4.218  -6.066  0.00  0.00    +0.234 C 
ATOM      3  O2*   C A   1       2.960   4.434  -5.179  0.00  0.00    -0.216 OA
ATOM      4  C3*   C A   1       0.755   5.007  -4.974  0.00  0.00    +0.216 C 
ATOM      5  O3*   C A   1      -0.228   5.328  -6.069  0.00  0.00    -0.218 OA
ATOM      6  C4*   C A   1       1.430   6.567  -5.066  0.00  0.00    +0.183 C 
ATOM      7  O4*   C A   1       2.608   6.278  -5.936  0.00  0.00    -0.330 OA
ENDROOT
BRANCH   1  13
ATOM      8  N4    C A   1       6.001   5.944 -10.572  0.00  0.00    -0.107 NA
ATOM      9  C4    C A   1       5.101   5.399  -9.652  0.00  0.00    +0.176 A 
ATOM     10  N3    C A   1       3.911   4.841  -9.985  0.00  0.00    -0.174 NA
ATOM     11  C2    C A   1       2.854   4.900  -9.138  0.00  0.00    +0.353 A 
ATOM     12  O2    C A   1       1.844   4.216  -9.429  0.00  0.00    -0.244 OA
ATOM     13  N1    C A   1       3.118   5.159  -7.832  0.00  0.00    -0.254 N 
ATOM     14  C6    C A   1       4.298   5.555  -7.494  0.00  0.00    +0.085 A 
ATOM     15  C5    C A   1       5.387   5.352  -8.292  0.00  0.00    +0.057 A 
ENDBRANCH   1  13
BRANCH   6  16
ATOM     16  C5*   C A   1       2.331   6.331  -3.705  0.00  0.00    +0.214 C 
ATOM     17  O5*   C A   1       3.055   7.457  -3.483  0.00  0.00    -0.218 OA
ENDBRANCH   6  16
TORSDOF 2
ENDMDL
MODEL 8
REMARK VINA RESULT:      -5.7      7.783      9.371
REMARK  Name = 
REMARK  2 active torsions:
REMARK  status: ('A' for Active; 'I' for Inactive)
REMARK    1  A    between atoms: N1_5  and  C1*_6
REMARK    2  A    between atoms: C4*_8  and  C5*_9
REMARK                            x       y       z     vdW  Elec       q    Type
REMARK                         _______ _______ _______ _____ _____    ______ ____
ROOT
ATOM      1  C1*   C A   1       1.902   6.470  -2.002  0.00  0.00    +0.242 C 
ATOM      2  C2*   C A   1       2.924   5.093  -2.021  0.00  0.00    +0.234 C 
ATOM      3  O2*   C A   1       3.606   5.262  -3.342  0.00  0.00    -0.216 OA
ATOM      4  C3*   C A   1       4.136   5.963  -1.230  0.00  0.00    +0.216 C 
ATOM      5  O3*   C A   1       3.200   6.313  -0.104  0.00  0.00    -0.218 OA
ATOM      6  C4*   C A   1       3.889   7.480  -1.962  0.00  0.00    +0.183 C 
ATOM      7  O4*   C A   1       2.855   7.104  -2.971  0.00  0.00    -0.330 OA
ENDROOT
BRANCH   1  13
ATOM      8  N4    C A   1      -2.380   6.374  -5.397  0.00  0.00    -0.107 NA
ATOM      9  C4    C A   1      -1.247   5.939  -4.703  0.00  0.00    +0.176 A 
ATOM     10  N3    C A   1      -1.277   5.350  -3.483  0.00  0.00    -0.174 NA
ATOM     11  C2    C A   1      -0.252   5.507  -2.608  0.00  0.00    +0.353 A 
ATOM     12  O2    C A   1      -0.263   4.797  -1.575  0.00  0.00    -0.244 OA
ATOM     13  N1    C A   1       0.939   5.913  -3.114  0.00  0.00    -0.254 N 
ATOM     14  C6    C A   1       0.995   6.343  -4.329  0.00  0.00    +0.085 A 
ATOM     15  C5    C A   1       0.029   6.048  -5.247  0.00  0.00    +0.057 A 
ENDBRANCH   1  13
BRANCH   6  16
ATOM     16  C5*   C A   1       5.098   7.227  -3.054  0.00  0.00    +0.214 C 
ATOM     17  O5*   C A   1       4.987   8.166  -4.027  0.00  0.00    -0.218 OA
ENDBRANCH   6  16
TORSDOF 2
ENDMDL
MODEL 9
REMARK VINA RESULT:      -5.6      4.917      7.464
REMARK  Name = 
REMARK  2 active torsions:
REMARK  status: ('A' for Active; 'I' for Inactive)
REMARK    1  A    between atoms: N1_5  and  C1*_6
REMARK    2  A    between atoms: C4*_8  and  C5*_9
REMARK                            x       y       z     vdW  Elec       q    Type
REMARK                         _______ _______ _______ _____ _____    ______ ____
ROOT
ATOM      1  C1*   C A   1       1.592   5.103  -5.516  0.00  0.00    +0.242 C 
ATOM      2  C2*   C A   1       1.671   6.661  -6.229  0.00  0.00    +0.234 C 
ATOM      3  O2*   C A   1       3.108   6.712  -6.643  0.00  0.00    -0.216 OA
ATOM      4  C3*   C A   1       1.216   6.016  -7.723  0.00  0.00    +0.216 C 
ATOM      5  O3*   C A   1      -0.029   5.415  -7.124  0.00  0.00    -0.218 OA
ATOM      6  C4*   C A   1       2.032   4.525  -7.624  0.00  0.00    +0.183 C 
ATOM      7  O4*   C A   1       2.783   4.737  -6.351  0.00  0.00    -0.330 OA
ENDROOT
BRANCH   1  13
ATOM      8  N4    C A   1       4.043   4.520  -0.666  0.00  0.00    -0.107 NA
ATOM      9  C4    C A   1       3.556   5.133  -1.824  0.00  0.00    +0.176 A 
ATOM     10  N3    C A   1       2.310   5.653  -1.947  0.00  0.00    -0.174 NA
ATOM     11  C2    C A   1       1.674   5.659  -3.145  0.00  0.00    +0.353 A 
ATOM     12  O2    C A   1       0.605   6.309  -3.227  0.00  0.00    -0.244 OA
ATOM     13  N1    C A   1       2.440   5.511  -4.256  0.00  0.00    -0.254 N 
ATOM     14  C6    C A   1       3.672   5.153  -4.129  0.00  0.00    +0.085 A 
ATOM     15  C5    C A   1       4.351   5.296  -2.953  0.00  0.00    +0.057 A 
ENDBRANCH   1  13
BRANCH   6  16
ATOM     16  C5*   C A   1       3.304   5.086  -8.510  0.00  0.00    +0.214 C 
ATOM     17  O5*   C A   1       3.923   4.019  -9.076  0.00  0.00    -0.218 OA
ENDBRANCH   6  16
TORSDOF 2
ENDMDL
