MODEL 1
REMARK VINA RESULT:      20.7      0.000      0.000
REMARK  Name = 
REMARK  6 active torsions:
REMARK  status: ('A' for Active; 'I' for Inactive)
REMARK    1  A    between atoms: O_2  and  C_3
REMARK    2  A    between atoms: C_5  and  C_6
REMARK    3  A    between atoms: C_6  and  C_7
REMARK    4  A    between atoms: C_7  and  C_9
REMARK    5  A    between atoms: C_20  and  O_21
REMARK    6  A    between atoms: C_37  and  O_38
REMARK                            x       y       z     vdW  Elec       q    Type
REMARK                         _______ _______ _______ _____ _____    ______ ____
ROOT
ATOM      1  C   UNL     1       3.940   6.435  -6.203  0.00  0.00    +0.176 C 
ATOM      2  O   UNL     1       3.404   6.245  -7.601  0.00  0.00    -0.451 OA
ATOM      3  C   UNL     1       2.161   6.812  -7.826  0.00  0.00    +0.335 C 
ATOM      4  O   UNL     1       1.730   7.933  -7.890  0.00  0.00    -0.248 OA
ATOM      5  C   UNL     1       1.197   5.604  -7.408  0.00  0.00    +0.175 C 
ATOM      6  N   UNL     1       0.174   5.732  -8.600  0.00  0.00    -0.265 N 
ATOM      7  C   UNL     1       0.403   6.376  -9.788  0.00  0.00    +0.094 C 
ATOM      8  C   UNL     1       1.747   6.126 -10.378  0.00  0.00    +0.022 C 
ATOM      9  C   UNL     1       2.440   5.135  -9.614  0.00  0.00    +0.004 C 
ATOM     10  C   UNL     1      -0.515   4.458  -8.592  0.00  0.00    +0.289 C 
ATOM     11  O   UNL     1      -0.802   3.773  -9.598  0.00  0.00    -0.267 OA
ATOM     12  C   UNL     1      -0.826   4.135  -7.180  0.00  0.00    +0.279 C 
ATOM     13  O   UNL     1      -0.811   2.875  -6.959  0.00  0.00    -0.281 OA
ATOM     14  C   UNL     1      -1.396   5.233  -6.511  0.00  0.00    +0.279 C 
ATOM     15  O   UNL     1      -1.025   6.049  -5.565  0.00  0.00    -0.329 OA
ATOM     16  C   UNL     1      -1.948   7.261  -5.664  0.00  0.00    +0.121 C 
ATOM     17  C   UNL     1      -3.229   6.519  -4.954  0.00  0.00    +0.030 C 
ATOM     18  C   UNL     1      -3.636   5.375  -5.641  0.00  0.00    +0.008 C 
ATOM     19  C   UNL     1      -1.394   7.917  -4.272  0.00  0.00    +0.063 C 
ATOM     20  C   UNL     1      -2.598   7.673  -3.177  0.00  0.00    +0.136 C 
ATOM     21  C   UNL     1      -1.655   7.861  -1.863  0.00  0.00    -0.017 C 
ATOM     22  C   UNL     1      -0.202   7.536  -2.084  0.00  0.00    +0.029 C 
ATOM     23  C   UNL     1      -2.095   8.691  -0.964  0.00  0.00    -0.006 C 
ATOM     24  C   UNL     1      -3.049   8.499   0.079  0.00  0.00    -0.001 C 
ATOM     25  C   UNL     1      -2.938   7.331   0.690  0.00  0.00    -0.000 C 
ATOM     26  C   UNL     1      -1.997   7.108   1.799  0.00  0.00    -0.005 C 
ATOM     27  C   UNL     1      -0.802   7.513   1.533  0.00  0.00    -0.026 C 
ATOM     28  C   UNL     1       0.246   7.683   2.728  0.00  0.00    +0.022 C 
ATOM     29  C   UNL     1       0.042   6.135   3.221  0.00  0.00    +0.005 C 
ATOM     30  C   UNL     1       1.520   7.281   1.786  0.00  0.00    +0.012 C 
ATOM     31  C   UNL     1       2.579   8.480   2.133  0.00  0.00    +0.061 C 
ATOM     32  C   UNL     1       2.442   8.265   3.750  0.00  0.00    +0.008 C 
ATOM     33  C   UNL     1       3.854   7.534   1.988  0.00  0.00    +0.180 C 
ATOM     34  O   UNL     1       4.104   6.676   2.708  0.00  0.00    -0.293 OA
ATOM     35  C   UNL     1       4.903   8.037   0.883  0.00  0.00    +0.206 C 
ATOM     36  C   UNL     1       4.981   6.422   0.272  0.00  0.00    +0.204 C 
ATOM     37  O   UNL     1       6.436   6.302   0.657  0.00  0.00    -0.216 OA
ATOM     38  C   UNL     1       5.277   6.845  -1.264  0.00  0.00    -0.015 C 
ATOM     39  C   UNL     1       6.476   7.753  -1.442  0.00  0.00    +0.029 C 
ATOM     40  C   UNL     1       5.049   5.797  -1.961  0.00  0.00    -0.025 C 
ATOM     41  C   UNL     1       3.705   5.408  -2.749  0.00  0.00    +0.079 C 
ATOM     42  C   UNL     1       3.162   6.929  -3.035  0.00  0.00    +0.012 C 
ATOM     43  C   UNL     1       4.413   5.342  -4.197  0.00  0.00    +0.158 C 
ATOM     44  O   UNL     1       5.404   6.061  -4.227  0.00  0.00    -0.296 OA
ATOM     45  O   UNL     1      -2.238   5.961  -7.386  0.00  0.00    -0.187 OA
ATOM     46  C   UNL     1      -2.407   4.316  -5.600  0.00  0.00    +0.062 C 
ATOM     47  C   UNL     1      -3.151   3.523  -6.822  0.00  0.00    +0.006 C 
ATOM     48  C   UNL     1       2.019   4.521  -8.363  0.00  0.00    +0.031 C 
ATOM     49  C   UNL     1       3.535   5.065  -5.403  0.00  0.00    +0.108 C 
ENDROOT
BRANCH   1  50
ATOM     50  C   UNL     1       5.525   5.785  -6.492  0.00  0.00    +0.041 C 
ATOM     51  C   UNL     1       6.302   7.062  -5.861  0.00  0.00    +0.004 C 
BRANCH  50  52
ATOM     52  C   UNL     1       5.816   6.302  -7.961  0.00  0.00    +0.004 C 
BRANCH  52  58
ATOM     53  C   UNL     1       6.432   5.505 -11.393  0.00  0.00    +0.146 C 
ATOM     54  C   UNL     1       7.247   7.016 -11.223  0.00  0.00    +0.179 C 
ATOM     55  O   UNL     1       8.401   6.534 -12.094  0.00  0.00    -0.221 OA
ATOM     56  C   UNL     1       7.937   6.638  -9.783  0.00  0.00    +0.035 C 
ATOM     57  C   UNL     1       7.624   5.370  -9.323  0.00  0.00    +0.003 C 
ATOM     58  C   UNL     1       6.085   5.037  -8.933  0.00  0.00    +0.003 C 
ATOM     59  C   UNL     1       5.427   5.901 -10.169  0.00  0.00    +0.032 C 
BRANCH  53  61
ATOM     60  C   UNL     1       4.775   5.090 -12.811  0.00  0.00    +0.174 C 
ATOM     61  O   UNL     1       5.540   6.064 -12.477  0.00  0.00    -0.351 OA
ENDBRANCH  53  61
ENDBRANCH  52  58
ENDBRANCH  50  52
ENDBRANCH   1  50
BRANCH  20  62
ATOM     62  O   UNL     1      -3.086   9.112  -3.192  0.00  0.00    -0.349 OA
ATOM     63  C   UNL     1      -2.448   9.824  -4.186  0.00  0.00    +0.174 C 
ENDBRANCH  20  62
BRANCH  35  64
ATOM     64  O   UNL     1       3.834   8.414  -0.104  0.00  0.00    -0.343 OA
ATOM     65  C   UNL     1       3.705   9.760  -0.163  0.00  0.00    +0.175 C 
ENDBRANCH  35  64
TORSDOF 6
ENDMDL
MODEL 2
REMARK VINA RESULT:      22.8      2.157      9.663
REMARK  Name = 
REMARK  6 active torsions:
REMARK  status: ('A' for Active; 'I' for Inactive)
REMARK    1  A    between atoms: O_2  and  C_3
REMARK    2  A    between atoms: C_5  and  C_6
REMARK    3  A    between atoms: C_6  and  C_7
REMARK    4  A    between atoms: C_7  and  C_9
REMARK    5  A    between atoms: C_20  and  O_21
REMARK    6  A    between atoms: C_37  and  O_38
REMARK                            x       y       z     vdW  Elec       q    Type
REMARK                         _______ _______ _______ _____ _____    ______ ____
ROOT
ATOM      1  C   UNL     1       3.811   5.686  -4.313  0.00  0.00    +0.176 C 
ATOM      2  O   UNL     1       2.874   5.567  -3.135  0.00  0.00    -0.451 OA
ATOM      3  C   UNL     1       1.687   4.906  -3.403  0.00  0.00    +0.335 C 
ATOM      4  O   UNL     1       1.378   3.775  -3.671  0.00  0.00    -0.248 OA
ATOM      5  C   UNL     1       0.763   6.125  -3.878  0.00  0.00    +0.175 C 
ATOM      6  N   UNL     1      -0.543   5.711  -3.098  0.00  0.00    -0.265 N 
ATOM      7  C   UNL     1      -0.600   4.856  -2.028  0.00  0.00    +0.094 C 
ATOM      8  C   UNL     1       0.479   5.050  -1.022  0.00  0.00    +0.022 C 
ATOM      9  C   UNL     1       1.254   6.206  -1.351  0.00  0.00    +0.004 C 
ATOM     10  C   UNL     1      -1.331   6.927  -3.092  0.00  0.00    +0.289 C 
ATOM     11  O   UNL     1      -1.969   7.383  -2.119  0.00  0.00    -0.267 OA
ATOM     12  C   UNL     1      -1.251   7.508  -4.453  0.00  0.00    +0.279 C 
ATOM     13  O   UNL     1      -1.307   8.786  -4.435  0.00  0.00    -0.281 OA
ATOM     14  C   UNL     1      -1.481   6.539  -5.445  0.00  0.00    +0.279 C 
ATOM     15  O   UNL     1      -0.767   5.946  -6.360  0.00  0.00    -0.329 OA
ATOM     16  C   UNL     1      -1.544   4.695  -6.761  0.00  0.00    +0.121 C 
ATOM     17  C   UNL     1      -2.635   5.500  -7.687  0.00  0.00    +0.030 C 
ATOM     18  C   UNL     1      -3.344   6.463  -6.969  0.00  0.00    +0.008 C 
ATOM     19  C   UNL     1      -0.543   4.358  -8.010  0.00  0.00    +0.063 C 
ATOM     20  C   UNL     1      -1.395   4.755  -9.360  0.00  0.00    +0.136 C 
ATOM     21  C   UNL     1      -0.097   4.879 -10.334  0.00  0.00    -0.017 C 
ATOM     22  C   UNL     1       1.186   5.225  -9.627  0.00  0.00    +0.029 C 
ATOM     23  C   UNL     1      -0.166   4.223 -11.455  0.00  0.00    -0.006 C 
ATOM     24  C   UNL     1      -0.790   4.573 -12.690  0.00  0.00    -0.001 C 
ATOM     25  C   UNL     1      -0.632   5.842 -13.023  0.00  0.00    -0.000 C 
ATOM     26  C   UNL     1       0.561   6.328 -13.735  0.00  0.00    -0.005 C 
ATOM     27  C   UNL     1       1.663   5.937 -13.192  0.00  0.00    -0.026 C 
ATOM     28  C   UNL     1       3.025   6.060 -14.019  0.00  0.00    +0.022 C 
ATOM     29  C   UNL     1       2.809   7.663 -14.272  0.00  0.00    +0.005 C 
ATOM     30  C   UNL     1       3.921   6.329 -12.678  0.00  0.00    +0.012 C 
ATOM     31  C   UNL     1       5.156   5.276 -12.889  0.00  0.00    +0.061 C 
ATOM     32  C   UNL     1       5.472   5.801 -14.407  0.00  0.00    +0.008 C 
ATOM     33  C   UNL     1       6.225   6.235 -12.198  0.00  0.00    +0.180 C 
ATOM     34  O   UNL     1       6.580   7.231 -12.646  0.00  0.00    -0.293 OA
ATOM     35  C   UNL     1       6.956   5.575 -10.932  0.00  0.00    +0.206 C 
ATOM     36  C   UNL     1       6.680   7.038 -10.053  0.00  0.00    +0.204 C 
ATOM     37  O   UNL     1       8.163   7.303  -9.948  0.00  0.00    -0.216 OA
ATOM     38  C   UNL     1       6.560   6.333  -8.599  0.00  0.00    -0.015 C 
ATOM     39  C   UNL     1       7.746   5.468  -8.224  0.00  0.00    +0.029 C 
ATOM     40  C   UNL     1       6.029   7.208  -7.833  0.00  0.00    -0.025 C 
ATOM     41  C   UNL     1       4.481   7.366  -7.438  0.00  0.00    +0.079 C 
ATOM     42  C   UNL     1       4.043   5.794  -7.603  0.00  0.00    +0.012 C 
ATOM     43  C   UNL     1       4.726   7.178  -5.855  0.00  0.00    +0.158 C 
ATOM     44  O   UNL     1       5.737   6.516  -5.649  0.00  0.00    -0.296 OA
ATOM     45  O   UNL     1      -2.459   5.611  -5.011  0.00  0.00    -0.187 OA
ATOM     46  C   UNL     1      -2.276   7.568  -6.446  0.00  0.00    +0.062 C 
ATOM     47  C   UNL     1      -3.423   8.065  -5.391  0.00  0.00    +0.006 C 
ATOM     48  C   UNL     1       1.151   7.034  -2.543  0.00  0.00    +0.031 C 
ATOM     49  C   UNL     1       3.512   7.166  -4.946  0.00  0.00    +0.108 C 
ENDROOT
BRANCH   1  50
ATOM     50  C   UNL     1       5.164   6.342  -3.444  0.00  0.00    +0.041 C 
ATOM     51  C   UNL     1       5.728   4.894  -2.977  0.00  0.00    +0.004 C 
BRANCH  50  52
ATOM     52  C   UNL     1       4.533   6.587  -2.012  0.00  0.00    +0.004 C 
BRANCH  52  58
ATOM     53  C   UNL     1       3.969   9.362   0.172  0.00  0.00    +0.146 C 
ATOM     54  C   UNL     1       2.833   8.205   0.762  0.00  0.00    +0.179 C 
ATOM     55  O   UNL     1       3.123   8.599   2.204  0.00  0.00    -0.221 OA
ATOM     56  C   UNL     1       3.882   6.944   0.704  0.00  0.00    +0.035 C 
ATOM     57  C   UNL     1       5.147   7.282   0.254  0.00  0.00    +0.003 C 
ATOM     58  C   UNL     1       5.322   7.793  -1.277  0.00  0.00    +0.003 C 
ATOM     59  C   UNL     1       3.926   8.664  -1.304  0.00  0.00    +0.032 C 
BRANCH  53  61
ATOM     60  C   UNL     1       3.471  11.437  -0.440  0.00  0.00    +0.174 C 
ATOM     61  O   UNL     1       2.865  10.352  -0.123  0.00  0.00    -0.351 OA
ENDBRANCH  53  61
ENDBRANCH  52  58
ENDBRANCH  50  52
ENDBRANCH   1  50
BRANCH  20  62
ATOM     62  O   UNL     1      -1.711   3.320  -9.746  0.00  0.00    -0.349 OA
ATOM     63  C   UNL     1      -0.562   2.664 -10.134  0.00  0.00    +0.174 C 
ENDBRANCH  20  62
BRANCH  35  64
ATOM     64  O   UNL     1       5.693   4.957 -10.401  0.00  0.00    -0.343 OA
ATOM     65  C   UNL     1       5.987   3.919  -9.582  0.00  0.00    +0.175 C 
ENDBRANCH  35  64
TORSDOF 6
ENDMDL
