MODEL 1
REMARK VINA RESULT:      -6.0      0.000      0.000
REMARK  Name = 
REMARK  3 active torsions:
REMARK  status: ('A' for Active; 'I' for Inactive)
REMARK    1  A    between atoms: CA_2  and  C_3
REMARK    2  A    between atoms: CA_2  and  C_12
REMARK    3  A    between atoms: C_3  and  C_4
REMARK                            x       y       z     vdW  Elec       q    Type
REMARK                         _______ _______ _______ _____ _____    ______ ____
ROOT
ATOM      1  C   UNL     1      -1.955   6.968  -4.857  0.00  0.00    -0.017 A 
ATOM      2  C   UNL     1      -0.621   7.351  -4.935  0.00  0.00    +0.041 A 
ATOM      3  C   UNL     1       0.295   6.656  -5.718  0.00  0.00    +0.234 A 
ATOM      4  O   UNL     1       1.658   6.928  -5.685  0.00  0.00    -0.283 OA
ATOM      5  C   UNL     1      -0.090   5.503  -6.392  0.00  0.00    +0.234 A 
ATOM      6  O   UNL     1       0.735   4.374  -6.369  0.00  0.00    -0.283 OA
ATOM      7  C   UNL     1      -1.458   5.334  -6.581  0.00  0.00    +0.045 A 
ATOM      8  C   UNL     1      -2.370   6.096  -5.858  0.00  0.00    -0.001 A 
ENDROOT
BRANCH   1   9
ATOM      9  C   UNL     1      -2.658   6.953  -3.533  0.00  0.00    +0.057 C 
BRANCH   9  11
ATOM     10  N   UNL     1      -2.715   4.910  -2.387  0.00  0.00    -0.120 NA
ATOM     11  CA  UNL     1      -1.605   6.048  -2.599  0.00  0.00    +0.199 C 
BRANCH  11  12
ATOM     12  C   UNL     1      -2.084   6.838  -1.240  0.00  0.00    +0.382 C 
ATOM     13  OXT UNL     1      -1.775   6.132  -0.085  0.00  0.00    -0.244 OA
ATOM     14  O   UNL     1      -1.806   8.070  -1.364  0.00  0.00    -0.244 OA
ENDBRANCH  11  12
ENDBRANCH   9  11
ENDBRANCH   1   9
TORSDOF 3
ENDMDL
MODEL 2
REMARK VINA RESULT:      -6.0      2.087      4.737
REMARK  Name = 
REMARK  3 active torsions:
REMARK  status: ('A' for Active; 'I' for Inactive)
REMARK    1  A    between atoms: CA_2  and  C_3
REMARK    2  A    between atoms: CA_2  and  C_12
REMARK    3  A    between atoms: C_3  and  C_4
REMARK                            x       y       z     vdW  Elec       q    Type
REMARK                         _______ _______ _______ _____ _____    ______ ____
ROOT
ATOM      1  C   UNL     1      -2.314   6.013  -5.423  0.00  0.00    -0.017 A 
ATOM      2  C   UNL     1      -2.677   5.242  -4.324  0.00  0.00    +0.041 A 
ATOM      3  C   UNL     1      -2.584   5.732  -3.025  0.00  0.00    +0.234 A 
ATOM      4  O   UNL     1      -2.792   4.925  -1.912  0.00  0.00    -0.283 OA
ATOM      5  C   UNL     1      -2.049   6.992  -2.787  0.00  0.00    +0.234 A 
ATOM      6  O   UNL     1      -1.130   7.174  -1.749  0.00  0.00    -0.283 OA
ATOM      7  C   UNL     1      -2.017   7.858  -3.875  0.00  0.00    +0.045 A 
ATOM      8  C   UNL     1      -2.200   7.375  -5.167  0.00  0.00    -0.001 A 
ENDROOT
BRANCH   1   9
ATOM      9  C   UNL     1      -1.516   5.407  -6.538  0.00  0.00    +0.057 C 
BRANCH   9  11
ATOM     10  N   UNL     1       0.443   5.688  -7.792  0.00  0.00    -0.120 NA
ATOM     11  CA  UNL     1      -0.027   6.140  -6.326  0.00  0.00    +0.199 C 
BRANCH  11  12
ATOM     12  C   UNL     1       0.585   4.771  -5.655  0.00  0.00    +0.382 C 
ATOM     13  OXT UNL     1       1.492   4.134  -6.492  0.00  0.00    -0.244 OA
ATOM     14  O   UNL     1       0.849   4.997  -4.434  0.00  0.00    -0.244 OA
ENDBRANCH  11  12
ENDBRANCH   9  11
ENDBRANCH   1   9
TORSDOF 3
ENDMDL
MODEL 3
REMARK VINA RESULT:      -6.0      8.614     11.250
REMARK  Name = 
REMARK  3 active torsions:
REMARK  status: ('A' for Active; 'I' for Inactive)
REMARK    1  A    between atoms: CA_2  and  C_3
REMARK    2  A    between atoms: CA_2  and  C_12
REMARK    3  A    between atoms: C_3  and  C_4
REMARK                            x       y       z     vdW  Elec       q    Type
REMARK                         _______ _______ _______ _____ _____    ______ ____
ROOT
ATOM      1  C   UNL     1       6.545   6.779 -10.565  0.00  0.00    -0.017 A 
ATOM      2  C   UNL     1       5.187   7.061 -10.662  0.00  0.00    +0.041 A 
ATOM      3  C   UNL     1       4.239   6.355  -9.928  0.00  0.00    +0.234 A 
ATOM      4  O   UNL     1       2.873   6.517 -10.130  0.00  0.00    -0.283 OA
ATOM      5  C   UNL     1       4.625   5.288  -9.126  0.00  0.00    +0.234 A 
ATOM      6  O   UNL     1       3.889   4.099  -9.146  0.00  0.00    -0.283 OA
ATOM      7  C   UNL     1       5.971   5.241  -8.777  0.00  0.00    +0.045 A 
ATOM      8  C   UNL     1       6.904   6.017  -9.458  0.00  0.00    -0.001 A 
ENDROOT
BRANCH   1   9
ATOM      9  C   UNL     1       7.393   6.723 -11.799  0.00  0.00    +0.057 C 
BRANCH   9  11
ATOM     10  N   UNL     1       7.742   4.740 -13.000  0.00  0.00    -0.120 NA
ATOM     11  CA  UNL     1       6.489   5.719 -12.787  0.00  0.00    +0.199 C 
BRANCH  11  12
ATOM     12  C   UNL     1       6.895   6.606 -14.110  0.00  0.00    +0.382 C 
ATOM     13  OXT UNL     1       6.853   5.856 -15.279  0.00  0.00    -0.244 OA
ATOM     14  O   UNL     1       6.337   7.743 -14.026  0.00  0.00    -0.244 OA
ENDBRANCH  11  12
ENDBRANCH   9  11
ENDBRANCH   1   9
TORSDOF 3
ENDMDL
MODEL 4
REMARK VINA RESULT:      -5.9      2.376      5.299
REMARK  Name = 
REMARK  3 active torsions:
REMARK  status: ('A' for Active; 'I' for Inactive)
REMARK    1  A    between atoms: CA_2  and  C_3
REMARK    2  A    between atoms: CA_2  and  C_12
REMARK    3  A    between atoms: C_3  and  C_4
REMARK                            x       y       z     vdW  Elec       q    Type
REMARK                         _______ _______ _______ _____ _____    ______ ____
ROOT
ATOM      1  C   UNL     1      -0.524   6.685  -5.056  0.00  0.00    -0.017 A 
ATOM      2  C   UNL     1      -1.126   5.590  -4.448  0.00  0.00    +0.041 A 
ATOM      3  C   UNL     1      -2.095   5.743  -3.461  0.00  0.00    +0.234 A 
ATOM      4  O   UNL     1      -2.591   4.666  -2.734  0.00  0.00    -0.283 OA
ATOM      5  C   UNL     1      -2.435   7.010  -3.002  0.00  0.00    +0.234 A 
ATOM      6  O   UNL     1      -2.572   7.240  -1.629  0.00  0.00    -0.283 OA
ATOM      7  C   UNL     1      -2.094   8.073  -3.832  0.00  0.00    +0.045 A 
ATOM      8  C   UNL     1      -1.190   7.892  -4.875  0.00  0.00    -0.001 A 
ENDROOT
BRANCH   1   9
ATOM      9  C   UNL     1       0.956   6.693  -5.298  0.00  0.00    +0.057 C 
BRANCH   9  11
ATOM     10  N   UNL     1       1.945   5.025  -6.615  0.00  0.00    -0.120 NA
ATOM     11  CA  UNL     1       1.036   6.310  -6.925  0.00  0.00    +0.199 C 
BRANCH  11  12
ATOM     12  C   UNL     1       2.360   7.263  -7.115  0.00  0.00    +0.382 C 
ATOM     13  OXT UNL     1       2.096   8.382  -7.896  0.00  0.00    -0.244 OA
ATOM     14  O   UNL     1       2.961   7.354  -6.002  0.00  0.00    -0.244 OA
ENDBRANCH  11  12
ENDBRANCH   9  11
ENDBRANCH   1   9
TORSDOF 3
ENDMDL
MODEL 5
REMARK VINA RESULT:      -5.8      7.919     10.626
REMARK  Name = 
REMARK  3 active torsions:
REMARK  status: ('A' for Active; 'I' for Inactive)
REMARK    1  A    between atoms: CA_2  and  C_3
REMARK    2  A    between atoms: CA_2  and  C_12
REMARK    3  A    between atoms: C_3  and  C_4
REMARK                            x       y       z     vdW  Elec       q    Type
REMARK                         _______ _______ _______ _____ _____    ______ ____
ROOT
ATOM      1  C   UNL     1       5.524   6.200 -10.206  0.00  0.00    -0.017 A 
ATOM      2  C   UNL     1       4.294   6.835 -10.080  0.00  0.00    +0.041 A 
ATOM      3  C   UNL     1       3.436   6.562  -9.019  0.00  0.00    +0.234 A 
ATOM      4  O   UNL     1       2.142   7.069  -8.962  0.00  0.00    -0.283 OA
ATOM      5  C   UNL     1       3.759   5.581  -8.089  0.00  0.00    +0.234 A 
ATOM      6  O   UNL     1       2.786   4.665  -7.677  0.00  0.00    -0.283 OA
ATOM      7  C   UNL     1       5.099   5.213  -8.030  0.00  0.00    +0.045 A 
ATOM      8  C   UNL     1       5.974   5.566  -9.053  0.00  0.00    -0.001 A 
ENDROOT
BRANCH   1   9
ATOM      9  C   UNL     1       5.978   5.697 -11.543  0.00  0.00    +0.057 C 
BRANCH   9  11
ATOM     10  N   UNL     1       6.742   6.850 -13.435  0.00  0.00    -0.120 NA
ATOM     11  CA  UNL     1       7.215   6.765 -11.905  0.00  0.00    +0.199 C 
BRANCH  11  12
ATOM     12  C   UNL     1       8.233   5.519 -12.238  0.00  0.00    +0.382 C 
ATOM     13  OXT UNL     1       7.709   4.650 -13.188  0.00  0.00    -0.244 OA
ATOM     14  O   UNL     1       9.416   5.971 -12.329  0.00  0.00    -0.244 OA
ENDBRANCH  11  12
ENDBRANCH   9  11
ENDBRANCH   1   9
TORSDOF 3
ENDMDL
MODEL 6
REMARK VINA RESULT:      -5.8      2.212      4.914
REMARK  Name = 
REMARK  3 active torsions:
REMARK  status: ('A' for Active; 'I' for Inactive)
REMARK    1  A    between atoms: CA_2  and  C_3
REMARK    2  A    between atoms: CA_2  and  C_12
REMARK    3  A    between atoms: C_3  and  C_4
REMARK                            x       y       z     vdW  Elec       q    Type
REMARK                         _______ _______ _______ _____ _____    ______ ____
ROOT
ATOM      1  C   UNL     1      -0.961   6.614  -5.103  0.00  0.00    -0.017 A 
ATOM      2  C   UNL     1      -1.548   5.541  -4.443  0.00  0.00    +0.041 A 
ATOM      3  C   UNL     1      -2.325   5.719  -3.303  0.00  0.00    +0.234 A 
ATOM      4  O   UNL     1      -2.787   4.650  -2.544  0.00  0.00    -0.283 OA
ATOM      5  C   UNL     1      -2.474   6.984  -2.746  0.00  0.00    +0.234 A 
ATOM      6  O   UNL     1      -2.364   7.154  -1.362  0.00  0.00    -0.283 OA
ATOM      7  C   UNL     1      -2.183   8.058  -3.581  0.00  0.00    +0.045 A 
ATOM      8  C   UNL     1      -1.481   7.860  -4.767  0.00  0.00    -0.001 A 
ENDROOT
BRANCH   1   9
ATOM      9  C   UNL     1       0.454   6.517  -5.589  0.00  0.00    +0.057 C 
BRANCH   9  11
ATOM     10  N   UNL     1       2.364   6.664  -4.238  0.00  0.00    -0.120 NA
ATOM     11  CA  UNL     1       1.166   5.605  -4.380  0.00  0.00    +0.199 C 
BRANCH  11  12
ATOM     12  C   UNL     1       2.005   4.732  -5.491  0.00  0.00    +0.382 C 
ATOM     13  OXT UNL     1       3.297   4.446  -5.070  0.00  0.00    -0.244 OA
ATOM     14  O   UNL     1       1.243   3.834  -5.964  0.00  0.00    -0.244 OA
ENDBRANCH  11  12
ENDBRANCH   9  11
ENDBRANCH   1   9
TORSDOF 3
ENDMDL
MODEL 7
REMARK VINA RESULT:      -5.7      6.461      8.309
REMARK  Name = 
REMARK  3 active torsions:
REMARK  status: ('A' for Active; 'I' for Inactive)
REMARK    1  A    between atoms: CA_2  and  C_3
REMARK    2  A    between atoms: CA_2  and  C_12
REMARK    3  A    between atoms: C_3  and  C_4
REMARK                            x       y       z     vdW  Elec       q    Type
REMARK                         _______ _______ _______ _____ _____    ______ ____
ROOT
ATOM      1  C   UNL     1       4.629   5.913  -9.676  0.00  0.00    -0.017 A 
ATOM      2  C   UNL     1       4.712   5.513 -11.005  0.00  0.00    +0.041 A 
ATOM      3  C   UNL     1       5.937   5.362 -11.648  0.00  0.00    +0.234 A 
ATOM      4  O   UNL     1       6.033   5.118 -13.013  0.00  0.00    -0.283 OA
ATOM      5  C   UNL     1       7.119   5.683 -10.991  0.00  0.00    +0.234 A 
ATOM      6  O   UNL     1       8.106   6.421 -11.653  0.00  0.00    -0.283 OA
ATOM      7  C   UNL     1       7.049   5.744  -9.603  0.00  0.00    +0.045 A 
ATOM      8  C   UNL     1       5.817   5.805  -8.960  0.00  0.00    -0.001 A 
ENDROOT
BRANCH   1   9
ATOM      9  C   UNL     1       3.610   6.930  -9.257  0.00  0.00    +0.057 C 
BRANCH   9  11
ATOM     10  N   UNL     1       1.330   6.410  -9.098  0.00  0.00    -0.120 NA
ATOM     11  CA  UNL     1       2.632   6.030  -8.240  0.00  0.00    +0.199 C 
BRANCH  11  12
ATOM     12  C   UNL     1       2.418   7.325  -7.251  0.00  0.00    +0.382 C 
ATOM     13  OXT UNL     1       3.391   7.398  -6.262  0.00  0.00    -0.244 OA
ATOM     14  O   UNL     1       2.109   8.332  -7.958  0.00  0.00    -0.244 OA
ENDBRANCH  11  12
ENDBRANCH   9  11
ENDBRANCH   1   9
TORSDOF 3
ENDMDL
MODEL 8
REMARK VINA RESULT:      -5.5      3.109      5.553
REMARK  Name = 
REMARK  3 active torsions:
REMARK  status: ('A' for Active; 'I' for Inactive)
REMARK    1  A    between atoms: CA_2  and  C_3
REMARK    2  A    between atoms: CA_2  and  C_12
REMARK    3  A    between atoms: C_3  and  C_4
REMARK                            x       y       z     vdW  Elec       q    Type
REMARK                         _______ _______ _______ _____ _____    ______ ____
ROOT
ATOM      1  C   UNL     1       0.054   5.393  -6.828  0.00  0.00    -0.017 A 
ATOM      2  C   UNL     1       0.353   5.406  -5.471  0.00  0.00    +0.041 A 
ATOM      3  C   UNL     1      -0.624   5.643  -4.509  0.00  0.00    +0.234 A 
ATOM      4  O   UNL     1      -0.316   5.815  -3.164  0.00  0.00    -0.283 OA
ATOM      5  C   UNL     1      -1.925   5.949  -4.891  0.00  0.00    +0.234 A 
ATOM      6  O   UNL     1      -2.609   6.993  -4.260  0.00  0.00    -0.283 OA
ATOM      7  C   UNL     1      -2.278   5.601  -6.191  0.00  0.00    +0.045 A 
ATOM      8  C   UNL     1      -1.300   5.278  -7.126  0.00  0.00    -0.001 A 
ENDROOT
BRANCH   1   9
ATOM      9  C   UNL     1       0.965   6.071  -7.807  0.00  0.00    +0.057 C 
BRANCH   9  11
ATOM     10  N   UNL     1       2.087   8.129  -7.772  0.00  0.00    -0.120 NA
ATOM     11  CA  UNL     1       2.029   6.863  -6.787  0.00  0.00    +0.199 C 
BRANCH  11  12
ATOM     12  C   UNL     1       3.314   6.162  -7.534  0.00  0.00    +0.382 C 
ATOM     13  OXT UNL     1       3.570   6.723  -8.779  0.00  0.00    -0.244 OA
ATOM     14  O   UNL     1       4.236   5.984  -6.680  0.00  0.00    -0.244 OA
ENDBRANCH  11  12
ENDBRANCH   9  11
ENDBRANCH   1   9
TORSDOF 3
ENDMDL
MODEL 9
REMARK VINA RESULT:      -5.5      3.213      6.016
REMARK  Name = 
REMARK  3 active torsions:
REMARK  status: ('A' for Active; 'I' for Inactive)
REMARK    1  A    between atoms: CA_2  and  C_3
REMARK    2  A    between atoms: CA_2  and  C_12
REMARK    3  A    between atoms: C_3  and  C_4
REMARK                            x       y       z     vdW  Elec       q    Type
REMARK                         _______ _______ _______ _____ _____    ______ ____
ROOT
ATOM      1  C   UNL     1      -0.621   5.338  -7.059  0.00  0.00    -0.017 A 
ATOM      2  C   UNL     1       0.264   5.647  -6.033  0.00  0.00    +0.041 A 
ATOM      3  C   UNL     1      -0.129   6.397  -4.929  0.00  0.00    +0.234 A 
ATOM      4  O   UNL     1       0.778   6.846  -3.975  0.00  0.00    -0.283 OA
ATOM      5  C   UNL     1      -1.413   6.924  -4.860  0.00  0.00    +0.234 A 
ATOM      6  O   UNL     1      -1.602   8.247  -4.445  0.00  0.00    -0.283 OA
ATOM      7  C   UNL     1      -2.360   6.337  -5.692  0.00  0.00    +0.045 A 
ATOM      8  C   UNL     1      -1.964   5.516  -6.743  0.00  0.00    -0.001 A 
ENDROOT
BRANCH   1   9
ATOM      9  C   UNL     1      -0.184   5.445  -8.489  0.00  0.00    +0.057 C 
BRANCH   9  11
ATOM     10  N   UNL     1       1.345   7.063  -9.223  0.00  0.00    -0.120 NA
ATOM     11  CA  UNL     1       1.455   5.740  -8.322  0.00  0.00    +0.199 C 
BRANCH  11  12
ATOM     12  C   UNL     1       1.785   4.813  -9.638  0.00  0.00    +0.382 C 
ATOM     13  OXT UNL     1       0.636   4.450 -10.329  0.00  0.00    -0.244 OA
ATOM     14  O   UNL     1       2.797   5.295 -10.233  0.00  0.00    -0.244 OA
ENDBRANCH  11  12
ENDBRANCH   9  11
ENDBRANCH   1   9
TORSDOF 3
ENDMDL
