MODEL 1
REMARK VINA RESULT:      -8.4      0.000      0.000
REMARK  Name = 
REMARK  0 active torsions:
REMARK  status: ('A' for Active; 'I' for Inactive)
REMARK                            x       y       z     vdW  Elec       q    Type
REMARK                         _______ _______ _______ _____ _____    ______ ____
ROOT
ATOM      1  C   UNL     1       1.715   7.013  -7.301  0.00  0.00    +0.090 C 
ATOM      2  N   UNL     1       2.291   5.987  -7.706  0.00  0.00    -0.269 NA
ATOM      3  C   UNL     1       1.884   4.854  -6.657  0.00  0.00    +0.084 C 
ATOM      4  C   UNL     1       0.286   5.259  -6.831  0.00  0.00    +0.047 C 
ATOM      5  C   UNL     1      -0.296   5.470  -5.538  0.00  0.00    -0.017 A 
ATOM      6  C   UNL     1       0.186   5.134  -4.302  0.00  0.00    +0.038 A 
ATOM      7  C   UNL     1       1.654   5.271  -4.221  0.00  0.00    -0.000 A 
ATOM      8  C   UNL     1       2.280   5.279  -3.007  0.00  0.00    -0.000 A 
ATOM      9  C   UNL     1       3.636   5.511  -2.975  0.00  0.00    -0.000 A 
ATOM     10  C   UNL     1       4.240   5.992  -4.100  0.00  0.00    -0.004 A 
ATOM     11  C   UNL     1       3.552   6.047  -5.309  0.00  0.00    -0.023 A 
ATOM     12  C   UNL     1       4.423   6.117  -6.500  0.00  0.00    +0.043 C 
ATOM     13  C   UNL     1      -0.617   5.322  -3.180  0.00  0.00    +0.234 A 
ATOM     14  O   UNL     1      -0.025   4.970  -1.975  0.00  0.00    -0.283 OA
ATOM     15  C   UNL     1      -1.993   5.493  -3.283  0.00  0.00    +0.234 A 
ATOM     16  O   UNL     1      -2.829   4.895  -2.361  0.00  0.00    -0.283 OA
ATOM     17  C   UNL     1      -2.422   5.954  -4.516  0.00  0.00    +0.045 A 
ATOM     18  C   UNL     1      -1.550   6.070  -5.587  0.00  0.00    -0.001 A 
ATOM     19  C   UNL     1       2.174   5.846  -5.381  0.00  0.00    -0.011 A 
ATOM     20  C   UNL     1       3.708   5.951  -7.794  0.00  0.00    +0.077 C 
ENDROOT
TORSDOF 0
ENDMDL
MODEL 2
REMARK VINA RESULT:      -8.4      5.428      8.458
REMARK  Name = 
REMARK  0 active torsions:
REMARK  status: ('A' for Active; 'I' for Inactive)
REMARK                            x       y       z     vdW  Elec       q    Type
REMARK                         _______ _______ _______ _____ _____    ______ ____
ROOT
ATOM      1  C   UNL     1       3.148   6.785  -8.051  0.00  0.00    +0.090 C 
ATOM      2  N   UNL     1       2.443   5.769  -7.915  0.00  0.00    -0.269 NA
ATOM      3  C   UNL     1       2.932   4.781  -9.071  0.00  0.00    +0.084 C 
ATOM      4  C   UNL     1       4.506   4.996  -8.596  0.00  0.00    +0.047 C 
ATOM      5  C   UNL     1       5.302   5.350  -9.735  0.00  0.00    -0.017 A 
ATOM      6  C   UNL     1       5.003   5.261 -11.067  0.00  0.00    +0.038 A 
ATOM      7  C   UNL     1       3.581   5.551 -11.339  0.00  0.00    -0.000 A 
ATOM      8  C   UNL     1       3.162   5.811 -12.612  0.00  0.00    -0.000 A 
ATOM      9  C   UNL     1       1.849   6.176 -12.804  0.00  0.00    -0.000 A 
ATOM     10  C   UNL     1       1.107   6.530 -11.715  0.00  0.00    -0.004 A 
ATOM     11  C   UNL     1       1.593   6.327 -10.427  0.00  0.00    -0.023 A 
ATOM     12  C   UNL     1       0.548   6.294  -9.383  0.00  0.00    +0.043 C 
ATOM     13  C   UNL     1       5.988   5.544 -12.009  0.00  0.00    +0.234 A 
ATOM     14  O   UNL     1       5.575   5.445 -13.331  0.00  0.00    -0.283 OA
ATOM     15  C   UNL     1       7.338   5.562 -11.677  0.00  0.00    +0.234 A 
ATOM     16  O   UNL     1       8.267   5.038 -12.554  0.00  0.00    -0.283 OA
ATOM     17  C   UNL     1       7.594   5.780 -10.334  0.00  0.00    +0.045 A 
ATOM     18  C   UNL     1       6.571   5.810  -9.400  0.00  0.00    -0.001 A 
ATOM     19  C   UNL     1       2.923   5.985 -10.187  0.00  0.00    -0.011 A 
ATOM     20  C   UNL     1       1.031   5.858  -8.044  0.00  0.00    +0.077 C 
ENDROOT
TORSDOF 0
ENDMDL
MODEL 3
REMARK VINA RESULT:      -8.3      1.983      4.698
REMARK  Name = 
REMARK  0 active torsions:
REMARK  status: ('A' for Active; 'I' for Inactive)
REMARK                            x       y       z     vdW  Elec       q    Type
REMARK                         _______ _______ _______ _____ _____    ______ ____
ROOT
ATOM      1  C   UNL     1       0.485   4.694  -5.941  0.00  0.00    +0.090 C 
ATOM      2  N   UNL     1       0.018   5.803  -6.259  0.00  0.00    -0.269 NA
ATOM      3  C   UNL     1       0.282   6.732  -4.986  0.00  0.00    +0.084 C 
ATOM      4  C   UNL     1       1.873   6.265  -4.969  0.00  0.00    +0.047 C 
ATOM      5  C   UNL     1       2.225   5.820  -3.652  0.00  0.00    -0.017 A 
ATOM      6  C   UNL     1       1.556   5.986  -2.470  0.00  0.00    +0.038 A 
ATOM      7  C   UNL     1       0.091   5.925  -2.647  0.00  0.00    -0.000 A 
ATOM      8  C   UNL     1      -0.728   5.763  -1.566  0.00  0.00    -0.000 A 
ATOM      9  C   UNL     1      -2.077   5.610  -1.787  0.00  0.00    -0.000 A 
ATOM     10  C   UNL     1      -2.502   5.348  -3.058  0.00  0.00    -0.004 A 
ATOM     11  C   UNL     1      -1.624   5.443  -4.134  0.00  0.00    -0.023 A 
ATOM     12  C   UNL     1      -2.287   5.612  -5.443  0.00  0.00    +0.043 C 
ATOM     13  C   UNL     1       2.155   5.576  -1.282  0.00  0.00    +0.234 A 
ATOM     14  O   UNL     1       1.383   5.770  -0.144  0.00  0.00    -0.283 OA
ATOM     15  C   UNL     1       3.523   5.342  -1.192  0.00  0.00    +0.234 A 
ATOM     16  O   UNL     1       4.212   5.737  -0.063  0.00  0.00    -0.283 OA
ATOM     17  C   UNL     1       4.134   5.056  -2.400  0.00  0.00    +0.045 A 
ATOM     18  C   UNL     1       3.449   5.162  -3.600  0.00  0.00    -0.001 A 
ATOM     19  C   UNL     1      -0.248   5.570  -3.953  0.00  0.00    -0.011 A 
ATOM     20  C   UNL     1      -1.362   5.937  -6.563  0.00  0.00    +0.077 C 
ENDROOT
TORSDOF 0
ENDMDL
MODEL 4
REMARK VINA RESULT:      -8.2      3.116      5.547
REMARK  Name = 
REMARK  0 active torsions:
REMARK  status: ('A' for Active; 'I' for Inactive)
REMARK                            x       y       z     vdW  Elec       q    Type
REMARK                         _______ _______ _______ _____ _____    ______ ____
ROOT
ATOM      1  C   UNL     1       1.943   6.806  -4.121  0.00  0.00    +0.090 C 
ATOM      2  N   UNL     1       1.845   5.653  -3.663  0.00  0.00    -0.269 NA
ATOM      3  C   UNL     1       1.489   4.745  -4.929  0.00  0.00    +0.084 C 
ATOM      4  C   UNL     1       2.761   5.403  -5.765  0.00  0.00    +0.047 C 
ATOM      5  C   UNL     1       2.302   5.867  -7.041  0.00  0.00    -0.017 A 
ATOM      6  C   UNL     1       1.128   5.604  -7.692  0.00  0.00    +0.038 A 
ATOM      7  C   UNL     1      -0.011   5.488  -6.760  0.00  0.00    -0.000 A 
ATOM      8  C   UNL     1      -1.293   5.532  -7.229  0.00  0.00    -0.000 A 
ATOM      9  C   UNL     1      -2.322   5.523  -6.316  0.00  0.00    -0.000 A 
ATOM     10  C   UNL     1      -2.028   5.749  -5.002  0.00  0.00    -0.004 A 
ATOM     11  C   UNL     1      -0.707   5.778  -4.565  0.00  0.00    -0.023 A 
ATOM     12  C   UNL     1      -0.543   5.549  -3.115  0.00  0.00    +0.043 C 
ATOM     13  C   UNL     1       0.949   6.066  -8.994  0.00  0.00    +0.234 A 
ATOM     14  O   UNL     1      -0.285   5.762  -9.554  0.00  0.00    -0.283 OA
ATOM     15  C   UNL     1       2.021   6.464  -9.785  0.00  0.00    +0.234 A 
ATOM     16  O   UNL     1       2.039   6.139 -11.127  0.00  0.00    -0.283 OA
ATOM     17  C   UNL     1       3.147   6.840  -9.075  0.00  0.00    +0.045 A 
ATOM     18  C   UNL     1       3.226   6.669  -7.702  0.00  0.00    -0.001 A 
ATOM     19  C   UNL     1       0.364   5.817  -5.457  0.00  0.00    -0.011 A 
ATOM     20  C   UNL     1       0.866   5.357  -2.678  0.00  0.00    +0.077 C 
ENDROOT
TORSDOF 0
ENDMDL
MODEL 5
REMARK VINA RESULT:      -8.2      1.280      3.977
REMARK  Name = 
REMARK  0 active torsions:
REMARK  status: ('A' for Active; 'I' for Inactive)
REMARK                            x       y       z     vdW  Elec       q    Type
REMARK                         _______ _______ _______ _____ _____    ______ ____
ROOT
ATOM      1  C   UNL     1       2.430   4.383  -7.469  0.00  0.00    +0.090 C 
ATOM      2  N   UNL     1       2.287   5.478  -8.042  0.00  0.00    -0.269 NA
ATOM      3  C   UNL     1       1.941   6.507  -6.869  0.00  0.00    +0.084 C 
ATOM      4  C   UNL     1       3.254   5.973  -6.008  0.00  0.00    +0.047 C 
ATOM      5  C   UNL     1       2.845   5.635  -4.677  0.00  0.00    -0.017 A 
ATOM      6  C   UNL     1       1.683   5.937  -4.021  0.00  0.00    +0.038 A 
ATOM      7  C   UNL     1       0.515   5.925  -4.923  0.00  0.00    -0.000 A 
ATOM      8  C   UNL     1      -0.751   5.899  -4.412  0.00  0.00    -0.000 A 
ATOM      9  C   UNL     1      -1.805   5.786  -5.289  0.00  0.00    -0.000 A 
ATOM     10  C   UNL     1      -1.542   5.429  -6.580  0.00  0.00    -0.004 A 
ATOM     11  C   UNL     1      -0.234   5.386  -7.053  0.00  0.00    -0.023 A 
ATOM     12  C   UNL     1      -0.119   5.465  -8.524  0.00  0.00    +0.043 C 
ATOM     13  C   UNL     1       1.555   5.612  -2.673  0.00  0.00    +0.234 A 
ATOM     14  O   UNL     1       0.330   5.942  -2.109  0.00  0.00    -0.283 OA
ATOM     15  C   UNL     1       2.659   5.326  -1.878  0.00  0.00    +0.234 A 
ATOM     16  O   UNL     1       2.707   5.792  -0.579  0.00  0.00    -0.283 OA
ATOM     17  C   UNL     1       3.775   4.905  -2.580  0.00  0.00    +0.045 A 
ATOM     18  C   UNL     1       3.810   4.931  -3.964  0.00  0.00    -0.001 A 
ATOM     19  C   UNL     1       0.862   5.469  -6.196  0.00  0.00    -0.011 A 
ATOM     20  C   UNL     1       1.272   5.644  -9.022  0.00  0.00    +0.077 C 
ENDROOT
TORSDOF 0
ENDMDL
MODEL 6
REMARK VINA RESULT:      -8.2      5.043      7.093
REMARK  Name = 
REMARK  0 active torsions:
REMARK  status: ('A' for Active; 'I' for Inactive)
REMARK                            x       y       z     vdW  Elec       q    Type
REMARK                         _______ _______ _______ _____ _____    ______ ____
ROOT
ATOM      1  C   UNL     1       1.817   4.892  -7.892  0.00  0.00    +0.090 C 
ATOM      2  N   UNL     1       2.062   5.990  -7.360  0.00  0.00    -0.269 NA
ATOM      3  C   UNL     1       2.581   6.912  -8.557  0.00  0.00    +0.084 C 
ATOM      4  C   UNL     1       1.256   6.493  -9.461  0.00  0.00    +0.047 C 
ATOM      5  C   UNL     1       1.683   6.044 -10.753  0.00  0.00    -0.017 A 
ATOM      6  C   UNL     1       2.902   6.176 -11.361  0.00  0.00    +0.038 A 
ATOM      7  C   UNL     1       4.017   6.073 -10.399  0.00  0.00    -0.000 A 
ATOM      8  C   UNL     1       5.294   5.874 -10.842  0.00  0.00    -0.000 A 
ATOM      9  C   UNL     1       6.285   5.682  -9.907  0.00  0.00    -0.000 A 
ATOM     10  C   UNL     1       5.922   5.422  -8.618  0.00  0.00    -0.004 A 
ATOM     11  C   UNL     1       4.597   5.556  -8.212  0.00  0.00    -0.023 A 
ATOM     12  C   UNL     1       4.424   5.719  -6.754  0.00  0.00    +0.043 C 
ATOM     13  C   UNL     1       3.054   5.772 -12.685  0.00  0.00    +0.234 A 
ATOM     14  O   UNL     1       4.334   5.929 -13.198  0.00  0.00    -0.283 OA
ATOM     15  C   UNL     1       1.961   5.578 -13.523  0.00  0.00    +0.234 A 
ATOM     16  O   UNL     1       2.030   5.982 -14.842  0.00  0.00    -0.283 OA
ATOM     17  C   UNL     1       0.771   5.325 -12.863  0.00  0.00    +0.045 A 
ATOM     18  C   UNL     1       0.675   5.424 -11.484  0.00  0.00    -0.001 A 
ATOM     19  C   UNL     1       3.560   5.723  -9.128  0.00  0.00    -0.011 A 
ATOM     20  C   UNL     1       3.042   6.085  -6.337  0.00  0.00    +0.077 C 
ENDROOT
TORSDOF 0
ENDMDL
MODEL 7
REMARK VINA RESULT:      -7.9      1.544      3.255
REMARK  Name = 
REMARK  0 active torsions:
REMARK  status: ('A' for Active; 'I' for Inactive)
REMARK                            x       y       z     vdW  Elec       q    Type
REMARK                         _______ _______ _______ _____ _____    ______ ____
ROOT
ATOM      1  C   UNL     1       3.206   4.695  -4.900  0.00  0.00    +0.090 C 
ATOM      2  N   UNL     1       3.672   5.763  -5.337  0.00  0.00    -0.269 NA
ATOM      3  C   UNL     1       2.399   6.705  -5.547  0.00  0.00    +0.084 C 
ATOM      4  C   UNL     1       1.893   6.373  -4.003  0.00  0.00    +0.047 C 
ATOM      5  C   UNL     1       0.523   5.953  -4.032  0.00  0.00    -0.017 A 
ATOM      6  C   UNL     1      -0.399   6.057  -5.038  0.00  0.00    +0.038 A 
ATOM      7  C   UNL     1       0.211   5.874  -6.371  0.00  0.00    -0.000 A 
ATOM      8  C   UNL     1      -0.576   5.639  -7.462  0.00  0.00    -0.000 A 
ATOM      9  C   UNL     1       0.039   5.374  -8.664  0.00  0.00    -0.000 A 
ATOM     10  C   UNL     1       1.373   5.084  -8.661  0.00  0.00    -0.004 A 
ATOM     11  C   UNL     1       2.136   5.257  -7.510  0.00  0.00    -0.023 A 
ATOM     12  C   UNL     1       3.587   5.376  -7.758  0.00  0.00    +0.043 C 
ATOM     13  C   UNL     1      -1.721   5.694  -4.795  0.00  0.00    +0.234 A 
ATOM     14  O   UNL     1      -2.568   5.817  -5.888  0.00  0.00    -0.283 OA
ATOM     15  C   UNL     1      -2.224   5.575  -3.504  0.00  0.00    +0.234 A 
ATOM     16  O   UNL     1      -3.500   6.022  -3.223  0.00  0.00    -0.283 OA
ATOM     17  C   UNL     1      -1.263   5.346  -2.535  0.00  0.00    +0.045 A 
ATOM     18  C   UNL     1       0.089   5.400  -2.831  0.00  0.00    -0.001 A 
ATOM     19  C   UNL     1       1.551   5.498  -6.268  0.00  0.00    -0.011 A 
ATOM     20  C   UNL     1       4.382   5.781  -6.567  0.00  0.00    +0.077 C 
ENDROOT
TORSDOF 0
ENDMDL
MODEL 8
REMARK VINA RESULT:      -7.8      3.620      5.913
REMARK  Name = 
REMARK  0 active torsions:
REMARK  status: ('A' for Active; 'I' for Inactive)
REMARK                            x       y       z     vdW  Elec       q    Type
REMARK                         _______ _______ _______ _____ _____    ______ ____
ROOT
ATOM      1  C   UNL     1       3.472   6.850  -5.952  0.00  0.00    +0.090 C 
ATOM      2  N   UNL     1       3.490   5.748  -5.374  0.00  0.00    -0.269 NA
ATOM      3  C   UNL     1       2.869   4.725  -6.432  0.00  0.00    +0.084 C 
ATOM      4  C   UNL     1       3.916   5.282  -7.592  0.00  0.00    +0.047 C 
ATOM      5  C   UNL     1       3.179   5.626  -8.772  0.00  0.00    -0.017 A 
ATOM      6  C   UNL     1       1.892   5.315  -9.116  0.00  0.00    +0.038 A 
ATOM      7  C   UNL     1       0.990   5.305  -7.947  0.00  0.00    -0.000 A 
ATOM      8  C   UNL     1      -0.364   5.319  -8.120  0.00  0.00    -0.000 A 
ATOM      9  C   UNL     1      -1.163   5.412  -7.003  0.00  0.00    -0.000 A 
ATOM     10  C   UNL     1      -0.585   5.762  -5.818  0.00  0.00    -0.004 A 
ATOM     11  C   UNL     1       0.800   5.817  -5.691  0.00  0.00    -0.023 A 
ATOM     12  C   UNL     1       1.285   5.728  -4.298  0.00  0.00    +0.043 C 
ATOM     13  C   UNL     1       1.422   5.650 -10.384  0.00  0.00    +0.234 A 
ATOM     14  O   UNL     1       0.098   5.309 -10.622  0.00  0.00    -0.283 OA
ATOM     15  C   UNL     1       2.286   5.956 -11.429  0.00  0.00    +0.234 A 
ATOM     16  O   UNL     1       2.008   5.501 -12.703  0.00  0.00    -0.283 OA
ATOM     17  C   UNL     1       3.539   6.385 -11.029  0.00  0.00    +0.045 A 
ATOM     18  C   UNL     1       3.925   6.348  -9.698  0.00  0.00    -0.001 A 
ATOM     19  C   UNL     1       1.644   5.755  -6.799  0.00  0.00    -0.011 A 
ATOM     20  C   UNL     1       2.759   5.561  -4.171  0.00  0.00    +0.077 C 
ENDROOT
TORSDOF 0
ENDMDL
MODEL 9
REMARK VINA RESULT:      -7.8      5.980      7.415
REMARK  Name = 
REMARK  0 active torsions:
REMARK  status: ('A' for Active; 'I' for Inactive)
REMARK                            x       y       z     vdW  Elec       q    Type
REMARK                         _______ _______ _______ _____ _____    ______ ____
ROOT
ATOM      1  C   UNL     1       6.183   7.198 -13.274  0.00  0.00    +0.090 C 
ATOM      2  N   UNL     1       6.786   6.134 -13.503  0.00  0.00    -0.269 NA
ATOM      3  C   UNL     1       5.945   5.019 -12.727  0.00  0.00    +0.084 C 
ATOM      4  C   UNL     1       4.551   5.570 -13.436  0.00  0.00    +0.047 C 
ATOM      5  C   UNL     1       3.563   5.803 -12.425  0.00  0.00    -0.017 A 
ATOM      6  C   UNL     1       3.543   5.398 -11.118  0.00  0.00    +0.038 A 
ATOM      7  C   UNL     1       4.890   5.401 -10.514  0.00  0.00    -0.000 A 
ATOM      8  C   UNL     1       5.038   5.326  -9.158  0.00  0.00    -0.000 A 
ATOM      9  C   UNL     1       6.306   5.434  -8.635  0.00  0.00    -0.000 A 
ATOM     10  C   UNL     1       7.308   5.883  -9.445  0.00  0.00    -0.004 A 
ATOM     11  C   UNL     1       7.105   6.026 -10.814  0.00  0.00    -0.023 A 
ATOM     12  C   UNL     1       8.348   6.044 -11.613  0.00  0.00    +0.043 C 
ATOM     13  C   UNL     1       2.408   5.634 -10.346  0.00  0.00    +0.234 A 
ATOM     14  O   UNL     1       2.500   5.203  -9.030  0.00  0.00    -0.283 OA
ATOM     15  C   UNL     1       1.177   5.930 -10.922  0.00  0.00    +0.234 A 
ATOM     16  O   UNL     1       0.024   5.389 -10.390  0.00  0.00    -0.283 OA
ATOM     17  C   UNL     1       1.256   6.455 -12.201  0.00  0.00    +0.045 A 
ATOM     18  C   UNL     1       2.460   6.515 -12.884  0.00  0.00    -0.001 A 
ATOM     19  C   UNL     1       5.834   5.953 -11.382  0.00  0.00    -0.011 A 
ATOM     20  C   UNL     1       8.133   5.972 -13.084  0.00  0.00    +0.077 C 
ENDROOT
TORSDOF 0
ENDMDL
