MODEL 1
REMARK VINA RESULT:      -5.0      0.000      0.000
REMARK  Name = 
REMARK  1 active torsions:
REMARK  status: ('A' for Active; 'I' for Inactive)
REMARK    1  A    between atoms: C_7  and  C_8
REMARK                            x       y       z     vdW  Elec       q    Type
REMARK                         _______ _______ _______ _____ _____    ______ ____
ROOT
ATOM      1  C   UNL     1      -1.769   8.249  -4.164  0.00  0.00    +0.408 C 
ATOM      2  N   UNL     1      -1.481   7.137  -5.043  0.00  0.00    -0.157 N 
ATOM      3  C   UNL     1      -2.348   6.096  -5.027  0.00  0.00    +0.249 A 
ATOM      4  C   UNL     1      -2.344   5.283  -6.154  0.00  0.00    +0.071 A 
ATOM      5  C   UNL     1      -1.164   5.216  -6.891  0.00  0.00    +0.012 A 
ATOM      6  C   UNL     1      -0.025   5.877  -6.441  0.00  0.00    +0.076 A 
ATOM      7  C   UNL     1      -0.298   7.017  -5.693  0.00  0.00    +0.290 A 
ENDROOT
BRANCH   3   8
ATOM      8  C   UNL     1      -3.083   5.732  -3.809  0.00  0.00    +0.214 C 
ATOM      9  N   UNL     1      -2.408   5.010  -2.971  0.00  0.00    -0.021 NA
ATOM     10  O   UNL     1      -2.669   4.908  -1.644  0.00  0.00    -0.143 OA
ENDBRANCH   3   8
TORSDOF 1
ENDMDL
MODEL 2
REMARK VINA RESULT:      -4.8      1.884      2.974
REMARK  Name = 
REMARK  1 active torsions:
REMARK  status: ('A' for Active; 'I' for Inactive)
REMARK    1  A    between atoms: C_7  and  C_8
REMARK                            x       y       z     vdW  Elec       q    Type
REMARK                         _______ _______ _______ _____ _____    ______ ____
ROOT
ATOM      1  C   UNL     1       1.138   4.760  -6.502  0.00  0.00    +0.408 C 
ATOM      2  N   UNL     1      -0.122   5.353  -6.110  0.00  0.00    -0.157 N 
ATOM      3  C   UNL     1      -0.194   5.888  -4.867  0.00  0.00    +0.249 A 
ATOM      4  C   UNL     1      -1.192   6.835  -4.668  0.00  0.00    +0.071 A 
ATOM      5  C   UNL     1      -2.325   6.749  -5.474  0.00  0.00    +0.012 A 
ATOM      6  C   UNL     1      -2.462   5.693  -6.369  0.00  0.00    +0.076 A 
ATOM      7  C   UNL     1      -1.252   5.197  -6.841  0.00  0.00    +0.290 A 
ENDROOT
BRANCH   3   8
ATOM      8  C   UNL     1       0.593   5.342  -3.753  0.00  0.00    +0.214 C 
ATOM      9  N   UNL     1      -0.041   5.294  -2.623  0.00  0.00    -0.021 NA
ATOM     10  O   UNL     1       0.272   4.474  -1.590  0.00  0.00    -0.143 OA
ENDBRANCH   3   8
TORSDOF 1
ENDMDL
MODEL 3
REMARK VINA RESULT:      -4.8      3.255      4.302
REMARK  Name = 
REMARK  1 active torsions:
REMARK  status: ('A' for Active; 'I' for Inactive)
REMARK    1  A    between atoms: C_7  and  C_8
REMARK                            x       y       z     vdW  Elec       q    Type
REMARK                         _______ _______ _______ _____ _____    ______ ____
ROOT
ATOM      1  C   UNL     1       0.986   5.640  -3.714  0.00  0.00    +0.408 C 
ATOM      2  N   UNL     1      -0.052   5.676  -4.720  0.00  0.00    -0.157 N 
ATOM      3  C   UNL     1       0.340   5.829  -6.008  0.00  0.00    +0.249 A 
ATOM      4  C   UNL     1      -0.564   5.404  -6.975  0.00  0.00    +0.071 A 
ATOM      5  C   UNL     1      -1.915   5.412  -6.635  0.00  0.00    +0.012 A 
ATOM      6  C   UNL     1      -2.319   5.917  -5.403  0.00  0.00    +0.076 A 
ATOM      7  C   UNL     1      -1.365   5.777  -4.401  0.00  0.00    +0.290 A 
ENDROOT
BRANCH   3   8
ATOM      8  C   UNL     1       1.547   6.591  -6.355  0.00  0.00    +0.214 C 
ATOM      9  N   UNL     1       1.477   7.219  -7.487  0.00  0.00    -0.021 NA
ATOM     10  O   UNL     1       2.229   8.294  -7.828  0.00  0.00    -0.143 OA
ENDBRANCH   3   8
TORSDOF 1
ENDMDL
MODEL 4
REMARK VINA RESULT:      -4.8      8.484      9.910
REMARK  Name = 
REMARK  1 active torsions:
REMARK  status: ('A' for Active; 'I' for Inactive)
REMARK    1  A    between atoms: C_7  and  C_8
REMARK                            x       y       z     vdW  Elec       q    Type
REMARK                         _______ _______ _______ _____ _____    ______ ____
ROOT
ATOM      1  C   UNL     1       2.980   5.995 -11.830  0.00  0.00    +0.408 C 
ATOM      2  N   UNL     1       3.795   5.603 -10.701  0.00  0.00    -0.157 N 
ATOM      3  C   UNL     1       5.140   5.662 -10.859  0.00  0.00    +0.249 A 
ATOM      4  C   UNL     1       5.888   5.745  -9.691  0.00  0.00    +0.071 A 
ATOM      5  C   UNL     1       5.330   5.206  -8.534  0.00  0.00    +0.012 A 
ATOM      6  C   UNL     1       4.111   4.539  -8.597  0.00  0.00    +0.076 A 
ATOM      7  C   UNL     1       3.273   4.994  -9.609  0.00  0.00    +0.290 A 
ENDROOT
BRANCH   3   8
ATOM      8  C   UNL     1       5.766   5.434 -12.168  0.00  0.00    +0.214 C 
ATOM      9  N   UNL     1       7.055   5.299 -12.129  0.00  0.00    -0.021 NA
ATOM     10  O   UNL     1       7.801   4.674 -13.073  0.00  0.00    -0.143 OA
ENDBRANCH   3   8
TORSDOF 1
ENDMDL
MODEL 5
REMARK VINA RESULT:      -4.7      1.304      1.763
REMARK  Name = 
REMARK  1 active torsions:
REMARK  status: ('A' for Active; 'I' for Inactive)
REMARK    1  A    between atoms: C_7  and  C_8
REMARK                            x       y       z     vdW  Elec       q    Type
REMARK                         _______ _______ _______ _____ _____    ______ ____
ROOT
ATOM      1  C   UNL     1       1.309   6.498  -4.517  0.00  0.00    +0.408 C 
ATOM      2  N   UNL     1       0.128   6.115  -5.260  0.00  0.00    -0.157 N 
ATOM      3  C   UNL     1      -1.026   5.986  -4.562  0.00  0.00    +0.249 A 
ATOM      4  C   UNL     1      -2.199   6.084  -5.301  0.00  0.00    +0.071 A 
ATOM      5  C   UNL     1      -2.138   5.736  -6.648  0.00  0.00    +0.012 A 
ATOM      6  C   UNL     1      -0.958   5.226  -7.181  0.00  0.00    +0.076 A 
ATOM      7  C   UNL     1       0.189   5.686  -6.544  0.00  0.00    +0.290 A 
ENDROOT
BRANCH   3   8
ATOM      8  C   UNL     1      -1.026   5.555  -3.158  0.00  0.00    +0.214 C 
ATOM      9  N   UNL     1      -2.157   5.722  -2.546  0.00  0.00    -0.021 NA
ATOM     10  O   UNL     1      -2.552   5.044  -1.441  0.00  0.00    -0.143 OA
ENDBRANCH   3   8
TORSDOF 1
ENDMDL
MODEL 6
REMARK VINA RESULT:      -4.6      7.459      8.881
REMARK  Name = 
REMARK  1 active torsions:
REMARK  status: ('A' for Active; 'I' for Inactive)
REMARK    1  A    between atoms: C_7  and  C_8
REMARK                            x       y       z     vdW  Elec       q    Type
REMARK                         _______ _______ _______ _____ _____    ______ ____
ROOT
ATOM      1  C   UNL     1       3.645   6.135 -11.335  0.00  0.00    +0.408 C 
ATOM      2  N   UNL     1       4.992   6.384 -10.872  0.00  0.00    -0.157 N 
ATOM      3  C   UNL     1       5.339   5.866  -9.669  0.00  0.00    +0.249 A 
ATOM      4  C   UNL     1       6.701   5.699  -9.447  0.00  0.00    +0.071 A 
ATOM      5  C   UNL     1       7.570   6.540 -10.137  0.00  0.00    +0.012 A 
ATOM      6  C   UNL     1       7.062   7.557 -10.940  0.00  0.00    +0.076 A 
ATOM      7  C   UNL     1       5.815   7.271 -11.484  0.00  0.00    +0.290 A 
ENDROOT
BRANCH   3   8
ATOM      8  C   UNL     1       4.350   5.699  -8.595  0.00  0.00    +0.214 C 
ATOM      9  N   UNL     1       4.860   5.415  -7.438  0.00  0.00    -0.021 NA
ATOM     10  O   UNL     1       4.251   5.631  -6.246  0.00  0.00    -0.143 OA
ENDBRANCH   3   8
TORSDOF 1
ENDMDL
MODEL 7
REMARK VINA RESULT:      -4.2      4.707      5.881
REMARK  Name = 
REMARK  1 active torsions:
REMARK  status: ('A' for Active; 'I' for Inactive)
REMARK    1  A    between atoms: C_7  and  C_8
REMARK                            x       y       z     vdW  Elec       q    Type
REMARK                         _______ _______ _______ _____ _____    ______ ____
ROOT
ATOM      1  C   UNL     1       2.780   4.252  -8.953  0.00  0.00    +0.408 C 
ATOM      2  N   UNL     1       1.780   4.613  -7.973  0.00  0.00    -0.157 N 
ATOM      3  C   UNL     1       0.796   5.454  -8.375  0.00  0.00    +0.249 A 
ATOM      4  C   UNL     1      -0.373   5.427  -7.624  0.00  0.00    +0.071 A 
ATOM      5  C   UNL     1      -0.269   5.039  -6.290  0.00  0.00    +0.012 A 
ATOM      6  C   UNL     1       0.982   4.783  -5.737  0.00  0.00    +0.076 A 
ATOM      7  C   UNL     1       1.917   4.320  -6.657  0.00  0.00    +0.290 A 
ENDROOT
BRANCH   3   8
ATOM      8  C   UNL     1       1.036   6.476  -9.402  0.00  0.00    +0.214 C 
ATOM      9  N   UNL     1       0.154   6.497 -10.353  0.00  0.00    -0.021 NA
ATOM     10  O   UNL     1      -0.106   7.563 -11.149  0.00  0.00    -0.143 OA
ENDBRANCH   3   8
TORSDOF 1
ENDMDL
MODEL 8
REMARK VINA RESULT:      -4.2      2.672      3.713
REMARK  Name = 
REMARK  1 active torsions:
REMARK  status: ('A' for Active; 'I' for Inactive)
REMARK    1  A    between atoms: C_7  and  C_8
REMARK                            x       y       z     vdW  Elec       q    Type
REMARK                         _______ _______ _______ _____ _____    ______ ____
ROOT
ATOM      1  C   UNL     1       0.164   6.716  -4.881  0.00  0.00    +0.408 C 
ATOM      2  N   UNL     1      -0.889   6.204  -4.031  0.00  0.00    -0.157 N 
ATOM      3  C   UNL     1      -0.550   5.863  -2.764  0.00  0.00    +0.249 A 
ATOM      4  C   UNL     1      -1.590   5.827  -1.843  0.00  0.00    +0.071 A 
ATOM      5  C   UNL     1      -2.868   5.570  -2.332  0.00  0.00    +0.012 A 
ATOM      6  C   UNL     1      -3.050   5.275  -3.680  0.00  0.00    +0.076 A 
ATOM      7  C   UNL     1      -2.108   5.864  -4.515  0.00  0.00    +0.290 A 
ENDROOT
BRANCH   3   8
ATOM      8  C   UNL     1       0.791   5.357  -2.441  0.00  0.00    +0.214 C 
ATOM      9  N   UNL     1       0.988   5.129  -1.180  0.00  0.00    -0.021 NA
ATOM     10  O   UNL     1       1.927   4.288  -0.679  0.00  0.00    -0.143 OA
ENDBRANCH   3   8
TORSDOF 1
ENDMDL
MODEL 9
REMARK VINA RESULT:      -4.0      3.085      4.362
REMARK  Name = 
REMARK  1 active torsions:
REMARK  status: ('A' for Active; 'I' for Inactive)
REMARK    1  A    between atoms: C_7  and  C_8
REMARK                            x       y       z     vdW  Elec       q    Type
REMARK                         _______ _______ _______ _____ _____    ______ ____
ROOT
ATOM      1  C   UNL     1       0.557   5.110  -1.157  0.00  0.00    +0.408 C 
ATOM      2  N   UNL     1      -0.709   5.583  -1.672  0.00  0.00    -0.157 N 
ATOM      3  C   UNL     1      -0.946   5.400  -2.994  0.00  0.00    +0.249 A 
ATOM      4  C   UNL     1      -2.280   5.415  -3.382  0.00  0.00    +0.071 A 
ATOM      5  C   UNL     1      -3.168   6.143  -2.594  0.00  0.00    +0.012 A 
ATOM      6  C   UNL     1      -2.692   6.890  -1.520  0.00  0.00    +0.076 A 
ATOM      7  C   UNL     1      -1.538   6.370  -0.944  0.00  0.00    +0.290 A 
ENDROOT
BRANCH   3   8
ATOM      8  C   UNL     1       0.148   5.403  -3.974  0.00  0.00    +0.214 C 
ATOM      9  N   UNL     1       0.445   6.575  -4.442  0.00  0.00    -0.021 NA
ATOM     10  O   UNL     1       1.637   6.913  -4.994  0.00  0.00    -0.143 OA
ENDBRANCH   3   8
TORSDOF 1
ENDMDL
