MODEL 1
REMARK VINA RESULT:      -3.5      0.000      0.000
REMARK  Name = 
REMARK  1 active torsions:
REMARK  status: ('A' for Active; 'I' for Inactive)
REMARK    1  A    between atoms: C_2  and  C_4
REMARK                            x       y       z     vdW  Elec       q    Type
REMARK                         _______ _______ _______ _____ _____    ______ ____
ROOT
ATOM      1  C   UNL     1       7.601   6.886 -10.427  0.00  0.00    +0.048 C 
ATOM      2  C   UNL     1       7.081   6.651 -11.982  0.00  0.00    +0.254 C 
ATOM      3  O   UNL     1       6.034   5.629 -11.549  0.00  0.00    -0.211 OA
ENDROOT
BRANCH   2   4
ATOM      4  C   UNL     1       8.201   5.511 -12.287  0.00  0.00    +0.395 C 
ATOM      5  O   UNL     1       7.704   4.641 -13.181  0.00  0.00    -0.243 OA
ATOM      6  O   UNL     1       9.377   5.894 -12.167  0.00  0.00    -0.243 OA
ENDBRANCH   2   4
TORSDOF 1
ENDMDL
MODEL 2
REMARK VINA RESULT:      -3.5      1.165      1.772
REMARK  Name = 
REMARK  1 active torsions:
REMARK  status: ('A' for Active; 'I' for Inactive)
REMARK    1  A    between atoms: C_2  and  C_4
REMARK                            x       y       z     vdW  Elec       q    Type
REMARK                         _______ _______ _______ _____ _____    ______ ____
ROOT
ATOM      1  C   UNL     1       7.214   7.309 -10.993  0.00  0.00    +0.048 C 
ATOM      2  C   UNL     1       6.901   5.694 -11.190  0.00  0.00    +0.254 C 
ATOM      3  O   UNL     1       7.955   5.296 -10.160  0.00  0.00    -0.211 OA
ENDROOT
BRANCH   2   4
ATOM      4  C   UNL     1       7.933   5.547 -12.438  0.00  0.00    +0.395 C 
ATOM      5  O   UNL     1       9.171   5.853 -12.019  0.00  0.00    -0.243 OA
ATOM      6  O   UNL     1       7.601   4.704 -13.288  0.00  0.00    -0.243 OA
ENDBRANCH   2   4
TORSDOF 1
ENDMDL
MODEL 3
REMARK VINA RESULT:      -3.2      1.580      2.387
REMARK  Name = 
REMARK  1 active torsions:
REMARK  status: ('A' for Active; 'I' for Inactive)
REMARK    1  A    between atoms: C_2  and  C_4
REMARK                            x       y       z     vdW  Elec       q    Type
REMARK                         _______ _______ _______ _____ _____    ______ ____
ROOT
ATOM      1  C   UNL     1       9.016   5.843 -12.126  0.00  0.00    +0.048 C 
ATOM      2  C   UNL     1       7.471   5.263 -11.987  0.00  0.00    +0.254 C 
ATOM      3  O   UNL     1       7.439   4.810 -13.444  0.00  0.00    -0.211 OA
ENDROOT
BRANCH   2   4
ATOM      4  C   UNL     1       6.796   6.704 -12.324  0.00  0.00    +0.395 C 
ATOM      5  O   UNL     1       5.672   6.504 -13.030  0.00  0.00    -0.243 OA
ATOM      6  O   UNL     1       7.022   7.591 -11.484  0.00  0.00    -0.243 OA
ENDBRANCH   2   4
TORSDOF 1
ENDMDL
MODEL 4
REMARK VINA RESULT:      -3.2     11.838     13.003
REMARK  Name = 
REMARK  1 active torsions:
REMARK  status: ('A' for Active; 'I' for Inactive)
REMARK    1  A    between atoms: C_2  and  C_4
REMARK                            x       y       z     vdW  Elec       q    Type
REMARK                         _______ _______ _______ _____ _____    ______ ____
ROOT
ATOM      1  C   UNL     1      -2.539   6.949  -2.962  0.00  0.00    +0.048 C 
ATOM      2  C   UNL     1      -2.267   5.354  -3.317  0.00  0.00    +0.254 C 
ATOM      3  O   UNL     1      -2.693   4.903  -1.923  0.00  0.00    -0.211 OA
ENDROOT
BRANCH   2   4
ATOM      4  C   UNL     1      -0.694   5.432  -2.912  0.00  0.00    +0.395 C 
ATOM      5  O   UNL     1      -0.535   4.917  -1.683  0.00  0.00    -0.243 OA
ATOM      6  O   UNL     1       0.092   5.372  -3.873  0.00  0.00    -0.243 OA
ENDBRANCH   2   4
TORSDOF 1
ENDMDL
MODEL 5
REMARK VINA RESULT:      -3.1     12.332     13.267
REMARK  Name = 
REMARK  1 active torsions:
REMARK  status: ('A' for Active; 'I' for Inactive)
REMARK    1  A    between atoms: C_2  and  C_4
REMARK                            x       y       z     vdW  Elec       q    Type
REMARK                         _______ _______ _______ _____ _____    ______ ____
ROOT
ATOM      1  C   UNL     1      -2.555   6.963  -2.113  0.00  0.00    +0.048 C 
ATOM      2  C   UNL     1      -3.407   5.903  -3.059  0.00  0.00    +0.254 C 
ATOM      3  O   UNL     1      -2.703   4.692  -2.454  0.00  0.00    -0.211 OA
ENDROOT
BRANCH   2   4
ATOM      4  C   UNL     1      -2.357   6.012  -4.296  0.00  0.00    +0.395 C 
ATOM      5  O   UNL     1      -2.634   7.115  -5.008  0.00  0.00    -0.243 OA
ATOM      6  O   UNL     1      -1.244   5.504  -4.077  0.00  0.00    -0.243 OA
ENDBRANCH   2   4
TORSDOF 1
ENDMDL
MODEL 6
REMARK VINA RESULT:      -3.1     11.836     12.785
REMARK  Name = 
REMARK  1 active torsions:
REMARK  status: ('A' for Active; 'I' for Inactive)
REMARK    1  A    between atoms: C_2  and  C_4
REMARK                            x       y       z     vdW  Elec       q    Type
REMARK                         _______ _______ _______ _____ _____    ______ ____
ROOT
ATOM      1  C   UNL     1      -1.915   7.754  -4.173  0.00  0.00    +0.048 C 
ATOM      2  C   UNL     1      -1.278   6.516  -3.275  0.00  0.00    +0.254 C 
ATOM      3  O   UNL     1      -0.511   5.955  -4.469  0.00  0.00    -0.211 OA
ENDROOT
BRANCH   2   4
ATOM      4  C   UNL     1      -2.560   5.547  -3.524  0.00  0.00    +0.395 C 
ATOM      5  O   UNL     1      -2.744   5.400  -4.846  0.00  0.00    -0.243 OA
ATOM      6  O   UNL     1      -2.758   4.709  -2.628  0.00  0.00    -0.243 OA
ENDBRANCH   2   4
TORSDOF 1
ENDMDL
MODEL 7
REMARK VINA RESULT:      -3.1      1.681      2.189
REMARK  Name = 
REMARK  1 active torsions:
REMARK  status: ('A' for Active; 'I' for Inactive)
REMARK    1  A    between atoms: C_2  and  C_4
REMARK                            x       y       z     vdW  Elec       q    Type
REMARK                         _______ _______ _______ _____ _____    ______ ____
ROOT
ATOM      1  C   UNL     1       6.318   7.219 -12.977  0.00  0.00    +0.048 C 
ATOM      2  C   UNL     1       7.204   6.205 -13.941  0.00  0.00    +0.254 C 
ATOM      3  O   UNL     1       6.159   5.097 -13.850  0.00  0.00    -0.211 OA
ENDROOT
BRANCH   2   4
ATOM      4  C   UNL     1       8.069   5.618 -12.694  0.00  0.00    +0.395 C 
ATOM      5  O   UNL     1       8.329   6.617 -11.837  0.00  0.00    -0.243 OA
ATOM      6  O   UNL     1       7.854   4.423 -12.432  0.00  0.00    -0.243 OA
ENDBRANCH   2   4
TORSDOF 1
ENDMDL
MODEL 8
REMARK VINA RESULT:      -3.0     11.725     12.862
REMARK  Name = 
REMARK  1 active torsions:
REMARK  status: ('A' for Active; 'I' for Inactive)
REMARK    1  A    between atoms: C_2  and  C_4
REMARK                            x       y       z     vdW  Elec       q    Type
REMARK                         _______ _______ _______ _____ _____    ______ ____
ROOT
ATOM      1  C   UNL     1       0.282   5.426  -3.676  0.00  0.00    +0.048 C 
ATOM      2  C   UNL     1      -0.671   6.087  -2.494  0.00  0.00    +0.254 C 
ATOM      3  O   UNL     1      -0.499   4.875  -1.583  0.00  0.00    -0.211 OA
ENDROOT
BRANCH   2   4
ATOM      4  C   UNL     1      -2.047   5.516  -3.148  0.00  0.00    +0.395 C 
ATOM      5  O   UNL     1      -1.939   5.550  -4.486  0.00  0.00    -0.243 OA
ATOM      6  O   UNL     1      -2.644   4.679  -2.451  0.00  0.00    -0.243 OA
ENDBRANCH   2   4
TORSDOF 1
ENDMDL
MODEL 9
REMARK VINA RESULT:      -3.0      1.606      2.433
REMARK  Name = 
REMARK  1 active torsions:
REMARK  status: ('A' for Active; 'I' for Inactive)
REMARK    1  A    between atoms: C_2  and  C_4
REMARK                            x       y       z     vdW  Elec       q    Type
REMARK                         _______ _______ _______ _____ _____    ______ ____
ROOT
ATOM      1  C   UNL     1       5.657   5.381 -12.707  0.00  0.00    +0.048 C 
ATOM      2  C   UNL     1       7.191   5.989 -12.861  0.00  0.00    +0.254 C 
ATOM      3  O   UNL     1       7.820   4.601 -12.778  0.00  0.00    -0.211 OA
ENDROOT
BRANCH   2   4
ATOM      4  C   UNL     1       7.349   6.257 -11.264  0.00  0.00    +0.395 C 
ATOM      5  O   UNL     1       8.132   5.302 -10.738  0.00  0.00    -0.243 OA
ATOM      6  O   UNL     1       7.271   7.451 -10.929  0.00  0.00    -0.243 OA
ENDBRANCH   2   4
TORSDOF 1
ENDMDL
