MODEL 1
REMARK VINA RESULT:      -7.8      0.000      0.000
REMARK  Name = 
REMARK  15 active torsions:
REMARK  status: ('A' for Active; 'I' for Inactive)
REMARK    1  A    between atoms: C_2  and  C_5
REMARK    2  A    between atoms: C_5  and  O_7
REMARK    3  A    between atoms: O_7  and  C_8
REMARK    4  A    between atoms: C_8  and  O_9
REMARK    5  A    between atoms: O_9  and  P_10
REMARK    6  A    between atoms: P_10  and  C_12
REMARK    7  A    between atoms: P_10  and  O_26
REMARK    8  A    between atoms: C_12  and  O_13
REMARK    9  A    between atoms: O_13  and  C_14
REMARK   10  A    between atoms: C_14  and  C_15
REMARK   11  A    between atoms: C_15  and  N_16
REMARK   12  A    between atoms: O_26  and  C_27
REMARK   13  A    between atoms: C_27  and  O_28
REMARK   14  A    between atoms: O_28  and  C_29
REMARK   15  A    between atoms: C_29  and  C_31
REMARK                            x       y       z     vdW  Elec       q    Type
REMARK                         _______ _______ _______ _____ _____    ______ ____
ROOT
ATOM      1  P   UNL     1       3.624   5.729  -6.899  0.00  0.00    +0.378 P 
ATOM      2  O   UNL     1       2.360   4.917  -6.742  0.00  0.00    -0.255 OA
ENDROOT
BRANCH   1   3
ATOM      3  O   UNL     1       3.152   7.226  -7.557  0.00  0.00    -0.250 OA
BRANCH   3   4
ATOM      4  C   UNL     1       1.759   7.241  -7.677  0.00  0.00    +0.369 C 
BRANCH   4   5
ATOM      5  O   UNL     1       1.446   7.253  -9.048  0.00  0.00    -0.419 OA
BRANCH   5   6
ATOM      6  C   UNL     1       0.798   6.175  -9.616  0.00  0.00    +0.318 C 
ATOM      7  O   UNL     1      -0.074   5.586  -8.909  0.00  0.00    -0.250 OA
BRANCH   6   8
ATOM      8  C   UNL     1       0.616   6.137 -11.099  0.00  0.00    +0.090 C 
ATOM      9  C   UNL     1      -0.267   7.298 -11.483  0.00  0.00    +0.011 C 
ATOM     10  C   UNL     1       1.976   6.309 -11.733  0.00  0.00    +0.011 C 
ATOM     11  C   UNL     1       0.017   4.806 -11.533  0.00  0.00    +0.011 C 
ENDBRANCH   6   8
ENDBRANCH   5   6
ENDBRANCH   4   5
ENDBRANCH   3   4
ENDBRANCH   1   3
BRANCH   1  12
ATOM     12  O   UNL     1       4.772   4.965  -7.857  0.00  0.00    -0.250 OA
BRANCH  12  13
ATOM     13  C   UNL     1       4.591   5.202  -9.216  0.00  0.00    +0.369 C 
BRANCH  13  14
ATOM     14  O   UNL     1       5.580   6.132  -9.651  0.00  0.00    -0.419 OA
BRANCH  14  15
ATOM     15  C   UNL     1       6.685   5.725 -10.406  0.00  0.00    +0.318 C 
ATOM     16  O   UNL     1       7.741   5.522  -9.732  0.00  0.00    -0.250 OA
BRANCH  15  18
ATOM     17  C   UNL     1       8.402   6.091 -12.058  0.00  0.00    +0.011 C 
ATOM     18  C   UNL     1       6.918   6.277 -11.779  0.00  0.00    +0.090 C 
ATOM     19  C   UNL     1       6.124   5.543 -12.826  0.00  0.00    +0.011 C 
ATOM     20  C   UNL     1       6.544   7.746 -11.700  0.00  0.00    +0.011 C 
ENDBRANCH  15  18
ENDBRANCH  14  15
ENDBRANCH  13  14
ENDBRANCH  12  13
ENDBRANCH   1  12
BRANCH   1  21
ATOM     21  C   UNL     1       4.388   5.984  -5.264  0.00  0.00    +0.258 C 
BRANCH  21  22
ATOM     22  O   UNL     1       3.817   5.010  -4.431  0.00  0.00    -0.340 OA
BRANCH  22  23
ATOM     23  C   UNL     1       3.431   5.607  -3.226  0.00  0.00    +0.167 C 
BRANCH  23  24
ATOM     24  C   UNL     1       2.191   6.441  -3.389  0.00  0.00    +0.141 C 
BRANCH  24  25
ATOM     25  N   UNL     1       1.022   5.609  -3.125  0.00  0.00    -0.292 N 
ATOM     26  C   UNL     1      -0.119   5.603  -3.857  0.00  0.00    +0.167 A 
ATOM     27  N   UNL     1      -0.366   5.884  -5.143  0.00  0.00    -0.205 NA
ATOM     28  C   UNL     1      -1.580   5.587  -5.667  0.00  0.00    +0.202 A 
ATOM     29  N   UNL     1      -2.629   5.682  -4.823  0.00  0.00    -0.204 NA
ATOM     30  C   UNL     1      -2.503   5.556  -3.487  0.00  0.00    +0.192 A 
ATOM     31  N   UNL     1      -3.476   6.063  -2.569  0.00  0.00    -0.105 NA
ATOM     32  C   UNL     1      -1.204   5.493  -3.004  0.00  0.00    +0.152 A 
ATOM     33  N   UNL     1      -0.683   5.038  -1.849  0.00  0.00    -0.219 NA
ATOM     34  C   UNL     1       0.669   5.012  -1.961  0.00  0.00    +0.180 A 
ENDBRANCH  24  25
ENDBRANCH  23  24
ENDBRANCH  22  23
ENDBRANCH  21  22
ENDBRANCH   1  21
TORSDOF 15
ENDMDL
MODEL 2
REMARK VINA RESULT:      -7.8      1.931      4.918
REMARK  Name = 
REMARK  15 active torsions:
REMARK  status: ('A' for Active; 'I' for Inactive)
REMARK    1  A    between atoms: C_2  and  C_5
REMARK    2  A    between atoms: C_5  and  O_7
REMARK    3  A    between atoms: O_7  and  C_8
REMARK    4  A    between atoms: C_8  and  O_9
REMARK    5  A    between atoms: O_9  and  P_10
REMARK    6  A    between atoms: P_10  and  C_12
REMARK    7  A    between atoms: P_10  and  O_26
REMARK    8  A    between atoms: C_12  and  O_13
REMARK    9  A    between atoms: O_13  and  C_14
REMARK   10  A    between atoms: C_14  and  C_15
REMARK   11  A    between atoms: C_15  and  N_16
REMARK   12  A    between atoms: O_26  and  C_27
REMARK   13  A    between atoms: C_27  and  O_28
REMARK   14  A    between atoms: O_28  and  C_29
REMARK   15  A    between atoms: C_29  and  C_31
REMARK                            x       y       z     vdW  Elec       q    Type
REMARK                         _______ _______ _______ _____ _____    ______ ____
ROOT
ATOM      1  P   UNL     1       2.493   6.079  -9.104  0.00  0.00    +0.378 P 
ATOM      2  O   UNL     1       1.633   7.320  -9.045  0.00  0.00    -0.255 OA
ENDROOT
BRANCH   1   3
ATOM      3  O   UNL     1       3.883   6.503  -9.990  0.00  0.00    -0.250 OA
BRANCH   3   4
ATOM      4  C   UNL     1       4.319   5.380 -10.701  0.00  0.00    +0.369 C 
BRANCH   4   5
ATOM      5  O   UNL     1       5.097   5.832 -11.783  0.00  0.00    -0.419 OA
BRANCH   5   6
ATOM      6  C   UNL     1       6.403   5.405 -11.916  0.00  0.00    +0.318 C 
ATOM      7  O   UNL     1       6.716   4.833 -13.003  0.00  0.00    -0.250 OA
BRANCH   6   8
ATOM      8  C   UNL     1       7.484   6.142 -11.194  0.00  0.00    +0.090 C 
ATOM      9  C   UNL     1       8.765   5.949 -11.965  0.00  0.00    +0.011 C 
ATOM     10  C   UNL     1       7.116   7.607 -11.189  0.00  0.00    +0.011 C 
ATOM     11  C   UNL     1       7.609   5.643  -9.760  0.00  0.00    +0.011 C 
ENDBRANCH   6   8
ENDBRANCH   5   6
ENDBRANCH   4   5
ENDBRANCH   3   4
ENDBRANCH   1   3
BRANCH   1  12
ATOM     12  O   UNL     1       1.698   4.769  -9.788  0.00  0.00    -0.250 OA
BRANCH  12  13
ATOM     13  C   UNL     1       0.427   5.086 -10.254  0.00  0.00    +0.369 C 
BRANCH  13  14
ATOM     14  O   UNL     1       0.371   4.805 -11.651  0.00  0.00    -0.419 OA
BRANCH  14  15
ATOM     15  C   UNL     1       0.938   5.669 -12.594  0.00  0.00    +0.318 C 
ATOM     16  O   UNL     1       0.583   6.882 -12.483  0.00  0.00    -0.250 OA
BRANCH  15  18
ATOM     17  C   UNL     1       2.672   4.978 -14.120  0.00  0.00    +0.011 C 
ATOM     18  C   UNL     1       1.174   5.215 -14.002  0.00  0.00    +0.090 C 
ATOM     19  C   UNL     1       0.447   3.934 -14.312  0.00  0.00    +0.011 C 
ATOM     20  C   UNL     1       0.718   6.362 -14.884  0.00  0.00    +0.011 C 
ENDBRANCH  15  18
ENDBRANCH  14  15
ENDBRANCH  13  14
ENDBRANCH  12  13
ENDBRANCH   1  12
BRANCH   1  21
ATOM     21  C   UNL     1       2.964   5.586  -7.413  0.00  0.00    +0.258 C 
BRANCH  21  22
ATOM     22  O   UNL     1       2.144   4.490  -7.104  0.00  0.00    -0.340 OA
BRANCH  22  23
ATOM     23  C   UNL     1       2.067   4.354  -5.714  0.00  0.00    +0.167 C 
BRANCH  23  24
ATOM     24  C   UNL     1       2.314   5.658  -5.010  0.00  0.00    +0.141 C 
BRANCH  24  25
ATOM     25  N   UNL     1       1.036   6.206  -4.565  0.00  0.00    -0.292 N 
ATOM     26  C   UNL     1       0.431   5.927  -3.385  0.00  0.00    +0.167 A 
ATOM     27  N   UNL     1       0.911   5.558  -2.191  0.00  0.00    -0.205 NA
ATOM     28  C   UNL     1       0.086   5.551  -1.115  0.00  0.00    +0.202 A 
ATOM     29  N   UNL     1      -1.205   5.242  -1.361  0.00  0.00    -0.204 NA
ATOM     30  C   UNL     1      -1.784   5.435  -2.563  0.00  0.00    +0.192 A 
ATOM     31  N   UNL     1      -2.970   4.745  -2.967  0.00  0.00    -0.105 NA
ATOM     32  C   UNL     1      -0.934   5.809  -3.593  0.00  0.00    +0.152 A 
ATOM     33  N   UNL     1      -1.148   6.407  -4.780  0.00  0.00    -0.219 NA
ATOM     34  C   UNL     1       0.049   6.741  -5.323  0.00  0.00    +0.180 A 
ENDBRANCH  24  25
ENDBRANCH  23  24
ENDBRANCH  22  23
ENDBRANCH  21  22
ENDBRANCH   1  21
TORSDOF 15
ENDMDL
MODEL 3
REMARK VINA RESULT:      -7.7      3.011      4.789
REMARK  Name = 
REMARK  15 active torsions:
REMARK  status: ('A' for Active; 'I' for Inactive)
REMARK    1  A    between atoms: C_2  and  C_5
REMARK    2  A    between atoms: C_5  and  O_7
REMARK    3  A    between atoms: O_7  and  C_8
REMARK    4  A    between atoms: C_8  and  O_9
REMARK    5  A    between atoms: O_9  and  P_10
REMARK    6  A    between atoms: P_10  and  C_12
REMARK    7  A    between atoms: P_10  and  O_26
REMARK    8  A    between atoms: C_12  and  O_13
REMARK    9  A    between atoms: O_13  and  C_14
REMARK   10  A    between atoms: C_14  and  C_15
REMARK   11  A    between atoms: C_15  and  N_16
REMARK   12  A    between atoms: O_26  and  C_27
REMARK   13  A    between atoms: C_27  and  O_28
REMARK   14  A    between atoms: O_28  and  C_29
REMARK   15  A    between atoms: C_29  and  C_31
REMARK                            x       y       z     vdW  Elec       q    Type
REMARK                         _______ _______ _______ _____ _____    ______ ____
ROOT
ATOM      1  P   UNL     1       2.236   4.798  -7.142  0.00  0.00    +0.378 P 
ATOM      2  O   UNL     1       1.922   3.489  -6.456  0.00  0.00    -0.255 OA
ENDROOT
BRANCH   1   3
ATOM      3  O   UNL     1       0.852   5.772  -6.967  0.00  0.00    -0.250 OA
BRANCH   3   4
ATOM      4  C   UNL     1       1.187   6.890  -6.196  0.00  0.00    +0.369 C 
BRANCH   4   5
ATOM      5  O   UNL     1       0.143   7.108  -5.279  0.00  0.00    -0.419 OA
BRANCH   5   6
ATOM      6  C   UNL     1      -0.625   6.047  -4.844  0.00  0.00    +0.318 C 
ATOM      7  O   UNL     1      -0.156   5.343  -3.900  0.00  0.00    -0.250 OA
BRANCH   6   8
ATOM      8  C   UNL     1      -2.112   6.132  -4.963  0.00  0.00    +0.090 C 
ATOM      9  C   UNL     1      -2.489   7.592  -4.977  0.00  0.00    +0.011 C 
ATOM     10  C   UNL     1      -2.506   5.499  -6.277  0.00  0.00    +0.011 C 
ATOM     11  C   UNL     1      -2.785   5.387  -3.817  0.00  0.00    +0.011 C 
ENDBRANCH   6   8
ENDBRANCH   5   6
ENDBRANCH   4   5
ENDBRANCH   3   4
ENDBRANCH   1   3
BRANCH   1  12
ATOM     12  O   UNL     1       2.656   4.602  -8.755  0.00  0.00    -0.250 OA
BRANCH  12  13
ATOM     13  C   UNL     1       4.001   4.295  -8.934  0.00  0.00    +0.369 C 
BRANCH  13  14
ATOM     14  O   UNL     1       4.467   4.957 -10.107  0.00  0.00    -0.419 OA
BRANCH  14  15
ATOM     15  C   UNL     1       5.104   6.201 -10.040  0.00  0.00    +0.318 C 
ATOM     16  O   UNL     1       4.327   7.200 -10.123  0.00  0.00    -0.250 OA
BRANCH  15  18
ATOM     17  C   UNL     1       6.504   5.463 -11.859  0.00  0.00    +0.011 C 
ATOM     18  C   UNL     1       6.450   6.405 -10.666  0.00  0.00    +0.090 C 
ATOM     19  C   UNL     1       6.642   7.819 -11.146  0.00  0.00    +0.011 C 
ATOM     20  C   UNL     1       7.460   6.018  -9.602  0.00  0.00    +0.011 C 
ENDBRANCH  15  18
ENDBRANCH  14  15
ENDBRANCH  13  14
ENDBRANCH  12  13
ENDBRANCH   1  12
BRANCH   1  21
ATOM     21  C   UNL     1       3.657   5.589  -6.319  0.00  0.00    +0.258 C 
BRANCH  21  22
ATOM     22  O   UNL     1       3.940   4.779  -5.208  0.00  0.00    -0.340 OA
BRANCH  22  23
ATOM     23  C   UNL     1       4.690   5.516  -4.284  0.00  0.00    +0.167 C 
BRANCH  23  24
ATOM     24  C   UNL     1       4.012   6.806  -3.916  0.00  0.00    +0.141 C 
BRANCH  24  25
ATOM     25  N   UNL     1       3.428   6.672  -2.585  0.00  0.00    -0.292 N 
ATOM     26  C   UNL     1       3.538   7.579  -1.585  0.00  0.00    +0.167 A 
ATOM     27  N   UNL     1       3.715   8.906  -1.586  0.00  0.00    -0.205 NA
ATOM     28  C   UNL     1       3.577   9.598  -0.429  0.00  0.00    +0.202 A 
ATOM     29  N   UNL     1       3.943   8.948   0.697  0.00  0.00    -0.204 NA
ATOM     30  C   UNL     1       3.944   7.604   0.794  0.00  0.00    +0.192 A 
ATOM     31  N   UNL     1       4.709   6.902   1.779  0.00  0.00    -0.105 NA
ATOM     32  C   UNL     1       3.711   6.910  -0.384  0.00  0.00    +0.152 A 
ATOM     33  N   UNL     1       3.302   5.652  -0.635  0.00  0.00    -0.219 NA
ATOM     34  C   UNL     1       3.031   5.538  -1.959  0.00  0.00    +0.180 A 
ENDBRANCH  24  25
ENDBRANCH  23  24
ENDBRANCH  22  23
ENDBRANCH  21  22
ENDBRANCH   1  21
TORSDOF 15
ENDMDL
MODEL 4
REMARK VINA RESULT:      -7.7      2.939      4.750
REMARK  Name = 
REMARK  15 active torsions:
REMARK  status: ('A' for Active; 'I' for Inactive)
REMARK    1  A    between atoms: C_2  and  C_5
REMARK    2  A    between atoms: C_5  and  O_7
REMARK    3  A    between atoms: O_7  and  C_8
REMARK    4  A    between atoms: C_8  and  O_9
REMARK    5  A    between atoms: O_9  and  P_10
REMARK    6  A    between atoms: P_10  and  C_12
REMARK    7  A    between atoms: P_10  and  O_26
REMARK    8  A    between atoms: C_12  and  O_13
REMARK    9  A    between atoms: O_13  and  C_14
REMARK   10  A    between atoms: C_14  and  C_15
REMARK   11  A    between atoms: C_15  and  N_16
REMARK   12  A    between atoms: O_26  and  C_27
REMARK   13  A    between atoms: C_27  and  O_28
REMARK   14  A    between atoms: O_28  and  C_29
REMARK   15  A    between atoms: C_29  and  C_31
REMARK                            x       y       z     vdW  Elec       q    Type
REMARK                         _______ _______ _______ _____ _____    ______ ____
ROOT
ATOM      1  P   UNL     1       2.047   5.368  -9.069  0.00  0.00    +0.378 P 
ATOM      2  O   UNL     1       1.384   4.337  -9.952  0.00  0.00    -0.255 OA
ENDROOT
BRANCH   1   3
ATOM      3  O   UNL     1       0.791   6.302  -8.400  0.00  0.00    -0.250 OA
BRANCH   3   4
ATOM      4  C   UNL     1       0.937   6.313  -7.008  0.00  0.00    +0.369 C 
BRANCH   4   5
ATOM      5  O   UNL     1      -0.124   5.570  -6.459  0.00  0.00    -0.419 OA
BRANCH   5   6
ATOM      6  C   UNL     1      -0.601   5.879  -5.202  0.00  0.00    +0.318 C 
ATOM      7  O   UNL     1       0.226   6.362  -4.371  0.00  0.00    -0.250 OA
BRANCH   6   8
ATOM      8  C   UNL     1      -2.035   6.273  -5.047  0.00  0.00    +0.090 C 
ATOM      9  C   UNL     1      -2.077   7.759  -4.789  0.00  0.00    +0.011 C 
ATOM     10  C   UNL     1      -2.738   5.970  -6.349  0.00  0.00    +0.011 C 
ATOM     11  C   UNL     1      -2.689   5.487  -3.919  0.00  0.00    +0.011 C 
ENDBRANCH   6   8
ENDBRANCH   5   6
ENDBRANCH   4   5
ENDBRANCH   3   4
ENDBRANCH   1   3
BRANCH   1  12
ATOM     12  O   UNL     1       3.152   6.321  -9.899  0.00  0.00    -0.250 OA
BRANCH  12  13
ATOM     13  C   UNL     1       3.481   5.809 -11.150  0.00  0.00    +0.369 C 
BRANCH  13  14
ATOM     14  O   UNL     1       4.772   5.209 -11.071  0.00  0.00    -0.419 OA
BRANCH  14  15
ATOM     15  C   UNL     1       5.846   5.681 -11.833  0.00  0.00    +0.318 C 
ATOM     16  O   UNL     1       6.214   4.906 -12.768  0.00  0.00    -0.250 OA
BRANCH  15  18
ATOM     17  C   UNL     1       8.205   6.145 -12.004  0.00  0.00    +0.011 C 
ATOM     18  C   UNL     1       6.957   6.454 -11.191  0.00  0.00    +0.090 C 
ATOM     19  C   UNL     1       6.705   7.938 -11.222  0.00  0.00    +0.011 C 
ATOM     20  C   UNL     1       7.065   5.919  -9.775  0.00  0.00    +0.011 C 
ENDBRANCH  15  18
ENDBRANCH  14  15
ENDBRANCH  13  14
ENDBRANCH  12  13
ENDBRANCH   1  12
BRANCH   1  21
ATOM     21  C   UNL     1       2.969   4.527  -7.741  0.00  0.00    +0.258 C 
BRANCH  21  22
ATOM     22  O   UNL     1       4.264   5.064  -7.790  0.00  0.00    -0.340 OA
BRANCH  22  23
ATOM     23  C   UNL     1       4.450   5.914  -6.694  0.00  0.00    +0.167 C 
BRANCH  23  24
ATOM     24  C   UNL     1       4.060   5.252  -5.402  0.00  0.00    +0.141 C 
BRANCH  24  25
ATOM     25  N   UNL     1       4.598   6.029  -4.290  0.00  0.00    -0.292 N 
ATOM     26  C   UNL     1       4.366   5.785  -2.977  0.00  0.00    +0.167 A 
ATOM     27  N   UNL     1       4.071   4.665  -2.307  0.00  0.00    -0.205 NA
ATOM     28  C   UNL     1       4.099   4.673  -0.952  0.00  0.00    +0.202 A 
ATOM     29  N   UNL     1       3.746   5.834  -0.359  0.00  0.00    -0.204 NA
ATOM     30  C   UNL     1       3.862   7.029  -0.972  0.00  0.00    +0.192 A 
ATOM     31  N   UNL     1       3.123   8.182  -0.558  0.00  0.00    -0.105 NA
ATOM     32  C   UNL     1       4.204   6.991  -2.315  0.00  0.00    +0.152 A 
ATOM     33  N   UNL     1       4.734   7.908  -3.146  0.00  0.00    -0.219 NA
ATOM     34  C   UNL     1       5.068   7.299  -4.311  0.00  0.00    +0.180 A 
ENDBRANCH  24  25
ENDBRANCH  23  24
ENDBRANCH  22  23
ENDBRANCH  21  22
ENDBRANCH   1  21
TORSDOF 15
ENDMDL
MODEL 5
REMARK VINA RESULT:      -7.7      4.087      9.188
REMARK  Name = 
REMARK  15 active torsions:
REMARK  status: ('A' for Active; 'I' for Inactive)
REMARK    1  A    between atoms: C_2  and  C_5
REMARK    2  A    between atoms: C_5  and  O_7
REMARK    3  A    between atoms: O_7  and  C_8
REMARK    4  A    between atoms: C_8  and  O_9
REMARK    5  A    between atoms: O_9  and  P_10
REMARK    6  A    between atoms: P_10  and  C_12
REMARK    7  A    between atoms: P_10  and  O_26
REMARK    8  A    between atoms: C_12  and  O_13
REMARK    9  A    between atoms: O_13  and  C_14
REMARK   10  A    between atoms: C_14  and  C_15
REMARK   11  A    between atoms: C_15  and  N_16
REMARK   12  A    between atoms: O_26  and  C_27
REMARK   13  A    between atoms: C_27  and  O_28
REMARK   14  A    between atoms: O_28  and  C_29
REMARK   15  A    between atoms: C_29  and  C_31
REMARK                            x       y       z     vdW  Elec       q    Type
REMARK                         _______ _______ _______ _____ _____    ______ ____
ROOT
ATOM      1  P   UNL     1       2.334   4.998  -7.979  0.00  0.00    +0.378 P 
ATOM      2  O   UNL     1       3.133   3.865  -8.576  0.00  0.00    -0.255 OA
ENDROOT
BRANCH   1   3
ATOM      3  O   UNL     1       3.464   6.167  -7.477  0.00  0.00    -0.250 OA
BRANCH   3   4
ATOM      4  C   UNL     1       2.783   7.185  -6.802  0.00  0.00    +0.369 C 
BRANCH   4   5
ATOM      5  O   UNL     1       3.586   7.596  -5.721  0.00  0.00    -0.419 OA
BRANCH   5   6
ATOM      6  C   UNL     1       3.384   7.052  -4.469  0.00  0.00    +0.318 C 
ATOM      7  O   UNL     1       2.217   6.635  -4.201  0.00  0.00    -0.250 OA
BRANCH   6   8
ATOM      8  C   UNL     1       4.526   6.382  -3.777  0.00  0.00    +0.090 C 
ATOM      9  C   UNL     1       5.750   7.242  -3.972  0.00  0.00    +0.011 C 
ATOM     10  C   UNL     1       4.193   6.310  -2.305  0.00  0.00    +0.011 C 
ATOM     11  C   UNL     1       4.733   4.975  -4.322  0.00  0.00    +0.011 C 
ENDBRANCH   6   8
ENDBRANCH   5   6
ENDBRANCH   4   5
ENDBRANCH   3   4
ENDBRANCH   1   3
BRANCH   1  12
ATOM     12  O   UNL     1       1.350   4.503  -6.712  0.00  0.00    -0.250 OA
BRANCH  12  13
ATOM     13  C   UNL     1       0.081   5.071  -6.754  0.00  0.00    +0.369 C 
BRANCH  13  14
ATOM     14  O   UNL     1      -0.467   5.057  -5.437  0.00  0.00    -0.419 OA
BRANCH  14  15
ATOM     15  C   UNL     1      -1.225   6.127  -4.950  0.00  0.00    +0.318 C 
ATOM     16  O   UNL     1      -0.843   7.270  -5.346  0.00  0.00    -0.250 OA
BRANCH  15  18
ATOM     17  C   UNL     1      -3.025   5.236  -3.617  0.00  0.00    +0.011 C 
ATOM     18  C   UNL     1      -1.775   6.101  -3.557  0.00  0.00    +0.090 C 
ATOM     19  C   UNL     1      -0.806   5.498  -2.576  0.00  0.00    +0.011 C 
ATOM     20  C   UNL     1      -2.109   7.543  -3.221  0.00  0.00    +0.011 C 
ENDBRANCH  15  18
ENDBRANCH  14  15
ENDBRANCH  13  14
ENDBRANCH  12  13
ENDBRANCH   1  12
BRANCH   1  21
ATOM     21  C   UNL     1       1.237   5.705  -9.252  0.00  0.00    +0.258 C 
BRANCH  21  22
ATOM     22  O   UNL     1       1.434   4.911 -10.393  0.00  0.00    -0.340 OA
BRANCH  22  23
ATOM     23  C   UNL     1       1.736   5.739 -11.480  0.00  0.00    +0.167 C 
BRANCH  23  24
ATOM     24  C   UNL     1       3.032   6.473 -11.280  0.00  0.00    +0.141 C 
BRANCH  24  25
ATOM     25  N   UNL     1       4.134   5.607 -11.687  0.00  0.00    -0.292 N 
ATOM     26  C   UNL     1       5.358   5.569 -11.107  0.00  0.00    +0.167 A 
ATOM     27  N   UNL     1       5.776   5.846  -9.866  0.00  0.00    -0.205 NA
ATOM     28  C   UNL     1       7.039   5.515  -9.499  0.00  0.00    +0.202 A 
ATOM     29  N   UNL     1       7.973   5.578 -10.472  0.00  0.00    -0.204 NA
ATOM     30  C   UNL     1       7.673   5.452 -11.780  0.00  0.00    +0.192 A 
ATOM     31  N   UNL     1       8.534   5.929 -12.818  0.00  0.00    -0.105 NA
ATOM     32  C   UNL     1       6.322   5.426 -12.092  0.00  0.00    +0.152 A 
ATOM     33  N   UNL     1       5.644   4.984 -13.168  0.00  0.00    -0.219 NA
ATOM     34  C   UNL     1       4.318   4.997 -12.883  0.00  0.00    +0.180 A 
ENDBRANCH  24  25
ENDBRANCH  23  24
ENDBRANCH  22  23
ENDBRANCH  21  22
ENDBRANCH   1  21
TORSDOF 15
ENDMDL
MODEL 6
REMARK VINA RESULT:      -7.6      2.337      6.203
REMARK  Name = 
REMARK  15 active torsions:
REMARK  status: ('A' for Active; 'I' for Inactive)
REMARK    1  A    between atoms: C_2  and  C_5
REMARK    2  A    between atoms: C_5  and  O_7
REMARK    3  A    between atoms: O_7  and  C_8
REMARK    4  A    between atoms: C_8  and  O_9
REMARK    5  A    between atoms: O_9  and  P_10
REMARK    6  A    between atoms: P_10  and  C_12
REMARK    7  A    between atoms: P_10  and  O_26
REMARK    8  A    between atoms: C_12  and  O_13
REMARK    9  A    between atoms: O_13  and  C_14
REMARK   10  A    between atoms: C_14  and  C_15
REMARK   11  A    between atoms: C_15  and  N_16
REMARK   12  A    between atoms: O_26  and  C_27
REMARK   13  A    between atoms: C_27  and  O_28
REMARK   14  A    between atoms: O_28  and  C_29
REMARK   15  A    between atoms: C_29  and  C_31
REMARK                            x       y       z     vdW  Elec       q    Type
REMARK                         _______ _______ _______ _____ _____    ______ ____
ROOT
ATOM      1  P   UNL     1       2.680   6.433  -7.266  0.00  0.00    +0.378 P 
ATOM      2  O   UNL     1       2.699   7.550  -8.282  0.00  0.00    -0.255 OA
ENDROOT
BRANCH   1   3
ATOM      3  O   UNL     1       3.763   5.250  -7.836  0.00  0.00    -0.250 OA
BRANCH   3   4
ATOM      4  C   UNL     1       3.570   5.095  -9.213  0.00  0.00    +0.369 C 
BRANCH   4   5
ATOM      5  O   UNL     1       4.836   4.973  -9.813  0.00  0.00    -0.419 OA
BRANCH   5   6
ATOM      6  C   UNL     1       5.243   5.898 -10.753  0.00  0.00    +0.318 C 
ATOM      7  O   UNL     1       4.398   6.773 -11.107  0.00  0.00    -0.250 OA
BRANCH   6   8
ATOM      8  C   UNL     1       6.688   6.275 -10.820  0.00  0.00    +0.090 C 
ATOM      9  C   UNL     1       7.324   5.890  -9.508  0.00  0.00    +0.011 C 
ATOM     10  C   UNL     1       7.320   5.478 -11.937  0.00  0.00    +0.011 C 
ATOM     11  C   UNL     1       6.841   7.763 -11.106  0.00  0.00    +0.011 C 
ENDBRANCH   6   8
ENDBRANCH   5   6
ENDBRANCH   4   5
ENDBRANCH   3   4
ENDBRANCH   1   3
BRANCH   1  12
ATOM     12  O   UNL     1       1.144   5.801  -7.023  0.00  0.00    -0.250 OA
BRANCH  12  13
ATOM     13  C   UNL     1       1.124   4.753  -6.110  0.00  0.00    +0.369 C 
BRANCH  13  14
ATOM     14  O   UNL     1       0.114   5.015  -5.138  0.00  0.00    -0.419 OA
BRANCH  14  15
ATOM     15  C   UNL     1      -0.591   6.223  -5.125  0.00  0.00    +0.318 C 
ATOM     16  O   UNL     1      -0.054   7.143  -4.435  0.00  0.00    -0.250 OA
BRANCH  15  18
ATOM     17  C   UNL     1      -2.516   5.611  -6.440  0.00  0.00    +0.011 C 
ATOM     18  C   UNL     1      -2.089   6.234  -5.119  0.00  0.00    +0.090 C 
ATOM     19  C   UNL     1      -2.656   5.421  -3.986  0.00  0.00    +0.011 C 
ATOM     20  C   UNL     1      -2.489   7.695  -5.035  0.00  0.00    +0.011 C 
ENDBRANCH  15  18
ENDBRANCH  14  15
ENDBRANCH  13  14
ENDBRANCH  12  13
ENDBRANCH   1  12
BRANCH   1  21
ATOM     21  C   UNL     1       3.249   7.068  -5.655  0.00  0.00    +0.258 C 
BRANCH  21  22
ATOM     22  O   UNL     1       4.237   6.166  -5.228  0.00  0.00    -0.340 OA
BRANCH  22  23
ATOM     23  C   UNL     1       4.354   6.240  -3.836  0.00  0.00    +0.167 C 
BRANCH  23  24
ATOM     24  C   UNL     1       3.994   4.939  -3.176  0.00  0.00    +0.141 C 
BRANCH  24  25
ATOM     25  N   UNL     1       3.547   5.207  -1.812  0.00  0.00    -0.292 N 
ATOM     26  C   UNL     1       2.274   5.489  -1.444  0.00  0.00    +0.167 A 
ATOM     27  N   UNL     1       1.089   5.167  -1.977  0.00  0.00    -0.205 NA
ATOM     28  C   UNL     1      -0.045   5.409  -1.275  0.00  0.00    +0.202 A 
ATOM     29  N   UNL     1      -0.025   6.498  -0.477  0.00  0.00    -0.204 NA
ATOM     30  C   UNL     1       1.115   7.016   0.022  0.00  0.00    +0.192 A 
ATOM     31  N   UNL     1       1.209   8.364   0.491  0.00  0.00    -0.105 NA
ATOM     32  C   UNL     1       2.293   6.472  -0.468  0.00  0.00    +0.152 A 
ATOM     33  N   UNL     1       3.555   6.459   0.002  0.00  0.00    -0.219 NA
ATOM     34  C   UNL     1       4.293   5.609  -0.755  0.00  0.00    +0.180 A 
ENDBRANCH  24  25
ENDBRANCH  23  24
ENDBRANCH  22  23
ENDBRANCH  21  22
ENDBRANCH   1  21
TORSDOF 15
ENDMDL
MODEL 7
REMARK VINA RESULT:      -7.6      3.516      5.955
REMARK  Name = 
REMARK  15 active torsions:
REMARK  status: ('A' for Active; 'I' for Inactive)
REMARK    1  A    between atoms: C_2  and  C_5
REMARK    2  A    between atoms: C_5  and  O_7
REMARK    3  A    between atoms: O_7  and  C_8
REMARK    4  A    between atoms: C_8  and  O_9
REMARK    5  A    between atoms: O_9  and  P_10
REMARK    6  A    between atoms: P_10  and  C_12
REMARK    7  A    between atoms: P_10  and  O_26
REMARK    8  A    between atoms: C_12  and  O_13
REMARK    9  A    between atoms: O_13  and  C_14
REMARK   10  A    between atoms: C_14  and  C_15
REMARK   11  A    between atoms: C_15  and  N_16
REMARK   12  A    between atoms: O_26  and  C_27
REMARK   13  A    between atoms: C_27  and  O_28
REMARK   14  A    between atoms: O_28  and  C_29
REMARK   15  A    between atoms: C_29  and  C_31
REMARK                            x       y       z     vdW  Elec       q    Type
REMARK                         _______ _______ _______ _____ _____    ______ ____
ROOT
ATOM      1  P   UNL     1       1.798   4.864  -6.280  0.00  0.00    +0.378 P 
ATOM      2  O   UNL     1       2.261   3.439  -6.474  0.00  0.00    -0.255 OA
ENDROOT
BRANCH   1   3
ATOM      3  O   UNL     1       0.644   4.825  -5.031  0.00  0.00    -0.250 OA
BRANCH   3   4
ATOM      4  C   UNL     1       1.130   5.569  -3.950  0.00  0.00    +0.369 C 
BRANCH   4   5
ATOM      5  O   UNL     1       0.046   6.263  -3.384  0.00  0.00    -0.419 OA
BRANCH   5   6
ATOM      6  C   UNL     1      -1.198   5.667  -3.325  0.00  0.00    +0.318 C 
ATOM      7  O   UNL     1      -1.444   4.942  -2.316  0.00  0.00    -0.250 OA
BRANCH   6   8
ATOM      8  C   UNL     1      -2.357   6.345  -3.981  0.00  0.00    +0.090 C 
ATOM      9  C   UNL     1      -3.534   6.252  -3.043  0.00  0.00    +0.011 C 
ATOM     10  C   UNL     1      -1.989   7.796  -4.181  0.00  0.00    +0.011 C 
ATOM     11  C   UNL     1      -2.660   5.706  -5.330  0.00  0.00    +0.011 C 
ENDBRANCH   6   8
ENDBRANCH   5   6
ENDBRANCH   4   5
ENDBRANCH   3   4
ENDBRANCH   1   3
BRANCH   1  12
ATOM     12  O   UNL     1       1.171   5.540  -7.683  0.00  0.00    -0.250 OA
BRANCH  12  13
ATOM     13  C   UNL     1       1.512   6.879  -7.841  0.00  0.00    +0.369 C 
BRANCH  13  14
ATOM     14  O   UNL     1       1.387   7.221  -9.220  0.00  0.00    -0.419 OA
BRANCH  14  15
ATOM     15  C   UNL     1       1.623   6.281 -10.229  0.00  0.00    +0.318 C 
ATOM     16  O   UNL     1       2.827   6.220 -10.626  0.00  0.00    -0.250 OA
BRANCH  15  18
ATOM     17  C   UNL     1       0.012   4.664 -11.004  0.00  0.00    +0.011 C 
ATOM     18  C   UNL     1       0.602   6.035 -11.298  0.00  0.00    +0.090 C 
ATOM     19  C   UNL     1      -0.501   7.060 -11.273  0.00  0.00    +0.011 C 
ATOM     20  C   UNL     1       1.368   6.046 -12.607  0.00  0.00    +0.011 C 
ENDBRANCH  15  18
ENDBRANCH  14  15
ENDBRANCH  13  14
ENDBRANCH  12  13
ENDBRANCH   1  12
BRANCH   1  21
ATOM     21  C   UNL     1       3.214   5.900  -5.783  0.00  0.00    +0.258 C 
BRANCH  21  22
ATOM     22  O   UNL     1       4.312   5.027  -5.730  0.00  0.00    -0.340 OA
BRANCH  22  23
ATOM     23  C   UNL     1       4.710   4.872  -4.398  0.00  0.00    +0.167 C 
BRANCH  23  24
ATOM     24  C   UNL     1       4.826   6.194  -3.692  0.00  0.00    +0.141 C 
BRANCH  24  25
ATOM     25  N   UNL     1       4.230   6.076  -2.365  0.00  0.00    -0.292 N 
ATOM     26  C   UNL     1       4.087   7.089  -1.476  0.00  0.00    +0.167 A 
ATOM     27  N   UNL     1       3.956   8.413  -1.631  0.00  0.00    -0.205 NA
ATOM     28  C   UNL     1       3.613   9.177  -0.566  0.00  0.00    +0.202 A 
ATOM     29  N   UNL     1       4.068   8.758   0.635  0.00  0.00    -0.204 NA
ATOM     30  C   UNL     1       4.372   7.470   0.889  0.00  0.00    +0.192 A 
ATOM     31  N   UNL     1       5.233   7.079   1.963  0.00  0.00    -0.105 NA
ATOM     32  C   UNL     1       4.356   6.616  -0.202  0.00  0.00    +0.152 A 
ATOM     33  N   UNL     1       4.255   5.277  -0.311  0.00  0.00    -0.219 NA
ATOM     34  C   UNL     1       4.076   4.958  -1.616  0.00  0.00    +0.180 A 
ENDBRANCH  24  25
ENDBRANCH  23  24
ENDBRANCH  22  23
ENDBRANCH  21  22
ENDBRANCH   1  21
TORSDOF 15
ENDMDL
MODEL 8
REMARK VINA RESULT:      -7.6      1.808      4.488
REMARK  Name = 
REMARK  15 active torsions:
REMARK  status: ('A' for Active; 'I' for Inactive)
REMARK    1  A    between atoms: C_2  and  C_5
REMARK    2  A    between atoms: C_5  and  O_7
REMARK    3  A    between atoms: O_7  and  C_8
REMARK    4  A    between atoms: C_8  and  O_9
REMARK    5  A    between atoms: O_9  and  P_10
REMARK    6  A    between atoms: P_10  and  C_12
REMARK    7  A    between atoms: P_10  and  O_26
REMARK    8  A    between atoms: C_12  and  O_13
REMARK    9  A    between atoms: O_13  and  C_14
REMARK   10  A    between atoms: C_14  and  C_15
REMARK   11  A    between atoms: C_15  and  N_16
REMARK   12  A    between atoms: O_26  and  C_27
REMARK   13  A    between atoms: C_27  and  O_28
REMARK   14  A    between atoms: O_28  and  C_29
REMARK   15  A    between atoms: C_29  and  C_31
REMARK                            x       y       z     vdW  Elec       q    Type
REMARK                         _______ _______ _______ _____ _____    ______ ____
ROOT
ATOM      1  P   UNL     1       2.196   6.069  -9.107  0.00  0.00    +0.378 P 
ATOM      2  O   UNL     1       1.460   7.369  -9.332  0.00  0.00    -0.255 OA
ENDROOT
BRANCH   1   3
ATOM      3  O   UNL     1       3.575   6.454  -8.187  0.00  0.00    -0.250 OA
BRANCH   3   4
ATOM      4  C   UNL     1       3.161   6.895  -6.926  0.00  0.00    +0.369 C 
BRANCH   4   5
ATOM      5  O   UNL     1       4.106   6.449  -5.983  0.00  0.00    -0.419 OA
BRANCH   5   6
ATOM      6  C   UNL     1       3.682   5.932  -4.776  0.00  0.00    +0.318 C 
ATOM      7  O   UNL     1       3.377   4.702  -4.749  0.00  0.00    -0.250 OA
BRANCH   6   8
ATOM      8  C   UNL     1       4.190   6.540  -3.509  0.00  0.00    +0.090 C 
ATOM      9  C   UNL     1       3.188   7.574  -3.061  0.00  0.00    +0.011 C 
ATOM     10  C   UNL     1       4.275   5.442  -2.474  0.00  0.00    +0.011 C 
ATOM     11  C   UNL     1       5.571   7.147  -3.721  0.00  0.00    +0.011 C 
ENDBRANCH   6   8
ENDBRANCH   5   6
ENDBRANCH   4   5
ENDBRANCH   3   4
ENDBRANCH   1   3
BRANCH   1  12
ATOM     12  O   UNL     1       2.603   5.296 -10.540  0.00  0.00    -0.250 OA
BRANCH  12  13
ATOM     13  C   UNL     1       3.564   5.981 -11.275  0.00  0.00    +0.369 C 
BRANCH  13  14
ATOM     14  O   UNL     1       4.815   5.314 -11.122  0.00  0.00    -0.419 OA
BRANCH  14  15
ATOM     15  C   UNL     1       5.950   5.717 -11.834  0.00  0.00    +0.318 C 
ATOM     16  O   UNL     1       6.282   4.943 -12.783  0.00  0.00    -0.250 OA
BRANCH  15  18
ATOM     17  C   UNL     1       7.097   5.815  -9.715  0.00  0.00    +0.011 C 
ATOM     18  C   UNL     1       7.100   6.371 -11.132  0.00  0.00    +0.090 C 
ATOM     19  C   UNL     1       8.418   6.048 -11.783  0.00  0.00    +0.011 C 
ATOM     20  C   UNL     1       6.799   7.858 -11.149  0.00  0.00    +0.011 C 
ENDBRANCH  15  18
ENDBRANCH  14  15
ENDBRANCH  13  14
ENDBRANCH  12  13
ENDBRANCH   1  12
BRANCH   1  21
ATOM     21  C   UNL     1       1.130   4.922  -8.173  0.00  0.00    +0.258 C 
BRANCH  21  22
ATOM     22  O   UNL     1      -0.154   5.487  -8.220  0.00  0.00    -0.340 OA
BRANCH  22  23
ATOM     23  C   UNL     1      -0.829   5.189  -7.031  0.00  0.00    +0.167 C 
BRANCH  23  24
ATOM     24  C   UNL     1       0.122   4.987  -5.884  0.00  0.00    +0.141 C 
BRANCH  24  25
ATOM     25  N   UNL     1      -0.089   6.045  -4.902  0.00  0.00    -0.292 N 
ATOM     26  C   UNL     1      -0.069   5.883  -3.556  0.00  0.00    +0.167 A 
ATOM     27  N   UNL     1       0.557   5.003  -2.764  0.00  0.00    -0.205 NA
ATOM     28  C   UNL     1       0.567   5.205  -1.424  0.00  0.00    +0.202 A 
ATOM     29  N   UNL     1      -0.528   5.802  -0.906  0.00  0.00    -0.204 NA
ATOM     30  C   UNL     1      -1.329   6.608  -1.631  0.00  0.00    +0.192 A 
ATOM     31  N   UNL     1      -2.679   6.894  -1.253  0.00  0.00    -0.105 NA
ATOM     32  C   UNL     1      -1.068   6.658  -2.992  0.00  0.00    +0.152 A 
ATOM     33  N   UNL     1      -1.384   7.552  -3.948  0.00  0.00    -0.219 NA
ATOM     34  C   UNL     1      -0.707   7.237  -5.080  0.00  0.00    +0.180 A 
ENDBRANCH  24  25
ENDBRANCH  23  24
ENDBRANCH  22  23
ENDBRANCH  21  22
ENDBRANCH   1  21
TORSDOF 15
ENDMDL
MODEL 9
REMARK VINA RESULT:      -7.6      3.033      7.110
REMARK  Name = 
REMARK  15 active torsions:
REMARK  status: ('A' for Active; 'I' for Inactive)
REMARK    1  A    between atoms: C_2  and  C_5
REMARK    2  A    between atoms: C_5  and  O_7
REMARK    3  A    between atoms: O_7  and  C_8
REMARK    4  A    between atoms: C_8  and  O_9
REMARK    5  A    between atoms: O_9  and  P_10
REMARK    6  A    between atoms: P_10  and  C_12
REMARK    7  A    between atoms: P_10  and  O_26
REMARK    8  A    between atoms: C_12  and  O_13
REMARK    9  A    between atoms: O_13  and  C_14
REMARK   10  A    between atoms: C_14  and  C_15
REMARK   11  A    between atoms: C_15  and  N_16
REMARK   12  A    between atoms: O_26  and  C_27
REMARK   13  A    between atoms: C_27  and  O_28
REMARK   14  A    between atoms: O_28  and  C_29
REMARK   15  A    between atoms: C_29  and  C_31
REMARK                            x       y       z     vdW  Elec       q    Type
REMARK                         _______ _______ _______ _____ _____    ______ ____
ROOT
ATOM      1  P   UNL     1       2.255   6.816  -7.211  0.00  0.00    +0.378 P 
ATOM      2  O   UNL     1       2.113   8.238  -7.701  0.00  0.00    -0.255 OA
ENDROOT
BRANCH   1   3
ATOM      3  O   UNL     1       2.749   5.895  -8.553  0.00  0.00    -0.250 OA
BRANCH   3   4
ATOM      4  C   UNL     1       3.607   6.674  -9.337  0.00  0.00    +0.369 C 
BRANCH   4   5
ATOM      5  O   UNL     1       4.875   6.065  -9.321  0.00  0.00    -0.419 OA
BRANCH   5   6
ATOM      6  C   UNL     1       5.456   5.654 -10.504  0.00  0.00    +0.318 C 
ATOM      7  O   UNL     1       4.677   5.294 -11.436  0.00  0.00    -0.250 OA
BRANCH   6   8
ATOM      8  C   UNL     1       6.778   6.229 -10.900  0.00  0.00    +0.090 C 
ATOM      9  C   UNL     1       7.677   6.188  -9.690  0.00  0.00    +0.011 C 
ATOM     10  C   UNL     1       7.355   5.349 -11.984  0.00  0.00    +0.011 C 
ATOM     11  C   UNL     1       6.609   7.647 -11.430  0.00  0.00    +0.011 C 
ENDBRANCH   6   8
ENDBRANCH   5   6
ENDBRANCH   4   5
ENDBRANCH   3   4
ENDBRANCH   1   3
BRANCH   1  12
ATOM     12  O   UNL     1       0.839   6.217  -6.535  0.00  0.00    -0.250 OA
BRANCH  12  13
ATOM     13  C   UNL     1       0.961   5.932  -5.180  0.00  0.00    +0.369 C 
BRANCH  13  14
ATOM     14  O   UNL     1       0.136   6.835  -4.448  0.00  0.00    -0.419 OA
BRANCH  14  15
ATOM     15  C   UNL     1      -0.714   6.388  -3.430  0.00  0.00    +0.318 C 
ATOM     16  O   UNL     1      -0.359   5.299  -2.884  0.00  0.00    -0.250 OA
BRANCH  15  18
ATOM     17  C   UNL     1      -2.411   7.596  -4.644  0.00  0.00    +0.011 C 
ATOM     18  C   UNL     1      -2.196   6.579  -3.533  0.00  0.00    +0.090 C 
ATOM     19  C   UNL     1      -2.908   5.302  -3.891  0.00  0.00    +0.011 C 
ATOM     20  C   UNL     1      -2.634   7.123  -2.185  0.00  0.00    +0.011 C 
ENDBRANCH  15  18
ENDBRANCH  14  15
ENDBRANCH  13  14
ENDBRANCH  12  13
ENDBRANCH   1  12
BRANCH   1  21
ATOM     21  C   UNL     1       3.530   6.747  -5.910  0.00  0.00    +0.258 C 
BRANCH  21  22
ATOM     22  O   UNL     1       4.085   5.462  -6.002  0.00  0.00    -0.340 OA
BRANCH  22  23
ATOM     23  C   UNL     1       4.545   5.070  -4.740  0.00  0.00    +0.167 C 
BRANCH  23  24
ATOM     24  C   UNL     1       4.867   6.253  -3.871  0.00  0.00    +0.141 C 
BRANCH  24  25
ATOM     25  N   UNL     1       4.173   6.107  -2.595  0.00  0.00    -0.292 N 
ATOM     26  C   UNL     1       4.016   7.085  -1.670  0.00  0.00    +0.167 A 
ATOM     27  N   UNL     1       3.962   8.419  -1.769  0.00  0.00    -0.205 NA
ATOM     28  C   UNL     1       3.581   9.151  -0.694  0.00  0.00    +0.202 A 
ATOM     29  N   UNL     1       3.928   8.656   0.513  0.00  0.00    -0.204 NA
ATOM     30  C   UNL     1       4.150   7.344   0.725  0.00  0.00    +0.192 A 
ATOM     31  N   UNL     1       4.912   6.860   1.836  0.00  0.00    -0.105 NA
ATOM     32  C   UNL     1       4.170   6.541  -0.405  0.00  0.00    +0.152 A 
ATOM     33  N   UNL     1       4.013   5.216  -0.585  0.00  0.00    -0.219 NA
ATOM     34  C   UNL     1       3.912   4.965  -1.914  0.00  0.00    +0.180 A 
ENDBRANCH  24  25
ENDBRANCH  23  24
ENDBRANCH  22  23
ENDBRANCH  21  22
ENDBRANCH   1  21
TORSDOF 15
ENDMDL
