MODEL 1
REMARK VINA RESULT:      -7.7      0.000      0.000
REMARK  Name = 
REMARK  6 active torsions:
REMARK  status: ('A' for Active; 'I' for Inactive)
REMARK    1  A    between atoms: C_2  and  C_3
REMARK    2  A    between atoms: C_3  and  N_4
REMARK    3  A    between atoms: N_4  and  C_5
REMARK    4  A    between atoms: N_4  and  C_12
REMARK    5  A    between atoms: C_5  and  C_6
REMARK    6  A    between atoms: C_6  and  C_7
REMARK                            x       y       z     vdW  Elec       q    Type
REMARK                         _______ _______ _______ _____ _____    ______ ____
ROOT
ATOM      1  N   UNL     1       2.262   5.755  -9.411  0.00  0.00    -0.273 NA
ENDROOT
BRANCH   1   2
ATOM      2  C   UNL     1       3.501   6.668  -9.010  0.00  0.00    +0.062 C 
ATOM      3  C   UNL     1       4.537   5.376  -8.896  0.00  0.00    +0.042 C 
ATOM      4  C   UNL     1       5.672   5.654  -9.794  0.00  0.00    -0.022 A 
ATOM      5  C   UNL     1       5.308   5.270 -11.090  0.00  0.00    +0.013 A 
ATOM      6  C   UNL     1       6.225   5.335 -12.132  0.00  0.00    +0.191 A 
ATOM      7  C   UNL     1       7.535   5.501 -11.778  0.00  0.00    +0.042 A 
ATOM      8  C   UNL     1       7.912   5.820 -10.480  0.00  0.00    +0.003 A 
ATOM      9  O   UNL     1       5.761   4.956 -13.368  0.00  0.00    -0.287 OA
ATOM     10  C   UNL     1       3.870   5.662 -11.303  0.00  0.00    +0.031 C 
ATOM     11  C   UNL     1       6.987   5.745  -9.445  0.00  0.00    -0.004 A 
ATOM     12  C   UNL     1       3.821   6.998 -10.608  0.00  0.00    +0.021 C 
ENDBRANCH   1   2
BRANCH   1  13
ATOM     13  C   UNL     1       1.279   6.816  -9.640  0.00  0.00    +0.072 C 
BRANCH  13  15
ATOM     14  C   UNL     1      -0.038   6.438 -10.804  0.00  0.00    +0.001 C 
ATOM     15  C   UNL     1       0.215   6.360 -10.608  0.00  0.00    +0.017 C 
ENDBRANCH  13  15
ENDBRANCH   1  13
BRANCH   1  16
ATOM     16  C   UNL     1       1.829   5.128  -8.177  0.00  0.00    +0.077 C 
BRANCH  16  17
ATOM     17  C   UNL     1       1.473   6.310  -7.299  0.00  0.00    +0.050 C 
BRANCH  17  18
ATOM     18  C   UNL     1       0.216   6.119  -6.567  0.00  0.00    +0.009 A 
ATOM     19  S   UNL     1      -0.263   6.373  -4.941  0.00  0.00    -0.091 S 
ATOM     20  C   UNL     1      -1.852   5.727  -5.016  0.00  0.00    +0.035 A 
ATOM     21  C   UNL     1      -2.001   5.632  -6.396  0.00  0.00    +0.007 A 
ATOM     22  C   UNL     1      -0.821   5.304  -7.004  0.00  0.00    +0.003 A 
ENDBRANCH  17  18
ENDBRANCH  16  17
ENDBRANCH   1  16
TORSDOF 6
ENDMDL
MODEL 2
REMARK VINA RESULT:      -7.6      1.974      2.602
REMARK  Name = 
REMARK  6 active torsions:
REMARK  status: ('A' for Active; 'I' for Inactive)
REMARK    1  A    between atoms: C_2  and  C_3
REMARK    2  A    between atoms: C_3  and  N_4
REMARK    3  A    between atoms: N_4  and  C_5
REMARK    4  A    between atoms: N_4  and  C_12
REMARK    5  A    between atoms: C_5  and  C_6
REMARK    6  A    between atoms: C_6  and  C_7
REMARK                            x       y       z     vdW  Elec       q    Type
REMARK                         _______ _______ _______ _____ _____    ______ ____
ROOT
ATOM      1  N   UNL     1       2.753   5.413  -9.058  0.00  0.00    -0.273 NA
ENDROOT
BRANCH   1   2
ATOM      2  C   UNL     1       3.860   6.547  -8.922  0.00  0.00    +0.062 C 
ATOM      3  C   UNL     1       5.112   5.458  -8.919  0.00  0.00    +0.042 C 
ATOM      4  C   UNL     1       6.022   5.845 -10.011  0.00  0.00    -0.022 A 
ATOM      5  C   UNL     1       5.531   5.305 -11.204  0.00  0.00    +0.013 A 
ATOM      6  C   UNL     1       6.244   5.436 -12.390  0.00  0.00    +0.191 A 
ATOM      7  C   UNL     1       7.544   5.843 -12.273  0.00  0.00    +0.042 A 
ATOM      8  C   UNL     1       8.061   6.323 -11.077  0.00  0.00    +0.003 A 
ATOM      9  O   UNL     1       5.663   4.888 -13.507  0.00  0.00    -0.287 OA
ATOM     10  C   UNL     1       4.030   5.436 -11.189  0.00  0.00    +0.031 C 
ATOM     11  C   UNL     1       7.339   6.180  -9.897  0.00  0.00    -0.004 A 
ATOM     12  C   UNL     1       3.859   6.796 -10.566  0.00  0.00    +0.021 C 
ENDBRANCH   1   2
BRANCH   1  13
ATOM     13  C   UNL     1       1.568   6.243  -8.835  0.00  0.00    +0.072 C 
BRANCH  13  15
ATOM     14  C   UNL     1       0.178   5.939  -9.935  0.00  0.00    +0.001 C 
ATOM     15  C   UNL     1       0.458   5.855  -9.781  0.00  0.00    +0.017 C 
ENDBRANCH  13  15
ENDBRANCH   1  13
BRANCH   1  16
ATOM     16  C   UNL     1       2.865   4.619  -7.851  0.00  0.00    +0.077 C 
BRANCH  16  17
ATOM     17  C   UNL     1       2.337   5.549  -6.778  0.00  0.00    +0.050 C 
BRANCH  17  18
ATOM     18  C   UNL     1       3.022   5.384  -5.491  0.00  0.00    +0.009 A 
ATOM     19  S   UNL     1       2.526   5.515  -3.855  0.00  0.00    -0.091 S 
ATOM     20  C   UNL     1       4.047   5.297  -3.088  0.00  0.00    +0.035 A 
ATOM     21  C   UNL     1       4.791   4.834  -4.168  0.00  0.00    +0.007 A 
ATOM     22  C   UNL     1       4.402   5.432  -5.334  0.00  0.00    +0.003 A 
ENDBRANCH  17  18
ENDBRANCH  16  17
ENDBRANCH   1  16
TORSDOF 6
ENDMDL
MODEL 3
REMARK VINA RESULT:      -7.3      4.355      7.843
REMARK  Name = 
REMARK  6 active torsions:
REMARK  status: ('A' for Active; 'I' for Inactive)
REMARK    1  A    between atoms: C_2  and  C_3
REMARK    2  A    between atoms: C_3  and  N_4
REMARK    3  A    between atoms: N_4  and  C_5
REMARK    4  A    between atoms: N_4  and  C_12
REMARK    5  A    between atoms: C_5  and  C_6
REMARK    6  A    between atoms: C_6  and  C_7
REMARK                            x       y       z     vdW  Elec       q    Type
REMARK                         _______ _______ _______ _____ _____    ______ ____
ROOT
ATOM      1  N   UNL     1       2.071   5.371  -6.288  0.00  0.00    -0.273 NA
ENDROOT
BRANCH   1   2
ATOM      2  C   UNL     1       1.073   6.609  -6.286  0.00  0.00    +0.062 C 
ATOM      3  C   UNL     1      -0.277   5.643  -6.252  0.00  0.00    +0.042 C 
ATOM      4  C   UNL     1      -1.069   6.051  -5.079  0.00  0.00    -0.022 A 
ATOM      5  C   UNL     1      -0.553   5.401  -3.953  0.00  0.00    +0.013 A 
ATOM      6  C   UNL     1      -1.169   5.530  -2.714  0.00  0.00    +0.191 A 
ATOM      7  C   UNL     1      -2.428   6.063  -2.716  0.00  0.00    +0.042 A 
ATOM      8  C   UNL     1      -2.975   6.656  -3.846  0.00  0.00    +0.003 A 
ATOM      9  O   UNL     1      -0.570   4.868  -1.671  0.00  0.00    -0.287 OA
ATOM     10  C   UNL     1       0.948   5.392  -4.071  0.00  0.00    +0.031 C 
ATOM     11  C   UNL     1      -2.352   6.513  -5.081  0.00  0.00    -0.004 A 
ATOM     12  C   UNL     1       1.208   6.764  -4.636  0.00  0.00    +0.021 C 
ENDBRANCH   1   2
BRANCH   1  13
ATOM     13  C   UNL     1       3.314   6.099  -6.550  0.00  0.00    +0.072 C 
BRANCH  13  15
ATOM     14  C   UNL     1       4.621   5.683  -5.388  0.00  0.00    +0.001 C 
ATOM     15  C   UNL     1       4.417   5.619  -5.639  0.00  0.00    +0.017 C 
ENDBRANCH  13  15
ENDBRANCH   1  13
BRANCH   1  16
ATOM     16  C   UNL     1       1.804   4.662  -7.523  0.00  0.00    +0.077 C 
BRANCH  16  17
ATOM     17  C   UNL     1       2.328   5.610  -8.582  0.00  0.00    +0.050 C 
BRANCH  17  18
ATOM     18  C   UNL     1       1.651   5.455  -9.874  0.00  0.00    +0.009 A 
ATOM     19  S   UNL     1       2.054   5.874 -11.487  0.00  0.00    -0.091 S 
ATOM     20  C   UNL     1       0.588   5.433 -12.263  0.00  0.00    +0.035 A 
ATOM     21  C   UNL     1      -0.009   4.704 -11.239  0.00  0.00    +0.007 A 
ATOM     22  C   UNL     1       0.286   5.231 -10.013  0.00  0.00    +0.003 A 
ENDBRANCH  17  18
ENDBRANCH  16  17
ENDBRANCH   1  16
TORSDOF 6
ENDMDL
MODEL 4
REMARK VINA RESULT:      -7.3      3.888      6.784
REMARK  Name = 
REMARK  6 active torsions:
REMARK  status: ('A' for Active; 'I' for Inactive)
REMARK    1  A    between atoms: C_2  and  C_3
REMARK    2  A    between atoms: C_3  and  N_4
REMARK    3  A    between atoms: N_4  and  C_5
REMARK    4  A    between atoms: N_4  and  C_12
REMARK    5  A    between atoms: C_5  and  C_6
REMARK    6  A    between atoms: C_6  and  C_7
REMARK                            x       y       z     vdW  Elec       q    Type
REMARK                         _______ _______ _______ _____ _____    ______ ____
ROOT
ATOM      1  N   UNL     1       2.509   5.756  -8.622  0.00  0.00    -0.273 NA
ENDROOT
BRANCH   1   2
ATOM      2  C   UNL     1       3.291   4.630  -7.816  0.00  0.00    +0.062 C 
ATOM      3  C   UNL     1       4.090   5.732  -6.865  0.00  0.00    +0.042 C 
ATOM      4  C   UNL     1       3.800   5.380  -5.464  0.00  0.00    -0.022 A 
ATOM      5  C   UNL     1       2.569   5.945  -5.115  0.00  0.00    +0.013 A 
ATOM      6  C   UNL     1       2.087   5.851  -3.815  0.00  0.00    +0.191 A 
ATOM      7  C   UNL     1       2.985   5.453  -2.864  0.00  0.00    +0.042 A 
ATOM      8  C   UNL     1       4.235   4.949  -3.196  0.00  0.00    +0.003 A 
ATOM      9  O   UNL     1       0.859   6.420  -3.584  0.00  0.00    -0.287 OA
ATOM     10  C   UNL     1       1.642   5.799  -6.294  0.00  0.00    +0.031 C 
ATOM     11  C   UNL     1       4.708   5.056  -4.499  0.00  0.00    -0.004 A 
ATOM     12  C   UNL     1       2.003   4.422  -6.785  0.00  0.00    +0.021 C 
ENDBRANCH   1   2
BRANCH   1  13
ATOM     13  C   UNL     1       1.951   4.913  -9.681  0.00  0.00    +0.072 C 
BRANCH  13  15
ATOM     14  C   UNL     1       0.188   5.160  -9.932  0.00  0.00    +0.001 C 
ATOM     15  C   UNL     1       0.503   5.256  -9.931  0.00  0.00    +0.017 C 
ENDBRANCH  13  15
ENDBRANCH   1  13
BRANCH   1  16
ATOM     16  C   UNL     1       3.533   6.536  -9.288  0.00  0.00    +0.077 C 
BRANCH  16  17
ATOM     17  C   UNL     1       4.026   5.600 -10.372  0.00  0.00    +0.050 C 
BRANCH  17  18
ATOM     18  C   UNL     1       5.455   5.761 -10.660  0.00  0.00    +0.009 A 
ATOM     19  S   UNL     1       6.427   5.490 -12.046  0.00  0.00    -0.091 S 
ATOM     20  C   UNL     1       7.971   5.817 -11.370  0.00  0.00    +0.035 A 
ATOM     21  C   UNL     1       7.582   6.412 -10.174  0.00  0.00    +0.007 A 
ATOM     22  C   UNL     1       6.439   5.844  -9.682  0.00  0.00    +0.003 A 
ENDBRANCH  17  18
ENDBRANCH  16  17
ENDBRANCH   1  16
TORSDOF 6
ENDMDL
MODEL 5
REMARK VINA RESULT:      -7.2      3.933      8.281
REMARK  Name = 
REMARK  6 active torsions:
REMARK  status: ('A' for Active; 'I' for Inactive)
REMARK    1  A    between atoms: C_2  and  C_3
REMARK    2  A    between atoms: C_3  and  N_4
REMARK    3  A    between atoms: N_4  and  C_5
REMARK    4  A    between atoms: N_4  and  C_12
REMARK    5  A    between atoms: C_5  and  C_6
REMARK    6  A    between atoms: C_6  and  C_7
REMARK                            x       y       z     vdW  Elec       q    Type
REMARK                         _______ _______ _______ _____ _____    ______ ____
ROOT
ATOM      1  N   UNL     1       2.580   5.357  -5.747  0.00  0.00    -0.273 NA
ENDROOT
BRANCH   1   2
ATOM      2  C   UNL     1       1.690   6.670  -5.871  0.00  0.00    +0.062 C 
ATOM      3  C   UNL     1       0.299   5.813  -6.169  0.00  0.00    +0.042 C 
ATOM      4  C   UNL     1      -0.688   6.229  -5.158  0.00  0.00    -0.022 A 
ATOM      5  C   UNL     1      -0.460   5.488  -3.993  0.00  0.00    +0.013 A 
ATOM      6  C   UNL     1      -1.307   5.609  -2.898  0.00  0.00    +0.191 A 
ATOM      7  C   UNL     1      -2.500   6.240  -3.121  0.00  0.00    +0.042 A 
ATOM      8  C   UNL     1      -2.761   6.926  -4.300  0.00  0.00    +0.003 A 
ATOM      9  O   UNL     1      -0.983   4.855  -1.798  0.00  0.00    -0.287 OA
ATOM     10  C   UNL     1       1.029   5.366  -3.806  0.00  0.00    +0.031 C 
ATOM     11  C   UNL     1      -1.908   6.791  -5.390  0.00  0.00    -0.004 A 
ATOM     12  C   UNL     1       1.493   6.737  -4.221  0.00  0.00    +0.021 C 
ENDBRANCH   1   2
BRANCH   1  13
ATOM     13  C   UNL     1       3.820   5.983  -5.285  0.00  0.00    +0.072 C 
BRANCH  13  15
ATOM     14  C   UNL     1       4.754   4.864  -4.232  0.00  0.00    +0.001 C 
ATOM     15  C   UNL     1       4.667   4.993  -4.522  0.00  0.00    +0.017 C 
ENDBRANCH  13  15
ENDBRANCH   1  13
BRANCH   1  16
ATOM     16  C   UNL     1       2.868   4.957  -7.110  0.00  0.00    +0.077 C 
BRANCH  16  17
ATOM     17  C   UNL     1       3.275   6.257  -7.771  0.00  0.00    +0.050 C 
BRANCH  17  18
ATOM     18  C   UNL     1       4.367   6.090  -8.737  0.00  0.00    +0.009 A 
ATOM     19  S   UNL     1       4.527   6.400 -10.415  0.00  0.00    -0.091 S 
ATOM     20  C   UNL     1       6.096   5.750 -10.667  0.00  0.00    +0.035 A 
ATOM     21  C   UNL     1       6.506   5.606  -9.346  0.00  0.00    +0.007 A 
ATOM     22  C   UNL     1       5.462   5.259  -8.535  0.00  0.00    +0.003 A 
ENDBRANCH  17  18
ENDBRANCH  16  17
ENDBRANCH   1  16
TORSDOF 6
ENDMDL
MODEL 6
REMARK VINA RESULT:      -7.1      2.670      3.905
REMARK  Name = 
REMARK  6 active torsions:
REMARK  status: ('A' for Active; 'I' for Inactive)
REMARK    1  A    between atoms: C_2  and  C_3
REMARK    2  A    between atoms: C_3  and  N_4
REMARK    3  A    between atoms: N_4  and  C_5
REMARK    4  A    between atoms: N_4  and  C_12
REMARK    5  A    between atoms: C_5  and  C_6
REMARK    6  A    between atoms: C_6  and  C_7
REMARK                            x       y       z     vdW  Elec       q    Type
REMARK                         _______ _______ _______ _____ _____    ______ ____
ROOT
ATOM      1  N   UNL     1       2.960   5.662  -7.596  0.00  0.00    -0.273 NA
ENDROOT
BRANCH   1   2
ATOM      2  C   UNL     1       2.850   5.627  -9.182  0.00  0.00    +0.062 C 
ATOM      3  C   UNL     1       3.770   6.996  -9.372  0.00  0.00    +0.042 C 
ATOM      4  C   UNL     1       4.890   6.642 -10.260  0.00  0.00    -0.022 A 
ATOM      5  C   UNL     1       5.895   6.053  -9.485  0.00  0.00    +0.013 A 
ATOM      6  C   UNL     1       7.115   5.701 -10.052  0.00  0.00    +0.191 A 
ATOM      7  C   UNL     1       7.379   6.218 -11.290  0.00  0.00    +0.042 A 
ATOM      8  C   UNL     1       6.405   6.861 -12.043  0.00  0.00    +0.003 A 
ATOM      9  O   UNL     1       8.023   5.110  -9.209  0.00  0.00    -0.287 OA
ATOM     10  C   UNL     1       5.233   5.162  -8.468  0.00  0.00    +0.031 C 
ATOM     11  C   UNL     1       5.191   7.212 -11.462  0.00  0.00    -0.004 A 
ATOM     12  C   UNL     1       4.120   4.558  -9.283  0.00  0.00    +0.021 C 
ENDBRANCH   1   2
BRANCH   1  13
ATOM     13  C   UNL     1       1.682   5.023  -7.279  0.00  0.00    +0.072 C 
BRANCH  13  15
ATOM     14  C   UNL     1       2.092   3.564  -6.312  0.00  0.00    +0.001 C 
ATOM     15  C   UNL     1       1.900   3.741  -6.514  0.00  0.00    +0.017 C 
ENDBRANCH  13  15
ENDBRANCH   1  13
BRANCH   1  16
ATOM     16  C   UNL     1       2.767   7.050  -7.227  0.00  0.00    +0.077 C 
BRANCH  16  17
ATOM     17  C   UNL     1       2.216   6.957  -5.819  0.00  0.00    +0.050 C 
BRANCH  17  18
ATOM     18  C   UNL     1       3.256   7.061  -4.790  0.00  0.00    +0.009 A 
ATOM     19  S   UNL     1       3.231   7.330  -3.097  0.00  0.00    -0.091 S 
ATOM     20  C   UNL     1       4.921   7.435  -2.808  0.00  0.00    +0.035 A 
ATOM     21  C   UNL     1       5.396   6.948  -4.022  0.00  0.00    +0.007 A 
ATOM     22  C   UNL     1       4.593   7.327  -5.061  0.00  0.00    +0.003 A 
ENDBRANCH  17  18
ENDBRANCH  16  17
ENDBRANCH   1  16
TORSDOF 6
ENDMDL
MODEL 7
REMARK VINA RESULT:      -7.0      2.642      4.581
REMARK  Name = 
REMARK  6 active torsions:
REMARK  status: ('A' for Active; 'I' for Inactive)
REMARK    1  A    between atoms: C_2  and  C_3
REMARK    2  A    between atoms: C_3  and  N_4
REMARK    3  A    between atoms: N_4  and  C_5
REMARK    4  A    between atoms: N_4  and  C_12
REMARK    5  A    between atoms: C_5  and  C_6
REMARK    6  A    between atoms: C_6  and  C_7
REMARK                            x       y       z     vdW  Elec       q    Type
REMARK                         _______ _______ _______ _____ _____    ______ ____
ROOT
ATOM      1  N   UNL     1       2.357   5.721  -6.001  0.00  0.00    -0.273 NA
ENDROOT
BRANCH   1   2
ATOM      2  C   UNL     1       1.566   4.626  -6.840  0.00  0.00    +0.062 C 
ATOM      3  C   UNL     1       0.735   5.762  -7.720  0.00  0.00    +0.042 C 
ATOM      4  C   UNL     1       0.993   5.479  -9.142  0.00  0.00    -0.022 A 
ATOM      5  C   UNL     1       2.211   6.072  -9.493  0.00  0.00    +0.013 A 
ATOM      6  C   UNL     1       2.663   6.043 -10.807  0.00  0.00    +0.191 A 
ATOM      7  C   UNL     1       1.746   5.681 -11.755  0.00  0.00    +0.042 A 
ATOM      8  C   UNL     1       0.508   5.150 -11.417  0.00  0.00    +0.003 A 
ATOM      9  O   UNL     1       3.879   6.635 -11.040  0.00  0.00    -0.287 OA
ATOM     10  C   UNL     1       3.167   5.881  -8.345  0.00  0.00    +0.031 C 
ATOM     11  C   UNL     1       0.066   5.191 -10.099  0.00  0.00    -0.004 A 
ATOM     12  C   UNL     1       2.830   4.479  -7.910  0.00  0.00    +0.021 C 
ENDBRANCH   1   2
BRANCH   1  13
ATOM     13  C   UNL     1       2.890   4.846  -4.956  0.00  0.00    +0.072 C 
BRANCH  13  15
ATOM     14  C   UNL     1       4.641   5.035  -4.591  0.00  0.00    +0.001 C 
ATOM     15  C   UNL     1       4.349   5.139  -4.705  0.00  0.00    +0.017 C 
ENDBRANCH  13  15
ENDBRANCH   1  13
BRANCH   1  16
ATOM     16  C   UNL     1       1.339   6.502  -5.328  0.00  0.00    +0.077 C 
BRANCH  16  17
ATOM     17  C   UNL     1       0.734   5.511  -4.355  0.00  0.00    +0.050 C 
BRANCH  17  18
ATOM     18  C   UNL     1      -0.644   5.846  -3.980  0.00  0.00    +0.009 A 
ATOM     19  S   UNL     1      -1.597   5.569  -2.582  0.00  0.00    -0.091 S 
ATOM     20  C   UNL     1      -3.096   6.191  -3.142  0.00  0.00    +0.035 A 
ATOM     21  C   UNL     1      -2.664   6.851  -4.288  0.00  0.00    +0.007 A 
ATOM     22  C   UNL     1      -1.638   6.180  -4.893  0.00  0.00    +0.003 A 
ENDBRANCH  17  18
ENDBRANCH  16  17
ENDBRANCH   1  16
TORSDOF 6
ENDMDL
MODEL 8
REMARK VINA RESULT:      -6.9      1.619      2.995
REMARK  Name = 
REMARK  6 active torsions:
REMARK  status: ('A' for Active; 'I' for Inactive)
REMARK    1  A    between atoms: C_2  and  C_3
REMARK    2  A    between atoms: C_3  and  N_4
REMARK    3  A    between atoms: N_4  and  C_5
REMARK    4  A    between atoms: N_4  and  C_12
REMARK    5  A    between atoms: C_5  and  C_6
REMARK    6  A    between atoms: C_6  and  C_7
REMARK                            x       y       z     vdW  Elec       q    Type
REMARK                         _______ _______ _______ _____ _____    ______ ____
ROOT
ATOM      1  N   UNL     1       2.705   5.533  -7.519  0.00  0.00    -0.273 NA
ENDROOT
BRANCH   1   2
ATOM      2  C   UNL     1       2.575   4.728  -8.884  0.00  0.00    +0.062 C 
ATOM      3  C   UNL     1       2.916   6.061  -9.813  0.00  0.00    +0.042 C 
ATOM      4  C   UNL     1       4.064   5.709 -10.666  0.00  0.00    -0.022 A 
ATOM      5  C   UNL     1       5.236   5.903  -9.926  0.00  0.00    +0.013 A 
ATOM      6  C   UNL     1       6.484   5.735 -10.515  0.00  0.00    +0.191 A 
ATOM      7  C   UNL     1       6.505   5.667 -11.880  0.00  0.00    +0.042 A 
ATOM      8  C   UNL     1       5.343   5.537 -12.629  0.00  0.00    +0.003 A 
ATOM      9  O   UNL     1       7.568   5.929  -9.696  0.00  0.00    -0.287 OA
ATOM     10  C   UNL     1       4.978   5.433  -8.519  0.00  0.00    +0.031 C 
ATOM     11  C   UNL     1       4.101   5.714 -12.029  0.00  0.00    -0.004 A 
ATOM     12  C   UNL     1       4.148   4.201  -8.766  0.00  0.00    +0.021 C 
ENDBRANCH   1   2
BRANCH   1  13
ATOM     13  C   UNL     1       2.385   4.443  -6.596  0.00  0.00    +0.072 C 
BRANCH  13  15
ATOM     14  C   UNL     1       3.291   4.784  -5.081  0.00  0.00    +0.001 C 
ATOM     15  C   UNL     1       3.161   4.585  -5.310  0.00  0.00    +0.017 C 
ENDBRANCH  13  15
ENDBRANCH   1  13
BRANCH   1  16
ATOM     16  C   UNL     1       1.543   6.397  -7.468  0.00  0.00    +0.077 C 
BRANCH  16  17
ATOM     17  C   UNL     1       0.388   5.417  -7.443  0.00  0.00    +0.050 C 
BRANCH  17  18
ATOM     18  C   UNL     1      -0.613   5.739  -6.421  0.00  0.00    +0.009 A 
ATOM     19  S   UNL     1      -0.534   6.070  -4.741  0.00  0.00    -0.091 S 
ATOM     20  C   UNL     1      -2.213   6.176  -4.400  0.00  0.00    +0.035 A 
ATOM     21  C   UNL     1      -2.712   6.242  -5.697  0.00  0.00    +0.007 A 
ATOM     22  C   UNL     1      -1.972   5.479  -6.556  0.00  0.00    +0.003 A 
ENDBRANCH  17  18
ENDBRANCH  16  17
ENDBRANCH   1  16
TORSDOF 6
ENDMDL
MODEL 9
REMARK VINA RESULT:      -6.9      4.406      7.883
REMARK  Name = 
REMARK  6 active torsions:
REMARK  status: ('A' for Active; 'I' for Inactive)
REMARK    1  A    between atoms: C_2  and  C_3
REMARK    2  A    between atoms: C_3  and  N_4
REMARK    3  A    between atoms: N_4  and  C_5
REMARK    4  A    between atoms: N_4  and  C_12
REMARK    5  A    between atoms: C_5  and  C_6
REMARK    6  A    between atoms: C_6  and  C_7
REMARK                            x       y       z     vdW  Elec       q    Type
REMARK                         _______ _______ _______ _____ _____    ______ ____
ROOT
ATOM      1  N   UNL     1       1.808   5.804  -6.081  0.00  0.00    -0.273 NA
ENDROOT
BRANCH   1   2
ATOM      2  C   UNL     1       0.627   4.802  -5.719  0.00  0.00    +0.062 C 
ATOM      3  C   UNL     1       0.655   5.202  -4.108  0.00  0.00    +0.042 C 
ATOM      4  C   UNL     1      -0.705   5.639  -3.749  0.00  0.00    -0.022 A 
ATOM      5  C   UNL     1      -0.839   6.987  -4.100  0.00  0.00    +0.013 A 
ATOM      6  C   UNL     1      -1.998   7.689  -3.790  0.00  0.00    +0.191 A 
ATOM      7  C   UNL     1      -2.844   7.097  -2.893  0.00  0.00    +0.042 A 
ATOM      8  C   UNL     1      -2.683   5.778  -2.490  0.00  0.00    +0.003 A 
ATOM      9  O   UNL     1      -2.036   8.999  -4.197  0.00  0.00    -0.287 OA
ATOM     10  C   UNL     1      -0.142   7.194  -5.418  0.00  0.00    +0.031 C 
ATOM     11  C   UNL     1      -1.517   5.089  -2.801  0.00  0.00    -0.004 A 
ATOM     12  C   UNL     1      -0.513   5.932  -6.151  0.00  0.00    +0.021 C 
ENDBRANCH   1   2
BRANCH   1  13
ATOM     13  C   UNL     1       1.870   5.549  -7.522  0.00  0.00    +0.072 C 
BRANCH  13  15
ATOM     14  C   UNL     1       2.217   6.987  -8.544  0.00  0.00    +0.001 C 
ATOM     15  C   UNL     1       2.086   6.835  -8.283  0.00  0.00    +0.017 C 
ENDBRANCH  13  15
ENDBRANCH   1  13
BRANCH   1  16
ATOM     16  C   UNL     1       3.011   5.188  -5.558  0.00  0.00    +0.077 C 
BRANCH  16  17
ATOM     17  C   UNL     1       3.873   6.377  -5.190  0.00  0.00    +0.050 C 
BRANCH  17  18
ATOM     18  C   UNL     1       3.983   6.577  -3.741  0.00  0.00    +0.009 A 
ATOM     19  S   UNL     1       4.083   5.516  -2.398  0.00  0.00    -0.091 S 
ATOM     20  C   UNL     1       4.027   6.671  -1.128  0.00  0.00    +0.035 A 
ATOM     21  C   UNL     1       4.237   7.835  -1.861  0.00  0.00    +0.007 A 
ATOM     22  C   UNL     1       3.652   7.762  -3.093  0.00  0.00    +0.003 A 
ENDBRANCH  17  18
ENDBRANCH  16  17
ENDBRANCH   1  16
TORSDOF 6
ENDMDL
