MODEL 1
REMARK VINA RESULT:      -7.0      0.000      0.000
REMARK  Name = 
REMARK  4 active torsions:
REMARK  status: ('A' for Active; 'I' for Inactive)
REMARK    1  A    between atoms: C_2  and  C_3
REMARK    2  A    between atoms: N_5  and  C_6
REMARK    3  A    between atoms: C_6  and  C_7
REMARK    4  A    between atoms: C_7  and  C_8
REMARK                            x       y       z     vdW  Elec       q    Type
REMARK                         _______ _______ _______ _____ _____    ______ ____
ROOT
ATOM      1  C   UNL     1      -1.300   5.905  -5.321  0.00  0.00    +0.024 C 
ATOM      2  C   UNL     1      -1.445   5.736  -3.738  0.00  0.00    -0.027 A 
ATOM      3  C   UNL     1      -2.376   6.743  -3.471  0.00  0.00    -0.026 A 
ATOM      4  C   UNL     1      -3.048   6.550  -2.269  0.00  0.00    -0.001 A 
ATOM      5  C   UNL     1      -2.322   5.900  -1.268  0.00  0.00    +0.036 A 
ATOM      6  C   UNL     1      -0.977   5.588  -1.452  0.00  0.00    +0.134 A 
ATOM      7  O   UNL     1       0.173   5.683  -0.665  0.00  0.00    -0.475 OA
ATOM      8  C   UNL     1       1.249   6.156  -1.474  0.00  0.00    +0.210 C 
ATOM      9  C   UNL     1       0.967   5.446  -2.761  0.00  0.00    +0.076 C 
ATOM     10  C   UNL     1      -2.341   7.787  -4.538  0.00  0.00    +0.026 C 
ATOM     11  C   UNL     1      -0.540   5.416  -2.764  0.00  0.00    +0.011 A 
ATOM     12  C   UNL     1      -0.951   7.490  -5.113  0.00  0.00    +0.009 C 
ENDROOT
BRANCH   1  13
ATOM     13  C   UNL     1       0.282   5.484  -5.435  0.00  0.00    +0.028 C 
BRANCH  13  14
ATOM     14  C   UNL     1       0.746   6.761  -6.138  0.00  0.00    +0.115 C 
BRANCH  14  16
ATOM     15  C   UNL     1       2.342   7.170  -8.082  0.00  0.00    +0.241 C 
ATOM     16  N   UNL     1       1.734   6.368  -7.101  0.00  0.00    -0.205 NA
ATOM     17  O   UNL     1       2.233   8.419  -7.918  0.00  0.00    -0.273 OA
BRANCH  15  19
ATOM     18  C   UNL     1       4.143   5.952  -8.486  0.00  0.00    +0.010 C 
ATOM     19  C   UNL     1       3.382   6.605  -9.003  0.00  0.00    +0.087 C 
ENDBRANCH  15  19
ENDBRANCH  14  16
ENDBRANCH  13  14
ENDBRANCH   1  13
TORSDOF 4
ENDMDL
MODEL 2
REMARK VINA RESULT:      -7.0      2.115      7.063
REMARK  Name = 
REMARK  4 active torsions:
REMARK  status: ('A' for Active; 'I' for Inactive)
REMARK    1  A    between atoms: C_2  and  C_3
REMARK    2  A    between atoms: N_5  and  C_6
REMARK    3  A    between atoms: C_6  and  C_7
REMARK    4  A    between atoms: C_7  and  C_8
REMARK                            x       y       z     vdW  Elec       q    Type
REMARK                         _______ _______ _______ _____ _____    ______ ____
ROOT
ATOM      1  C   UNL     1       2.536   4.972  -5.297  0.00  0.00    +0.024 C 
ATOM      2  C   UNL     1       2.928   4.900  -6.846  0.00  0.00    -0.027 A 
ATOM      3  C   UNL     1       4.120   5.629  -6.829  0.00  0.00    -0.026 A 
ATOM      4  C   UNL     1       4.934   5.356  -7.923  0.00  0.00    -0.001 A 
ATOM      5  C   UNL     1       4.267   5.016  -9.102  0.00  0.00    +0.036 A 
ATOM      6  C   UNL     1       2.877   5.073  -9.176  0.00  0.00    +0.134 A 
ATOM      7  O   UNL     1       1.961   5.546 -10.118  0.00  0.00    -0.475 OA
ATOM      8  C   UNL     1       0.910   6.230  -9.437  0.00  0.00    +0.210 C 
ATOM      9  C   UNL     1       0.752   5.367  -8.224  0.00  0.00    +0.076 C 
ATOM     10  C   UNL     1       4.155   6.551  -5.655  0.00  0.00    +0.026 C 
ATOM     11  C   UNL     1       2.172   4.922  -7.984  0.00  0.00    +0.011 A 
ATOM     12  C   UNL     1       2.652   6.604  -5.352  0.00  0.00    +0.009 C 
ENDROOT
BRANCH   1  13
ATOM     13  C   UNL     1       0.907   4.997  -5.493  0.00  0.00    +0.028 C 
BRANCH  13  14
ATOM     14  C   UNL     1       0.602   5.850  -4.260  0.00  0.00    +0.115 C 
BRANCH  14  16
ATOM     15  C   UNL     1      -1.642   5.351  -3.162  0.00  0.00    +0.241 C 
ATOM     16  N   UNL     1      -0.827   5.925  -4.152  0.00  0.00    -0.205 NA
ATOM     17  O   UNL     1      -1.052   4.981  -2.107  0.00  0.00    -0.273 OA
BRANCH  15  19
ATOM     18  C   UNL     1      -3.481   6.434  -2.580  0.00  0.00    +0.010 C 
ATOM     19  C   UNL     1      -3.129   5.545  -3.180  0.00  0.00    +0.087 C 
ENDBRANCH  15  19
ENDBRANCH  14  16
ENDBRANCH  13  14
ENDBRANCH   1  13
TORSDOF 4
ENDMDL
MODEL 3
REMARK VINA RESULT:      -7.0      2.690      7.097
REMARK  Name = 
REMARK  4 active torsions:
REMARK  status: ('A' for Active; 'I' for Inactive)
REMARK    1  A    between atoms: C_2  and  C_3
REMARK    2  A    between atoms: N_5  and  C_6
REMARK    3  A    between atoms: C_6  and  C_7
REMARK    4  A    between atoms: C_7  and  C_8
REMARK                            x       y       z     vdW  Elec       q    Type
REMARK                         _______ _______ _______ _____ _____    ______ ____
ROOT
ATOM      1  C   UNL     1       1.364   5.591  -6.831  0.00  0.00    +0.024 C 
ATOM      2  C   UNL     1       2.576   5.247  -7.815  0.00  0.00    -0.027 A 
ATOM      3  C   UNL     1       3.606   5.953  -7.187  0.00  0.00    -0.026 A 
ATOM      4  C   UNL     1       4.869   5.485  -7.533  0.00  0.00    -0.001 A 
ATOM      5  C   UNL     1       4.985   4.954  -8.820  0.00  0.00    +0.036 A 
ATOM      6  C   UNL     1       3.919   5.015  -9.714  0.00  0.00    +0.134 A 
ATOM      7  O   UNL     1       3.787   5.329 -11.069  0.00  0.00    -0.475 OA
ATOM      8  C   UNL     1       2.622   6.134 -11.245  0.00  0.00    +0.210 C 
ATOM      9  C   UNL     1       1.688   5.497 -10.264  0.00  0.00    +0.076 C 
ATOM     10  C   UNL     1       3.052   7.064  -6.357  0.00  0.00    +0.026 C 
ATOM     11  C   UNL     1       2.638   5.081  -9.170  0.00  0.00    +0.011 A 
ATOM     12  C   UNL     1       1.674   7.187  -7.020  0.00  0.00    +0.009 C 
ENDROOT
BRANCH   1  13
ATOM     13  C   UNL     1       0.173   5.603  -7.960  0.00  0.00    +0.028 C 
BRANCH  13  14
ATOM     14  C   UNL     1      -0.896   4.945  -7.084  0.00  0.00    +0.115 C 
BRANCH  14  16
ATOM     15  C   UNL     1      -1.760   6.138  -5.006  0.00  0.00    +0.241 C 
ATOM     16  N   UNL     1      -1.573   6.004  -6.392  0.00  0.00    -0.205 NA
ATOM     17  O   UNL     1      -1.018   5.421  -4.276  0.00  0.00    -0.273 OA
BRANCH  15  19
ATOM     18  C   UNL     1      -1.886   8.287  -4.499  0.00  0.00    +0.010 C 
ATOM     19  C   UNL     1      -2.475   7.327  -4.437  0.00  0.00    +0.087 C 
ENDBRANCH  15  19
ENDBRANCH  14  16
ENDBRANCH  13  14
ENDBRANCH   1  13
TORSDOF 4
ENDMDL
MODEL 4
REMARK VINA RESULT:      -6.9      3.273      4.957
REMARK  Name = 
REMARK  4 active torsions:
REMARK  status: ('A' for Active; 'I' for Inactive)
REMARK    1  A    between atoms: C_2  and  C_3
REMARK    2  A    between atoms: N_5  and  C_6
REMARK    3  A    between atoms: C_6  and  C_7
REMARK    4  A    between atoms: C_7  and  C_8
REMARK                            x       y       z     vdW  Elec       q    Type
REMARK                         _______ _______ _______ _____ _____    ______ ____
ROOT
ATOM      1  C   UNL     1       2.978   5.517  -8.668  0.00  0.00    +0.024 C 
ATOM      2  C   UNL     1       1.819   5.273  -7.594  0.00  0.00    -0.027 A 
ATOM      3  C   UNL     1       0.738   5.849  -8.267  0.00  0.00    -0.026 A 
ATOM      4  C   UNL     1      -0.490   5.391  -7.805  0.00  0.00    -0.001 A 
ATOM      5  C   UNL     1      -0.535   5.042  -6.454  0.00  0.00    +0.036 A 
ATOM      6  C   UNL     1       0.561   5.263  -5.623  0.00  0.00    +0.134 A 
ATOM      7  O   UNL     1       0.732   5.767  -4.332  0.00  0.00    -0.475 OA
ATOM      8  C   UNL     1       1.871   6.628  -4.320  0.00  0.00    +0.210 C 
ATOM      9  C   UNL     1       2.791   5.892  -5.243  0.00  0.00    +0.076 C 
ATOM     10  C   UNL     1       1.216   6.852  -9.265  0.00  0.00    +0.026 C 
ATOM     11  C   UNL     1       1.817   5.296  -6.227  0.00  0.00    +0.011 A 
ATOM     12  C   UNL     1       2.613   7.112  -8.687  0.00  0.00    +0.009 C 
ENDROOT
BRANCH   1  13
ATOM     13  C   UNL     1       4.210   5.726  -7.604  0.00  0.00    +0.028 C 
BRANCH  13  14
ATOM     14  C   UNL     1       5.259   4.953  -8.406  0.00  0.00    +0.115 C 
BRANCH  14  16
ATOM     15  C   UNL     1       7.039   6.069  -9.847  0.00  0.00    +0.241 C 
ATOM     16  N   UNL     1       5.713   5.829  -9.447  0.00  0.00    -0.205 NA
ATOM     17  O   UNL     1       7.894   5.224  -9.459  0.00  0.00    -0.273 OA
BRANCH  15  19
ATOM     18  C   UNL     1       6.540   7.774 -11.165  0.00  0.00    +0.010 C 
ATOM     19  C   UNL     1       7.344   7.005 -10.979  0.00  0.00    +0.087 C 
ENDBRANCH  15  19
ENDBRANCH  14  16
ENDBRANCH  13  14
ENDBRANCH   1  13
TORSDOF 4
ENDMDL
MODEL 5
REMARK VINA RESULT:      -6.9      2.036      2.156
REMARK  Name = 
REMARK  4 active torsions:
REMARK  status: ('A' for Active; 'I' for Inactive)
REMARK    1  A    between atoms: C_2  and  C_3
REMARK    2  A    between atoms: N_5  and  C_6
REMARK    3  A    between atoms: C_6  and  C_7
REMARK    4  A    between atoms: C_7  and  C_8
REMARK                            x       y       z     vdW  Elec       q    Type
REMARK                         _______ _______ _______ _____ _____    ______ ____
ROOT
ATOM      1  C   UNL     1      -0.884   5.642  -5.330  0.00  0.00    +0.024 C 
ATOM      2  C   UNL     1      -1.416   5.627  -3.822  0.00  0.00    -0.027 A 
ATOM      3  C   UNL     1      -2.313   6.698  -3.871  0.00  0.00    -0.026 A 
ATOM      4  C   UNL     1      -3.266   6.648  -2.860  0.00  0.00    -0.001 A 
ATOM      5  C   UNL     1      -2.849   6.059  -1.664  0.00  0.00    +0.036 A 
ATOM      6  C   UNL     1      -1.524   5.666  -1.488  0.00  0.00    +0.134 A 
ATOM      7  O   UNL     1      -0.594   5.778  -0.452  0.00  0.00    -0.475 OA
ATOM      8  C   UNL     1       0.675   6.123  -1.006  0.00  0.00    +0.210 C 
ATOM      9  C   UNL     1       0.663   5.312  -2.264  0.00  0.00    +0.076 C 
ATOM     10  C   UNL     1      -1.951   7.636  -4.974  0.00  0.00    +0.026 C 
ATOM     11  C   UNL     1      -0.797   5.354  -2.635  0.00  0.00    +0.011 A 
ATOM     12  C   UNL     1      -0.486   7.221  -5.165  0.00  0.00    +0.009 C 
ENDROOT
BRANCH   1  13
ATOM     13  C   UNL     1       0.646   5.138  -5.019  0.00  0.00    +0.028 C 
BRANCH  13  14
ATOM     14  C   UNL     1       1.353   6.266  -5.771  0.00  0.00    +0.115 C 
BRANCH  14  16
ATOM     15  C   UNL     1       3.526   6.868  -4.586  0.00  0.00    +0.241 C 
ATOM     16  N   UNL     1       2.755   6.131  -5.500  0.00  0.00    -0.205 NA
ATOM     17  O   UNL     1       2.879   7.510  -3.710  0.00  0.00    -0.273 OA
BRANCH  15  19
ATOM     18  C   UNL     1       5.605   7.497  -4.168  0.00  0.00    +0.010 C 
ATOM     19  C   UNL     1       4.987   6.583  -4.404  0.00  0.00    +0.087 C 
ENDBRANCH  15  19
ENDBRANCH  14  16
ENDBRANCH  13  14
ENDBRANCH   1  13
TORSDOF 4
ENDMDL
MODEL 6
REMARK VINA RESULT:      -6.8      6.678      8.391
REMARK  Name = 
REMARK  4 active torsions:
REMARK  status: ('A' for Active; 'I' for Inactive)
REMARK    1  A    between atoms: C_2  and  C_3
REMARK    2  A    between atoms: N_5  and  C_6
REMARK    3  A    between atoms: C_6  and  C_7
REMARK    4  A    between atoms: C_7  and  C_8
REMARK                            x       y       z     vdW  Elec       q    Type
REMARK                         _______ _______ _______ _____ _____    ______ ____
ROOT
ATOM      1  C   UNL     1       3.399   6.050  -9.110  0.00  0.00    +0.024 C 
ATOM      2  C   UNL     1       2.270   5.870 -10.229  0.00  0.00    -0.027 A 
ATOM      3  C   UNL     1       1.557   4.799  -9.683  0.00  0.00    -0.026 A 
ATOM      4  C   UNL     1       0.261   4.708 -10.178  0.00  0.00    -0.001 A 
ATOM      5  C   UNL     1       0.082   5.151 -11.491  0.00  0.00    +0.036 A 
ATOM      6  C   UNL     1       1.173   5.539 -12.266  0.00  0.00    +0.134 A 
ATOM      7  O   UNL     1       1.572   5.314 -13.585  0.00  0.00    -0.475 OA
ATOM      8  C   UNL     1       2.977   5.061 -13.605  0.00  0.00    +0.210 C 
ATOM      9  C   UNL     1       3.451   6.021 -12.560  0.00  0.00    +0.076 C 
ATOM     10  C   UNL     1       2.421   4.010  -8.755  0.00  0.00    +0.026 C 
ATOM     11  C   UNL     1       2.299   6.003 -11.589  0.00  0.00    +0.011 A 
ATOM     12  C   UNL     1       3.793   4.469  -9.265  0.00  0.00    +0.009 C 
ENDROOT
BRANCH   1  13
ATOM     13  C   UNL     1       4.608   6.536 -10.107  0.00  0.00    +0.028 C 
BRANCH  13  14
ATOM     14  C   UNL     1       5.702   5.666  -9.483  0.00  0.00    +0.115 C 
BRANCH  14  16
ATOM     15  C   UNL     1       7.712   6.368 -10.881  0.00  0.00    +0.241 C 
ATOM     16  N   UNL     1       6.703   5.472 -10.492  0.00  0.00    -0.205 NA
ATOM     17  O   UNL     1       7.952   7.313 -10.077  0.00  0.00    -0.273 OA
BRANCH  15  19
ATOM     18  C   UNL     1       8.234   5.780 -12.949  0.00  0.00    +0.010 C 
ATOM     19  C   UNL     1       8.702   5.998 -11.945  0.00  0.00    +0.087 C 
ENDBRANCH  15  19
ENDBRANCH  14  16
ENDBRANCH  13  14
ENDBRANCH   1  13
TORSDOF 4
ENDMDL
MODEL 7
REMARK VINA RESULT:      -6.7      2.851      4.800
REMARK  Name = 
REMARK  4 active torsions:
REMARK  status: ('A' for Active; 'I' for Inactive)
REMARK    1  A    between atoms: C_2  and  C_3
REMARK    2  A    between atoms: N_5  and  C_6
REMARK    3  A    between atoms: C_6  and  C_7
REMARK    4  A    between atoms: C_7  and  C_8
REMARK                            x       y       z     vdW  Elec       q    Type
REMARK                         _______ _______ _______ _____ _____    ______ ____
ROOT
ATOM      1  C   UNL     1       2.677   6.804  -6.994  0.00  0.00    +0.024 C 
ATOM      2  C   UNL     1       3.109   7.111  -5.485  0.00  0.00    -0.027 A 
ATOM      3  C   UNL     1       4.417   6.617  -5.502  0.00  0.00    -0.026 A 
ATOM      4  C   UNL     1       5.206   7.150  -4.489  0.00  0.00    -0.001 A 
ATOM      5  C   UNL     1       4.534   7.483  -3.311  0.00  0.00    +0.036 A 
ATOM      6  C   UNL     1       3.185   7.178  -3.150  0.00  0.00    +0.134 A 
ATOM      7  O   UNL     1       2.413   6.645  -2.115  0.00  0.00    -0.475 OA
ATOM      8  C   UNL     1       1.486   5.710  -2.665  0.00  0.00    +0.210 C 
ATOM      9  C   UNL     1       1.119   6.396  -3.943  0.00  0.00    +0.076 C 
ATOM     10  C   UNL     1       4.580   5.599  -6.582  0.00  0.00    +0.026 C 
ATOM     11  C   UNL     1       2.417   7.069  -4.307  0.00  0.00    +0.011 A 
ATOM     12  C   UNL     1       3.104   5.238  -6.789  0.00  0.00    +0.009 C 
ENDROOT
BRANCH   1  13
ATOM     13  C   UNL     1       1.092   6.498  -6.701  0.00  0.00    +0.028 C 
BRANCH  13  14
ATOM     14  C   UNL     1       0.984   5.276  -7.615  0.00  0.00    +0.115 C 
BRANCH  14  16
ATOM     15  C   UNL     1       0.798   5.730 -10.115  0.00  0.00    +0.241 C 
ATOM     16  N   UNL     1       0.300   5.704  -8.801  0.00  0.00    -0.205 NA
ATOM     17  O   UNL     1       1.838   5.043 -10.325  0.00  0.00    -0.273 OA
BRANCH  15  19
ATOM     18  C   UNL     1      -0.330   7.283 -11.214  0.00  0.00    +0.010 C 
ATOM     19  C   UNL     1      -0.062   6.188 -11.255  0.00  0.00    +0.087 C 
ENDBRANCH  15  19
ENDBRANCH  14  16
ENDBRANCH  13  14
ENDBRANCH   1  13
TORSDOF 4
ENDMDL
MODEL 8
REMARK VINA RESULT:      -6.7      2.648      5.924
REMARK  Name = 
REMARK  4 active torsions:
REMARK  status: ('A' for Active; 'I' for Inactive)
REMARK    1  A    between atoms: C_2  and  C_3
REMARK    2  A    between atoms: N_5  and  C_6
REMARK    3  A    between atoms: C_6  and  C_7
REMARK    4  A    between atoms: C_7  and  C_8
REMARK                            x       y       z     vdW  Elec       q    Type
REMARK                         _______ _______ _______ _____ _____    ______ ____
ROOT
ATOM      1  C   UNL     1       1.018   5.132  -4.333  0.00  0.00    +0.024 C 
ATOM      2  C   UNL     1      -0.407   5.477  -4.971  0.00  0.00    -0.027 A 
ATOM      3  C   UNL     1      -0.108   5.325  -6.328  0.00  0.00    -0.026 A 
ATOM      4  C   UNL     1      -1.239   5.106  -7.107  0.00  0.00    -0.001 A 
ATOM      5  C   UNL     1      -2.414   5.706  -6.649  0.00  0.00    +0.036 A 
ATOM      6  C   UNL     1      -2.396   6.561  -5.549  0.00  0.00    +0.134 A 
ATOM      7  O   UNL     1      -2.978   7.795  -5.252  0.00  0.00    -0.475 OA
ATOM      8  C   UNL     1      -2.015   8.610  -4.584  0.00  0.00    +0.210 C 
ATOM      9  C   UNL     1      -1.326   7.591  -3.731  0.00  0.00    +0.076 C 
ATOM     10  C   UNL     1       1.355   5.504  -6.566  0.00  0.00    +0.026 C 
ATOM     11  C   UNL     1      -1.377   6.373  -4.617  0.00  0.00    +0.011 A 
ATOM     12  C   UNL     1       1.710   6.269  -5.284  0.00  0.00    +0.009 C 
ENDROOT
BRANCH   1  13
ATOM     13  C   UNL     1       0.924   6.146  -3.046  0.00  0.00    +0.028 C 
BRANCH  13  14
ATOM     14  C   UNL     1       0.648   5.065  -1.999  0.00  0.00    +0.115 C 
BRANCH  14  16
ATOM     15  C   UNL     1      -1.325   5.909  -0.626  0.00  0.00    +0.241 C 
ATOM     16  N   UNL     1       0.045   5.722  -0.875  0.00  0.00    -0.205 NA
ATOM     17  O   UNL     1      -2.113   5.183  -1.296  0.00  0.00    -0.273 OA
BRANCH  15  19
ATOM     18  C   UNL     1      -2.260   7.612   0.432  0.00  0.00    +0.010 C 
ATOM     19  C   UNL     1      -1.794   6.602   0.620  0.00  0.00    +0.087 C 
ENDBRANCH  15  19
ENDBRANCH  14  16
ENDBRANCH  13  14
ENDBRANCH   1  13
TORSDOF 4
ENDMDL
MODEL 9
REMARK VINA RESULT:      -6.6      2.825      5.659
REMARK  Name = 
REMARK  4 active torsions:
REMARK  status: ('A' for Active; 'I' for Inactive)
REMARK    1  A    between atoms: C_2  and  C_3
REMARK    2  A    between atoms: N_5  and  C_6
REMARK    3  A    between atoms: C_6  and  C_7
REMARK    4  A    between atoms: C_7  and  C_8
REMARK                            x       y       z     vdW  Elec       q    Type
REMARK                         _______ _______ _______ _____ _____    ______ ____
ROOT
ATOM      1  C   UNL     1       1.997   6.630  -5.754  0.00  0.00    +0.024 C 
ATOM      2  C   UNL     1       2.897   6.979  -4.478  0.00  0.00    -0.027 A 
ATOM      3  C   UNL     1       4.171   6.855  -5.039  0.00  0.00    -0.026 A 
ATOM      4  C   UNL     1       5.145   7.537  -4.319  0.00  0.00    -0.001 A 
ATOM      5  C   UNL     1       4.925   7.629  -2.943  0.00  0.00    +0.036 A 
ATOM      6  C   UNL     1       3.855   6.967  -2.346  0.00  0.00    +0.134 A 
ATOM      7  O   UNL     1       3.691   6.205  -1.187  0.00  0.00    -0.475 OA
ATOM      8  C   UNL     1       2.867   5.079  -1.488  0.00  0.00    +0.210 C 
ATOM      9  C   UNL     1       1.885   5.694  -2.435  0.00  0.00    +0.076 C 
ATOM     10  C   UNL     1       4.134   5.963  -6.236  0.00  0.00    +0.026 C 
ATOM     11  C   UNL     1       2.746   6.705  -3.148  0.00  0.00    +0.011 A 
ATOM     12  C   UNL     1       2.820   5.228  -5.941  0.00  0.00    +0.009 C 
ENDROOT
BRANCH   1  13
ATOM     13  C   UNL     1       0.767   5.899  -4.950  0.00  0.00    +0.028 C 
BRANCH  13  14
ATOM     14  C   UNL     1      -0.263   7.008  -5.173  0.00  0.00    +0.115 C 
BRANCH  14  16
ATOM     15  C   UNL     1      -2.476   6.290  -4.135  0.00  0.00    +0.241 C 
ATOM     16  N   UNL     1      -1.215   6.910  -4.105  0.00  0.00    -0.205 NA
ATOM     17  O   UNL     1      -2.675   5.490  -5.093  0.00  0.00    -0.273 OA
BRANCH  15  19
ATOM     18  C   UNL     1      -2.914   6.809  -2.030  0.00  0.00    +0.010 C 
ATOM     19  C   UNL     1      -3.346   6.255  -2.914  0.00  0.00    +0.087 C 
ENDBRANCH  15  19
ENDBRANCH  14  16
ENDBRANCH  13  14
ENDBRANCH   1  13
TORSDOF 4
ENDMDL
