MODEL 1
REMARK VINA RESULT:      -9.0      0.000      0.000
REMARK  Name = 
REMARK  10 active torsions:
REMARK  status: ('A' for Active; 'I' for Inactive)
REMARK    1  A    between atoms: C_2  and  C_3
REMARK    2  A    between atoms: N_5  and  C_6
REMARK    3  A    between atoms: C_6  and  C_7
REMARK    4  A    between atoms: C_7  and  C_8
REMARK    5  A    between atoms: C_8  and  N_9
REMARK    6  A    between atoms: N_12  and  C_13
REMARK    7  A    between atoms: N_24  and  C_25
REMARK    8  A    between atoms: C_25  and  C_26
REMARK    9  A    between atoms: C_26  and  O_27
REMARK   10  A    between atoms: O_27  and  C_28
REMARK                            x       y       z     vdW  Elec       q    Type
REMARK                         _______ _______ _______ _____ _____    ______ ____
ROOT
ATOM      1  C   UNL     1      -1.400   6.718  -3.870  0.00  0.00    +0.144 A 
ATOM      2  N   UNL     1      -0.407   5.843  -3.593  0.00  0.00    -0.263 N 
ATOM      3  C   UNL     1      -0.022   5.372  -4.803  0.00  0.00    +0.348 A 
ATOM      4  O   UNL     1       0.952   4.616  -5.066  0.00  0.00    -0.245 OA
ATOM      5  N   UNL     1      -0.900   5.784  -5.731  0.00  0.00    -0.201 N 
ATOM      6  N   UNL     1      -1.484   6.849  -5.210  0.00  0.00    -0.152 NA
ENDROOT
BRANCH   1   8
ATOM      7  C   UNL     1      -3.513   6.275  -2.795  0.00  0.00    +0.008 C 
ATOM      8  C   UNL     1      -2.350   7.256  -2.865  0.00  0.00    +0.066 C 
ENDBRANCH   1   8
BRANCH   2   9
ATOM      9  C   UNL     1      -0.021   5.282  -2.312  0.00  0.00    +0.159 C 
BRANCH   9  10
ATOM     10  C   UNL     1       1.068   6.154  -1.739  0.00  0.00    +0.230 C 
BRANCH  10  11
ATOM     11  O   UNL     1       2.339   5.543  -1.896  0.00  0.00    -0.473 OA
BRANCH  11  12
ATOM     12  C   UNL     1       3.178   5.845  -2.951  0.00  0.00    +0.139 A 
ATOM     13  C   UNL     1       4.148   4.949  -3.335  0.00  0.00    +0.037 A 
ATOM     14  C   UNL     1       4.706   5.056  -4.599  0.00  0.00    +0.003 A 
ATOM     15  C   UNL     1       4.699   6.264  -5.266  0.00  0.00    +0.000 A 
ATOM     16  C   UNL     1       4.066   7.320  -4.624  0.00  0.00    +0.003 A 
ATOM     17  C   UNL     1       3.177   7.075  -3.596  0.00  0.00    +0.037 A 
ENDBRANCH  11  12
ENDBRANCH  10  11
ENDBRANCH   9  10
ENDBRANCH   2   9
BRANCH   5  18
ATOM     18  C   UNL     1      -1.011   5.246  -7.084  0.00  0.00    +0.134 C 
BRANCH  18  19
ATOM     19  C   UNL     1       0.101   5.878  -7.914  0.00  0.00    +0.044 C 
BRANCH  19  20
ATOM     20  C   UNL     1       0.043   5.240  -9.271  0.00  0.00    +0.074 C 
BRANCH  20  21
ATOM     21  N   UNL     1       1.293   4.819  -9.793  0.00  0.00    -0.270 NA
ATOM     22  C   UNL     1       2.226   4.276  -8.881  0.00  0.00    +0.094 C 
ATOM     23  C   UNL     1       3.431   5.125  -8.602  0.00  0.00    +0.108 C 
ATOM     24  N   UNL     1       3.945   5.574  -9.891  0.00  0.00    -0.305 N 
ATOM     25  C   UNL     1       3.015   6.336 -10.703  0.00  0.00    +0.108 C 
ATOM     26  C   UNL     1       1.791   5.504 -10.925  0.00  0.00    +0.094 C 
BRANCH  24  27
ATOM     27  C   UNL     1       5.302   5.439 -10.249  0.00  0.00    +0.049 A 
ATOM     28  C   UNL     1       5.691   5.417 -11.561  0.00  0.00    +0.026 A 
ATOM     29  C   UNL     1       6.978   5.804 -11.910  0.00  0.00    +0.059 A 
ATOM     30 CL   UNL     1       7.375   6.404 -13.509  0.00  0.00    -0.082 Cl
ATOM     31  C   UNL     1       7.922   6.028 -10.919  0.00  0.00    +0.011 A 
ATOM     32  C   UNL     1       7.615   5.749  -9.601  0.00  0.00    +0.002 A 
ATOM     33  C   UNL     1       6.264   5.645  -9.296  0.00  0.00    +0.015 A 
ENDBRANCH  24  27
ENDBRANCH  20  21
ENDBRANCH  19  20
ENDBRANCH  18  19
ENDBRANCH   5  18
TORSDOF 10
ENDMDL
MODEL 2
REMARK VINA RESULT:      -8.8      2.655      5.258
REMARK  Name = 
REMARK  10 active torsions:
REMARK  status: ('A' for Active; 'I' for Inactive)
REMARK    1  A    between atoms: C_2  and  C_3
REMARK    2  A    between atoms: N_5  and  C_6
REMARK    3  A    between atoms: C_6  and  C_7
REMARK    4  A    between atoms: C_7  and  C_8
REMARK    5  A    between atoms: C_8  and  N_9
REMARK    6  A    between atoms: N_12  and  C_13
REMARK    7  A    between atoms: N_24  and  C_25
REMARK    8  A    between atoms: C_25  and  C_26
REMARK    9  A    between atoms: C_26  and  O_27
REMARK   10  A    between atoms: O_27  and  C_28
REMARK                            x       y       z     vdW  Elec       q    Type
REMARK                         _______ _______ _______ _____ _____    ______ ____
ROOT
ATOM      1  C   UNL     1      -0.656   7.021   0.240  0.00  0.00    +0.144 A 
ATOM      2  N   UNL     1      -1.136   6.316  -0.810  0.00  0.00    -0.263 N 
ATOM      3  C   UNL     1      -0.065   5.629  -1.275  0.00  0.00    +0.348 A 
ATOM      4  O   UNL     1      -0.043   4.747  -2.174  0.00  0.00    -0.245 OA
ATOM      5  N   UNL     1       1.042   6.080  -0.665  0.00  0.00    -0.201 N 
ATOM      6  N   UNL     1       0.620   6.638   0.457  0.00  0.00    -0.152 NA
ENDROOT
BRANCH   1   8
ATOM      7  C   UNL     1      -0.293   9.169   1.271  0.00  0.00    +0.008 C 
ATOM      8  C   UNL     1      -1.362   8.157   0.882  0.00  0.00    +0.066 C 
ENDBRANCH   1   8
BRANCH   2   9
ATOM      9  C   UNL     1      -2.404   6.461  -1.498  0.00  0.00    +0.159 C 
BRANCH   9  10
ATOM     10  C   UNL     1      -2.210   7.458  -2.612  0.00  0.00    +0.230 C 
BRANCH  10  11
ATOM     11  O   UNL     1      -2.761   6.973  -3.826  0.00  0.00    -0.473 OA
BRANCH  11  12
ATOM     12  C   UNL     1      -1.972   6.528  -4.869  0.00  0.00    +0.139 A 
ATOM     13  C   UNL     1      -0.681   6.983  -4.995  0.00  0.00    +0.037 A 
ATOM     14  C   UNL     1       0.218   6.266  -5.768  0.00  0.00    +0.003 A 
ATOM     15  C   UNL     1      -0.232   5.437  -6.774  0.00  0.00    +0.000 A 
ATOM     16  C   UNL     1      -1.610   5.335  -6.920  0.00  0.00    +0.003 A 
ATOM     17  C   UNL     1      -2.447   5.715  -5.890  0.00  0.00    +0.037 A 
ENDBRANCH  11  12
ENDBRANCH  10  11
ENDBRANCH   9  10
ENDBRANCH   2   9
BRANCH   5  18
ATOM     18  C   UNL     1       2.411   5.818  -1.101  0.00  0.00    +0.134 C 
BRANCH  18  19
ATOM     19  C   UNL     1       2.791   6.920  -2.083  0.00  0.00    +0.044 C 
BRANCH  19  20
ATOM     20  C   UNL     1       4.285   6.875  -2.226  0.00  0.00    +0.074 C 
BRANCH  20  21
ATOM     21  N   UNL     1       4.756   6.446  -3.494  0.00  0.00    -0.270 NA
ATOM     22  C   UNL     1       4.676   7.368  -4.561  0.00  0.00    +0.094 C 
ATOM     23  C   UNL     1       3.663   7.050  -5.621  0.00  0.00    +0.108 C 
ATOM     24  N   UNL     1       3.836   5.643  -5.968  0.00  0.00    -0.305 N 
ATOM     25  C   UNL     1       3.677   4.705  -4.873  0.00  0.00    +0.108 C 
ATOM     26  C   UNL     1       4.649   5.068  -3.796  0.00  0.00    +0.094 C 
BRANCH  24  27
ATOM     27  C   UNL     1       3.967   5.208  -7.303  0.00  0.00    +0.049 A 
ATOM     28  C   UNL     1       2.892   4.730  -8.003  0.00  0.00    +0.026 A 
ATOM     29  C   UNL     1       2.879   4.798  -9.389  0.00  0.00    +0.059 A 
ATOM     30 CL   UNL     1       1.389   4.815 -10.313  0.00  0.00    -0.082 Cl
ATOM     31  C   UNL     1       4.028   5.174 -10.070  0.00  0.00    +0.011 A 
ATOM     32  C   UNL     1       5.209   5.359  -9.377  0.00  0.00    +0.002 A 
ATOM     33  C   UNL     1       5.090   5.552  -8.007  0.00  0.00    +0.015 A 
ENDBRANCH  24  27
ENDBRANCH  20  21
ENDBRANCH  19  20
ENDBRANCH  18  19
ENDBRANCH   5  18
TORSDOF 10
ENDMDL
MODEL 3
REMARK VINA RESULT:      -8.3      1.822      3.959
REMARK  Name = 
REMARK  10 active torsions:
REMARK  status: ('A' for Active; 'I' for Inactive)
REMARK    1  A    between atoms: C_2  and  C_3
REMARK    2  A    between atoms: N_5  and  C_6
REMARK    3  A    between atoms: C_6  and  C_7
REMARK    4  A    between atoms: C_7  and  C_8
REMARK    5  A    between atoms: C_8  and  N_9
REMARK    6  A    between atoms: N_12  and  C_13
REMARK    7  A    between atoms: N_24  and  C_25
REMARK    8  A    between atoms: C_25  and  C_26
REMARK    9  A    between atoms: C_26  and  O_27
REMARK   10  A    between atoms: O_27  and  C_28
REMARK                            x       y       z     vdW  Elec       q    Type
REMARK                         _______ _______ _______ _____ _____    ______ ____
ROOT
ATOM      1  C   UNL     1       3.791   6.774  -3.446  0.00  0.00    +0.144 A 
ATOM      2  N   UNL     1       3.057   5.646  -3.311  0.00  0.00    -0.263 N 
ATOM      3  C   UNL     1       2.309   5.591  -4.439  0.00  0.00    +0.348 A 
ATOM      4  O   UNL     1       1.552   4.659  -4.821  0.00  0.00    -0.245 OA
ATOM      5  N   UNL     1       2.434   6.751  -5.104  0.00  0.00    -0.201 N 
ATOM      6  N   UNL     1       3.572   7.274  -4.681  0.00  0.00    -0.152 NA
ENDROOT
BRANCH   1   8
ATOM      7  C   UNL     1       3.686   8.625  -1.904  0.00  0.00    +0.008 C 
ATOM      8  C   UNL     1       4.529   7.434  -2.341  0.00  0.00    +0.066 C 
ENDBRANCH   1   8
BRANCH   2   9
ATOM      9  C   UNL     1       2.858   4.827  -2.131  0.00  0.00    +0.159 C 
BRANCH   9  10
ATOM     10  C   UNL     1       1.730   5.434  -1.337  0.00  0.00    +0.230 C 
BRANCH  10  11
ATOM     11  O   UNL     1       0.517   4.732  -1.565  0.00  0.00    -0.473 OA
BRANCH  11  12
ATOM     12  C   UNL     1      -0.672   5.382  -1.832  0.00  0.00    +0.139 A 
ATOM     13  C   UNL     1      -1.381   5.965  -0.808  0.00  0.00    +0.037 A 
ATOM     14  C   UNL     1      -2.328   6.931  -1.105  0.00  0.00    +0.003 A 
ATOM     15  C   UNL     1      -2.922   6.968  -2.350  0.00  0.00    +0.000 A 
ATOM     16  C   UNL     1      -2.479   6.031  -3.273  0.00  0.00    +0.003 A 
ATOM     17  C   UNL     1      -1.271   5.388  -3.085  0.00  0.00    +0.037 A 
ENDBRANCH  11  12
ENDBRANCH  10  11
ENDBRANCH   9  10
ENDBRANCH   2   9
BRANCH   5  18
ATOM     18  C   UNL     1       1.565   7.199  -6.187  0.00  0.00    +0.134 C 
BRANCH  18  19
ATOM     19  C   UNL     1       2.362   7.085  -7.482  0.00  0.00    +0.044 C 
BRANCH  19  20
ATOM     20  C   UNL     1       1.868   5.854  -8.186  0.00  0.00    +0.074 C 
BRANCH  20  21
ATOM     21  N   UNL     1       2.767   5.301  -9.134  0.00  0.00    -0.270 NA
ATOM     22  C   UNL     1       3.957   4.722  -8.639  0.00  0.00    +0.094 C 
ATOM     23  C   UNL     1       5.219   5.474  -8.938  0.00  0.00    +0.108 C 
ATOM     24  N   UNL     1       5.187   5.817 -10.356  0.00  0.00    -0.305 N 
ATOM     25  C   UNL     1       4.053   6.619 -10.778  0.00  0.00    +0.108 C 
ATOM     26  C   UNL     1       2.799   5.888 -10.420  0.00  0.00    +0.094 C 
BRANCH  24  27
ATOM     27  C   UNL     1       6.267   5.547 -11.221  0.00  0.00    +0.049 A 
ATOM     28  C   UNL     1       6.086   5.451 -12.574  0.00  0.00    +0.026 A 
ATOM     29  C   UNL     1       7.143   5.707 -13.437  0.00  0.00    +0.059 A 
ATOM     30 CL   UNL     1       6.896   6.220 -15.095  0.00  0.00    -0.082 Cl
ATOM     31  C   UNL     1       8.422   5.875 -12.927  0.00  0.00    +0.011 A 
ATOM     32  C   UNL     1       8.659   5.665 -11.582  0.00  0.00    +0.002 A 
ATOM     33  C   UNL     1       7.546   5.694 -10.753  0.00  0.00    +0.015 A 
ENDBRANCH  24  27
ENDBRANCH  20  21
ENDBRANCH  19  20
ENDBRANCH  18  19
ENDBRANCH   5  18
TORSDOF 10
ENDMDL
MODEL 4
REMARK VINA RESULT:      -8.2      3.964      9.309
REMARK  Name = 
REMARK  10 active torsions:
REMARK  status: ('A' for Active; 'I' for Inactive)
REMARK    1  A    between atoms: C_2  and  C_3
REMARK    2  A    between atoms: N_5  and  C_6
REMARK    3  A    between atoms: C_6  and  C_7
REMARK    4  A    between atoms: C_7  and  C_8
REMARK    5  A    between atoms: C_8  and  N_9
REMARK    6  A    between atoms: N_12  and  C_13
REMARK    7  A    between atoms: N_24  and  C_25
REMARK    8  A    between atoms: C_25  and  C_26
REMARK    9  A    between atoms: C_26  and  O_27
REMARK   10  A    between atoms: O_27  and  C_28
REMARK                            x       y       z     vdW  Elec       q    Type
REMARK                         _______ _______ _______ _____ _____    ______ ____
ROOT
ATOM      1  C   UNL     1       1.848   6.275 -12.112  0.00  0.00    +0.144 A 
ATOM      2  N   UNL     1       2.979   5.567 -12.332  0.00  0.00    -0.263 N 
ATOM      3  C   UNL     1       3.594   5.527 -11.126  0.00  0.00    +0.348 A 
ATOM      4  O   UNL     1       4.627   4.880 -10.805  0.00  0.00    -0.245 OA
ATOM      5  N   UNL     1       2.963   6.363 -10.286  0.00  0.00    -0.201 N 
ATOM      6  N   UNL     1       1.749   6.510 -10.787  0.00  0.00    -0.152 NA
ENDROOT
BRANCH   1   8
ATOM      7  C   UNL     1      -0.132   7.599 -12.483  0.00  0.00    +0.008 C 
ATOM      8  C   UNL     1       0.999   6.856 -13.181  0.00  0.00    +0.066 C 
ENDBRANCH   1   8
BRANCH   2   9
ATOM      9  C   UNL     1       3.582   5.187 -13.595  0.00  0.00    +0.159 C 
BRANCH   9  10
ATOM     10  C   UNL     1       4.392   6.359 -14.088  0.00  0.00    +0.230 C 
BRANCH  10  11
ATOM     11  O   UNL     1       5.777   6.049 -14.093  0.00  0.00    -0.473 OA
BRANCH  11  12
ATOM     12  C   UNL     1       6.590   6.287 -13.002  0.00  0.00    +0.139 A 
ATOM     13  C   UNL     1       6.464   7.458 -12.293  0.00  0.00    +0.037 A 
ATOM     14  C   UNL     1       6.972   7.530 -11.006  0.00  0.00    +0.003 A 
ATOM     15  C   UNL     1       7.992   6.691 -10.610  0.00  0.00    +0.000 A 
ATOM     16  C   UNL     1       8.426   5.762 -11.547  0.00  0.00    +0.003 A 
ATOM     17  C   UNL     1       7.631   5.445 -12.631  0.00  0.00    +0.037 A 
ENDBRANCH  11  12
ENDBRANCH  10  11
ENDBRANCH   9  10
ENDBRANCH   2   9
BRANCH   5  18
ATOM     18  C   UNL     1       3.491   6.830  -9.008  0.00  0.00    +0.134 C 
BRANCH  18  19
ATOM     19  C   UNL     1       3.181   5.756  -7.972  0.00  0.00    +0.044 C 
BRANCH  19  20
ATOM     20  C   UNL     1       3.366   6.390  -6.623  0.00  0.00    +0.074 C 
BRANCH  20  21
ATOM     21  N   UNL     1       2.166   6.711  -5.938  0.00  0.00    -0.270 NA
ATOM     22  C   UNL     1       2.249   6.907  -4.542  0.00  0.00    +0.094 C 
ATOM     23  C   UNL     1       1.611   5.844  -3.697  0.00  0.00    +0.108 C 
ATOM     24  N   UNL     1       0.287   5.591  -4.256  0.00  0.00    -0.305 N 
ATOM     25  C   UNL     1       0.266   5.162  -5.642  0.00  0.00    +0.108 C 
ATOM     26  C   UNL     1       0.958   6.200  -6.468  0.00  0.00    +0.094 C 
BRANCH  24  27
ATOM     27  C   UNL     1      -0.878   5.585  -3.461  0.00  0.00    +0.049 A 
ATOM     28  C   UNL     1      -0.830   5.899  -2.130  0.00  0.00    +0.026 A 
ATOM     29  C   UNL     1      -1.960   6.394  -1.492  0.00  0.00    +0.059 A 
ATOM     30 CL   UNL     1      -1.863   7.382  -0.047  0.00  0.00    -0.082 Cl
ATOM     31  C   UNL     1      -3.180   6.392  -2.153  0.00  0.00    +0.011 A 
ATOM     32  C   UNL     1      -3.290   5.788  -3.391  0.00  0.00    +0.002 A 
ATOM     33  C   UNL     1      -2.101   5.575  -4.076  0.00  0.00    +0.015 A 
ENDBRANCH  24  27
ENDBRANCH  20  21
ENDBRANCH  19  20
ENDBRANCH  18  19
ENDBRANCH   5  18
TORSDOF 10
ENDMDL
MODEL 5
REMARK VINA RESULT:      -8.1      2.015      2.681
REMARK  Name = 
REMARK  10 active torsions:
REMARK  status: ('A' for Active; 'I' for Inactive)
REMARK    1  A    between atoms: C_2  and  C_3
REMARK    2  A    between atoms: N_5  and  C_6
REMARK    3  A    between atoms: C_6  and  C_7
REMARK    4  A    between atoms: C_7  and  C_8
REMARK    5  A    between atoms: C_8  and  N_9
REMARK    6  A    between atoms: N_12  and  C_13
REMARK    7  A    between atoms: N_24  and  C_25
REMARK    8  A    between atoms: C_25  and  C_26
REMARK    9  A    between atoms: C_26  and  O_27
REMARK   10  A    between atoms: O_27  and  C_28
REMARK                            x       y       z     vdW  Elec       q    Type
REMARK                         _______ _______ _______ _____ _____    ______ ____
ROOT
ATOM      1  C   UNL     1      -1.170   6.681  -3.267  0.00  0.00    +0.144 A 
ATOM      2  N   UNL     1      -0.080   6.146  -2.672  0.00  0.00    -0.263 N 
ATOM      3  C   UNL     1       0.897   6.243  -3.604  0.00  0.00    +0.348 A 
ATOM      4  O   UNL     1       2.123   5.981  -3.472  0.00  0.00    -0.245 OA
ATOM      5  N   UNL     1       0.351   6.614  -4.773  0.00  0.00    -0.201 N 
ATOM      6  N   UNL     1      -0.791   7.199  -4.454  0.00  0.00    -0.152 NA
ENDROOT
BRANCH   1   8
ATOM      7  C   UNL     1      -3.136   5.302  -3.477  0.00  0.00    +0.008 C 
ATOM      8  C   UNL     1      -2.560   6.523  -2.773  0.00  0.00    +0.066 C 
ENDBRANCH   1   8
BRANCH   2   9
ATOM      9  C   UNL     1      -0.001   5.368  -1.450  0.00  0.00    +0.159 C 
BRANCH   9  10
ATOM     10  C   UNL     1       0.181   6.330  -0.304  0.00  0.00    +0.230 C 
BRANCH  10  11
ATOM     11  O   UNL     1       1.557   6.609  -0.092  0.00  0.00    -0.473 OA
BRANCH  11  12
ATOM     12  C   UNL     1       2.033   7.895   0.068  0.00  0.00    +0.139 A 
ATOM     13  C   UNL     1       3.248   8.250  -0.469  0.00  0.00    +0.037 A 
ATOM     14  C   UNL     1       3.540   9.591  -0.658  0.00  0.00    +0.003 A 
ATOM     15  C   UNL     1       2.907  10.556   0.097  0.00  0.00    +0.000 A 
ATOM     16  C   UNL     1       1.948  10.107   0.996  0.00  0.00    +0.003 A 
ATOM     17  C   UNL     1       1.398   8.849   0.853  0.00  0.00    +0.037 A 
ENDBRANCH  11  12
ENDBRANCH  10  11
ENDBRANCH   9  10
ENDBRANCH   2   9
BRANCH   5  18
ATOM     18  C   UNL     1       1.008   6.532  -6.074  0.00  0.00    +0.134 C 
BRANCH  18  19
ATOM     19  C   UNL     1       0.591   5.211  -6.709  0.00  0.00    +0.044 C 
BRANCH  19  20
ATOM     20  C   UNL     1       0.213   5.514  -8.130  0.00  0.00    +0.074 C 
BRANCH  20  21
ATOM     21  N   UNL     1       1.260   5.364  -9.076  0.00  0.00    -0.270 NA
ATOM     22  C   UNL     1       2.102   4.238  -8.940  0.00  0.00    +0.094 C 
ATOM     23  C   UNL     1       3.504   4.525  -8.494  0.00  0.00    +0.108 C 
ATOM     24  N   UNL     1       3.996   5.627  -9.313  0.00  0.00    -0.305 N 
ATOM     25  C   UNL     1       3.222   6.853  -9.241  0.00  0.00    +0.108 C 
ATOM     26  C   UNL     1       1.811   6.543  -9.629  0.00  0.00    +0.094 C 
BRANCH  24  27
ATOM     27  C   UNL     1       5.234   5.572  -9.987  0.00  0.00    +0.049 A 
ATOM     28  C   UNL     1       5.321   5.800 -11.333  0.00  0.00    +0.026 A 
ATOM     29  C   UNL     1       6.510   6.255 -11.886  0.00  0.00    +0.059 A 
ATOM     30 CL   UNL     1       6.562   7.147 -13.395  0.00  0.00    -0.082 Cl
ATOM     31  C   UNL     1       7.658   6.297 -11.109  0.00  0.00    +0.011 A 
ATOM     32  C   UNL     1       7.643   5.773  -9.829  0.00  0.00    +0.002 A 
ATOM     33  C   UNL     1       6.390   5.603  -9.254  0.00  0.00    +0.015 A 
ENDBRANCH  24  27
ENDBRANCH  20  21
ENDBRANCH  19  20
ENDBRANCH  18  19
ENDBRANCH   5  18
TORSDOF 10
ENDMDL
MODEL 6
REMARK VINA RESULT:      -8.0      1.784      3.905
REMARK  Name = 
REMARK  10 active torsions:
REMARK  status: ('A' for Active; 'I' for Inactive)
REMARK    1  A    between atoms: C_2  and  C_3
REMARK    2  A    between atoms: N_5  and  C_6
REMARK    3  A    between atoms: C_6  and  C_7
REMARK    4  A    between atoms: C_7  and  C_8
REMARK    5  A    between atoms: C_8  and  N_9
REMARK    6  A    between atoms: N_12  and  C_13
REMARK    7  A    between atoms: N_24  and  C_25
REMARK    8  A    between atoms: C_25  and  C_26
REMARK    9  A    between atoms: C_26  and  O_27
REMARK   10  A    between atoms: O_27  and  C_28
REMARK                            x       y       z     vdW  Elec       q    Type
REMARK                         _______ _______ _______ _____ _____    ______ ____
ROOT
ATOM      1  C   UNL     1       2.884   4.925  -4.566  0.00  0.00    +0.144 A 
ATOM      2  N   UNL     1       1.991   5.442  -3.692  0.00  0.00    -0.263 N 
ATOM      3  C   UNL     1       0.801   5.356  -4.333  0.00  0.00    +0.348 A 
ATOM      4  O   UNL     1      -0.345   5.608  -3.874  0.00  0.00    -0.245 OA
ATOM      5  N   UNL     1       1.017   5.011  -5.612  0.00  0.00    -0.201 N 
ATOM      6  N   UNL     1       2.203   4.428  -5.620  0.00  0.00    -0.152 NA
ENDROOT
BRANCH   1   8
ATOM      7  C   UNL     1       4.718   6.339  -5.237  0.00  0.00    +0.008 C 
ATOM      8  C   UNL     1       4.355   5.083  -4.456  0.00  0.00    +0.066 C 
ENDBRANCH   1   8
BRANCH   2   9
ATOM      9  C   UNL     1       2.239   6.196  -2.479  0.00  0.00    +0.159 C 
BRANCH   9  10
ATOM     10  C   UNL     1       1.781   5.356  -1.314  0.00  0.00    +0.230 C 
BRANCH  10  11
ATOM     11  O   UNL     1       1.638   6.147  -0.145  0.00  0.00    -0.473 OA
BRANCH  11  12
ATOM     12  C   UNL     1       0.455   6.784   0.175  0.00  0.00    +0.139 A 
ATOM     13  C   UNL     1       0.425   7.705   1.195  0.00  0.00    +0.037 A 
ATOM     14  C   UNL     1      -0.620   8.613   1.257  0.00  0.00    +0.003 A 
ATOM     15  C   UNL     1      -1.833   8.323   0.667  0.00  0.00    +0.000 A 
ATOM     16  C   UNL     1      -1.914   7.118  -0.017  0.00  0.00    +0.003 A 
ATOM     17  C   UNL     1      -0.763   6.462  -0.409  0.00  0.00    +0.037 A 
ENDBRANCH  11  12
ENDBRANCH  10  11
ENDBRANCH   9  10
ENDBRANCH   2   9
BRANCH   5  18
ATOM     18  C   UNL     1       0.038   5.113  -6.690  0.00  0.00    +0.134 C 
BRANCH  18  19
ATOM     19  C   UNL     1       0.685   5.913  -7.814  0.00  0.00    +0.044 C 
BRANCH  19  20
ATOM     20  C   UNL     1       0.447   5.146  -9.083  0.00  0.00    +0.074 C 
BRANCH  20  21
ATOM     21  N   UNL     1       1.618   4.805  -9.809  0.00  0.00    -0.270 NA
ATOM     22  C   UNL     1       2.682   4.222  -9.085  0.00  0.00    +0.094 C 
ATOM     23  C   UNL     1       3.898   5.084  -8.912  0.00  0.00    +0.108 C 
ATOM     24  N   UNL     1       4.212   5.647 -10.220  0.00  0.00    -0.305 N 
ATOM     25  C   UNL     1       3.160   6.441 -10.828  0.00  0.00    +0.108 C 
ATOM     26  C   UNL     1       1.934   5.592 -10.940  0.00  0.00    +0.094 C 
BRANCH  24  27
ATOM     27  C   UNL     1       5.507   5.582 -10.777  0.00  0.00    +0.049 A 
ATOM     28  C   UNL     1       5.694   5.338 -12.110  0.00  0.00    +0.026 A 
ATOM     29  C   UNL     1       6.851   5.776 -12.741  0.00  0.00    +0.059 A 
ATOM     30 CL   UNL     1       6.920   6.081 -14.466  0.00  0.00    -0.082 Cl
ATOM     31  C   UNL     1       7.894   6.290 -11.985  0.00  0.00    +0.011 A 
ATOM     32  C   UNL     1       7.828   6.250 -10.604  0.00  0.00    +0.002 A 
ATOM     33  C   UNL     1       6.564   6.072 -10.058  0.00  0.00    +0.015 A 
ENDBRANCH  24  27
ENDBRANCH  20  21
ENDBRANCH  19  20
ENDBRANCH  18  19
ENDBRANCH   5  18
TORSDOF 10
ENDMDL
MODEL 7
REMARK VINA RESULT:      -8.0      2.620      4.889
REMARK  Name = 
REMARK  10 active torsions:
REMARK  status: ('A' for Active; 'I' for Inactive)
REMARK    1  A    between atoms: C_2  and  C_3
REMARK    2  A    between atoms: N_5  and  C_6
REMARK    3  A    between atoms: C_6  and  C_7
REMARK    4  A    between atoms: C_7  and  C_8
REMARK    5  A    between atoms: C_8  and  N_9
REMARK    6  A    between atoms: N_12  and  C_13
REMARK    7  A    between atoms: N_24  and  C_25
REMARK    8  A    between atoms: C_25  and  C_26
REMARK    9  A    between atoms: C_26  and  O_27
REMARK   10  A    between atoms: O_27  and  C_28
REMARK                            x       y       z     vdW  Elec       q    Type
REMARK                         _______ _______ _______ _____ _____    ______ ____
ROOT
ATOM      1  C   UNL     1      -0.373   8.344   0.310  0.00  0.00    +0.144 A 
ATOM      2  N   UNL     1       0.585   7.416   0.085  0.00  0.00    -0.263 N 
ATOM      3  C   UNL     1      -0.028   6.471  -0.667  0.00  0.00    +0.348 A 
ATOM      4  O   UNL     1       0.491   5.464  -1.220  0.00  0.00    -0.245 OA
ATOM      5  N   UNL     1      -1.347   6.721  -0.694  0.00  0.00    -0.201 N 
ATOM      6  N   UNL     1      -1.462   8.008  -0.412  0.00  0.00    -0.152 NA
ENDROOT
BRANCH   1   8
ATOM      7  C   UNL     1      -1.676   9.552   1.939  0.00  0.00    +0.008 C 
ATOM      8  C   UNL     1      -0.284   9.411   1.337  0.00  0.00    +0.066 C 
ENDBRANCH   1   8
BRANCH   2   9
ATOM      9  C   UNL     1       1.879   7.271   0.725  0.00  0.00    +0.159 C 
BRANCH   9  10
ATOM     10  C   UNL     1       2.935   7.626  -0.290  0.00  0.00    +0.230 C 
BRANCH  10  11
ATOM     11  O   UNL     1       3.451   6.459  -0.912  0.00  0.00    -0.473 OA
BRANCH  11  12
ATOM     12  C   UNL     1       3.789   6.425  -2.251  0.00  0.00    +0.139 A 
ATOM     13  C   UNL     1       3.782   7.583  -2.991  0.00  0.00    +0.037 A 
ATOM     14  C   UNL     1       4.484   7.629  -4.185  0.00  0.00    +0.003 A 
ATOM     15  C   UNL     1       4.756   6.469  -4.879  0.00  0.00    +0.000 A 
ATOM     16  C   UNL     1       4.335   5.283  -4.291  0.00  0.00    +0.003 A 
ATOM     17  C   UNL     1       4.034   5.246  -2.944  0.00  0.00    +0.037 A 
ENDBRANCH  11  12
ENDBRANCH  10  11
ENDBRANCH   9  10
ENDBRANCH   2   9
BRANCH   5  18
ATOM     18  C   UNL     1      -2.374   5.782  -1.132  0.00  0.00    +0.134 C 
BRANCH  18  19
ATOM     19  C   UNL     1      -2.971   6.335  -2.421  0.00  0.00    +0.044 C 
BRANCH  19  20
ATOM     20  C   UNL     1      -2.536   5.417  -3.527  0.00  0.00    +0.074 C 
BRANCH  20  21
ATOM     21  N   UNL     1      -1.782   6.033  -4.559  0.00  0.00    -0.270 NA
ATOM     22  C   UNL     1      -2.250   5.882  -5.883  0.00  0.00    +0.094 C 
ATOM     23  C   UNL     1      -1.418   5.005  -6.770  0.00  0.00    +0.108 C 
ATOM     24  N   UNL     1      -0.029   5.419  -6.599  0.00  0.00    -0.305 N 
ATOM     25  C   UNL     1       0.485   5.335  -5.245  0.00  0.00    +0.108 C 
ATOM     26  C   UNL     1      -0.388   6.164  -4.357  0.00  0.00    +0.094 C 
BRANCH  24  27
ATOM     27  C   UNL     1       0.812   5.706  -7.694  0.00  0.00    +0.049 A 
ATOM     28  C   UNL     1       2.147   5.951  -7.519  0.00  0.00    +0.026 A 
ATOM     29  C   UNL     1       3.039   5.717  -8.556  0.00  0.00    +0.059 A 
ATOM     30 CL   UNL     1       4.739   5.393  -8.276  0.00  0.00    -0.082 Cl
ATOM     31  C   UNL     1       2.558   5.417  -9.822  0.00  0.00    +0.011 A 
ATOM     32  C   UNL     1       1.200   5.472 -10.074  0.00  0.00    +0.002 A 
ATOM     33  C   UNL     1       0.370   5.431  -8.961  0.00  0.00    +0.015 A 
ENDBRANCH  24  27
ENDBRANCH  20  21
ENDBRANCH  19  20
ENDBRANCH  18  19
ENDBRANCH   5  18
TORSDOF 10
ENDMDL
MODEL 8
REMARK VINA RESULT:      -8.0      3.063      7.410
REMARK  Name = 
REMARK  10 active torsions:
REMARK  status: ('A' for Active; 'I' for Inactive)
REMARK    1  A    between atoms: C_2  and  C_3
REMARK    2  A    between atoms: N_5  and  C_6
REMARK    3  A    between atoms: C_6  and  C_7
REMARK    4  A    between atoms: C_7  and  C_8
REMARK    5  A    between atoms: C_8  and  N_9
REMARK    6  A    between atoms: N_12  and  C_13
REMARK    7  A    between atoms: N_24  and  C_25
REMARK    8  A    between atoms: C_25  and  C_26
REMARK    9  A    between atoms: C_26  and  O_27
REMARK   10  A    between atoms: O_27  and  C_28
REMARK                            x       y       z     vdW  Elec       q    Type
REMARK                         _______ _______ _______ _____ _____    ______ ____
ROOT
ATOM      1  C   UNL     1       0.748   5.892 -10.267  0.00  0.00    +0.144 A 
ATOM      2  N   UNL     1       1.875   5.721  -9.539  0.00  0.00    -0.263 N 
ATOM      3  C   UNL     1       1.471   5.038  -8.442  0.00  0.00    +0.348 A 
ATOM      4  O   UNL     1       2.186   4.548  -7.528  0.00  0.00    -0.245 OA
ATOM      5  N   UNL     1       0.129   5.004  -8.418  0.00  0.00    -0.201 N 
ATOM      6  N   UNL     1      -0.247   5.202  -9.670  0.00  0.00    -0.152 NA
ENDROOT
BRANCH   1   8
ATOM      7  C   UNL     1      -0.833   7.326 -11.388  0.00  0.00    +0.008 C 
ATOM      8  C   UNL     1       0.612   6.846 -11.394  0.00  0.00    +0.066 C 
ENDBRANCH   1   8
BRANCH   2   9
ATOM      9  C   UNL     1       3.167   6.360  -9.702  0.00  0.00    +0.159 C 
BRANCH   9  10
ATOM     10  C   UNL     1       4.186   5.277  -9.949  0.00  0.00    +0.230 C 
BRANCH  10  11
ATOM     11  O   UNL     1       4.571   5.248 -11.315  0.00  0.00    -0.473 OA
BRANCH  11  12
ATOM     12  C   UNL     1       5.862   5.524 -11.724  0.00  0.00    +0.139 A 
ATOM     13  C   UNL     1       6.784   5.993 -10.818  0.00  0.00    +0.037 A 
ATOM     14  C   UNL     1       8.134   5.891 -11.111  0.00  0.00    +0.003 A 
ATOM     15  C   UNL     1       8.560   5.808 -12.420  0.00  0.00    +0.000 A 
ATOM     16  C   UNL     1       7.568   5.782 -13.392  0.00  0.00    +0.003 A 
ATOM     17  C   UNL     1       6.269   5.462 -13.050  0.00  0.00    +0.037 A 
ENDBRANCH  11  12
ENDBRANCH  10  11
ENDBRANCH   9  10
ENDBRANCH   2   9
BRANCH   5  18
ATOM     18  C   UNL     1      -0.685   4.636  -7.263  0.00  0.00    +0.134 C 
BRANCH  18  19
ATOM     19  C   UNL     1      -1.668   5.776  -7.022  0.00  0.00    +0.044 C 
BRANCH  19  20
ATOM     20  C   UNL     1      -1.975   5.777  -5.552  0.00  0.00    +0.074 C 
BRANCH  20  21
ATOM     21  N   UNL     1      -0.991   6.385  -4.731  0.00  0.00    -0.270 NA
ATOM     22  C   UNL     1      -0.348   7.538  -5.235  0.00  0.00    +0.094 C 
ATOM     23  C   UNL     1       1.093   7.365  -5.614  0.00  0.00    +0.108 C 
ATOM     24  N   UNL     1       1.745   6.669  -4.510  0.00  0.00    -0.305 N 
ATOM     25  C   UNL     1       1.190   5.370  -4.176  0.00  0.00    +0.108 C 
ATOM     26  C   UNL     1      -0.261   5.545  -3.859  0.00  0.00    +0.094 C 
BRANCH  24  27
ATOM     27  C   UNL     1       2.940   7.137  -3.925  0.00  0.00    +0.049 A 
ATOM     28  C   UNL     1       3.104   7.160  -2.567  0.00  0.00    +0.026 A 
ATOM     29  C   UNL     1       4.379   7.108  -2.020  0.00  0.00    +0.059 A 
ATOM     30 CL   UNL     1       4.680   6.515  -0.398  0.00  0.00    -0.082 Cl
ATOM     31  C   UNL     1       5.488   7.223  -2.846  0.00  0.00    +0.011 A 
ATOM     32  C   UNL     1       5.319   7.511  -4.188  0.00  0.00    +0.002 A 
ATOM     33  C   UNL     1       4.054   7.271  -4.710  0.00  0.00    +0.015 A 
ENDBRANCH  24  27
ENDBRANCH  20  21
ENDBRANCH  19  20
ENDBRANCH  18  19
ENDBRANCH   5  18
TORSDOF 10
ENDMDL
MODEL 9
REMARK VINA RESULT:      -8.0      3.676      8.299
REMARK  Name = 
REMARK  10 active torsions:
REMARK  status: ('A' for Active; 'I' for Inactive)
REMARK    1  A    between atoms: C_2  and  C_3
REMARK    2  A    between atoms: N_5  and  C_6
REMARK    3  A    between atoms: C_6  and  C_7
REMARK    4  A    between atoms: C_7  and  C_8
REMARK    5  A    between atoms: C_8  and  N_9
REMARK    6  A    between atoms: N_12  and  C_13
REMARK    7  A    between atoms: N_24  and  C_25
REMARK    8  A    between atoms: C_25  and  C_26
REMARK    9  A    between atoms: C_26  and  O_27
REMARK   10  A    between atoms: O_27  and  C_28
REMARK                            x       y       z     vdW  Elec       q    Type
REMARK                         _______ _______ _______ _____ _____    ______ ____
ROOT
ATOM      1  C   UNL     1       3.275   5.518  -9.866  0.00  0.00    +0.144 A 
ATOM      2  N   UNL     1       2.597   5.567 -11.035  0.00  0.00    -0.263 N 
ATOM      3  C   UNL     1       1.315   5.807 -10.673  0.00  0.00    +0.348 A 
ATOM      4  O   UNL     1       0.331   6.049 -11.423  0.00  0.00    -0.245 OA
ATOM      5  N   UNL     1       1.205   5.682  -9.341  0.00  0.00    -0.201 N 
ATOM      6  N   UNL     1       2.428   5.861  -8.873  0.00  0.00    -0.152 NA
ENDROOT
BRANCH   1   8
ATOM      7  C   UNL     1       5.127   5.388  -8.327  0.00  0.00    +0.008 C 
ATOM      8  C   UNL     1       4.647   4.974  -9.712  0.00  0.00    +0.066 C 
ENDBRANCH   1   8
BRANCH   2   9
ATOM      9  C   UNL     1       3.036   5.164 -12.357  0.00  0.00    +0.159 C 
BRANCH   9  10
ATOM     10  C   UNL     1       3.621   6.377 -13.036  0.00  0.00    +0.230 C 
BRANCH  10  11
ATOM     11  O   UNL     1       4.944   6.117 -13.481  0.00  0.00    -0.473 OA
BRANCH  11  12
ATOM     12  C   UNL     1       6.042   6.266 -12.657  0.00  0.00    +0.139 A 
ATOM     13  C   UNL     1       6.250   7.455 -11.999  0.00  0.00    +0.037 A 
ATOM     14  C   UNL     1       7.090   7.481 -10.897  0.00  0.00    +0.003 A 
ATOM     15  C   UNL     1       8.072   6.525 -10.744  0.00  0.00    +0.000 A 
ATOM     16  C   UNL     1       8.126   5.535 -11.717  0.00  0.00    +0.003 A 
ATOM     17  C   UNL     1       7.037   5.305 -12.535  0.00  0.00    +0.037 A 
ENDBRANCH  11  12
ENDBRANCH  10  11
ENDBRANCH   9  10
ENDBRANCH   2   9
BRANCH   5  18
ATOM     18  C   UNL     1      -0.050   5.561  -8.606  0.00  0.00    +0.134 C 
BRANCH  18  19
ATOM     19  C   UNL     1       0.240   5.921  -7.154  0.00  0.00    +0.044 C 
BRANCH  19  20
ATOM     20  C   UNL     1       0.310   4.628  -6.393  0.00  0.00    +0.074 C 
BRANCH  20  21
ATOM     21  N   UNL     1       1.121   4.657  -5.229  0.00  0.00    -0.270 NA
ATOM     22  C   UNL     1       0.572   5.252  -4.072  0.00  0.00    +0.094 C 
ATOM     23  C   UNL     1       1.178   6.563  -3.665  0.00  0.00    +0.108 C 
ATOM     24  N   UNL     1       2.627   6.393  -3.703  0.00  0.00    -0.305 N 
ATOM     25  C   UNL     1       3.177   6.002  -4.987  0.00  0.00    +0.108 C 
ATOM     26  C   UNL     1       2.521   4.727  -5.413  0.00  0.00    +0.094 C 
BRANCH  24  27
ATOM     27  C   UNL     1       3.456   6.758  -2.622  0.00  0.00    +0.049 A 
ATOM     28  C   UNL     1       3.662   8.071  -2.296  0.00  0.00    +0.026 A 
ATOM     29  C   UNL     1       4.012   8.418  -0.999  0.00  0.00    +0.059 A 
ATOM     30 CL   UNL     1       3.692  10.009  -0.336  0.00  0.00    -0.082 Cl
ATOM     31  C   UNL     1       4.337   7.427  -0.085  0.00  0.00    +0.011 A 
ATOM     32  C   UNL     1       4.430   6.112  -0.500  0.00  0.00    +0.002 A 
ATOM     33  C   UNL     1       3.806   5.805  -1.702  0.00  0.00    +0.015 A 
ENDBRANCH  24  27
ENDBRANCH  20  21
ENDBRANCH  19  20
ENDBRANCH  18  19
ENDBRANCH   5  18
TORSDOF 10
ENDMDL
