MODEL 1
REMARK VINA RESULT:      -4.8      0.000      0.000
REMARK  Name = 
REMARK  0 active torsions:
REMARK  status: ('A' for Active; 'I' for Inactive)
REMARK                            x       y       z     vdW  Elec       q    Type
REMARK                         _______ _______ _______ _____ _____    ______ ____
ROOT
ATOM      1  N   UNL     1       6.459   5.731  -9.269  0.00  0.00    -0.105 NA
ATOM      2  C   UNL     1       6.868   5.718 -10.617  0.00  0.00    +0.192 A 
ATOM      3  C   UNL     1       5.950   5.721 -11.662  0.00  0.00    +0.153 A 
ATOM      4  C   UNL     1       6.399   5.406 -12.939  0.00  0.00    +0.186 A 
ATOM      5  N   UNL     1       5.312   4.913 -13.583  0.00  0.00    -0.203 NA
ATOM      6  C   UNL     1       4.196   5.173 -12.858  0.00  0.00    +0.200 A 
ATOM      7  N   UNL     1       7.687   5.011 -13.082  0.00  0.00    -0.203 NA
ATOM      8  C   UNL     1       8.572   5.491 -12.177  0.00  0.00    +0.202 A 
ATOM      9  N   UNL     1       4.612   5.518 -11.616  0.00  0.00    -0.218 NA
ATOM     10  N   UNL     1       8.165   5.760 -10.926  0.00  0.00    -0.204 NA
ENDROOT
TORSDOF 0
ENDMDL
MODEL 2
REMARK VINA RESULT:      -4.8     10.229     11.891
REMARK  Name = 
REMARK  0 active torsions:
REMARK  status: ('A' for Active; 'I' for Inactive)
REMARK                            x       y       z     vdW  Elec       q    Type
REMARK                         _______ _______ _______ _____ _____    ______ ____
ROOT
ATOM      1  N   UNL     1      -0.657   5.726  -5.969  0.00  0.00    -0.105 NA
ATOM      2  C   UNL     1      -1.280   5.674  -4.706  0.00  0.00    +0.192 A 
ATOM      3  C   UNL     1      -0.549   5.725  -3.524  0.00  0.00    +0.153 A 
ATOM      4  C   UNL     1      -1.181   5.370  -2.339  0.00  0.00    +0.186 A 
ATOM      5  N   UNL     1      -0.186   4.940  -1.523  0.00  0.00    -0.203 NA
ATOM      6  C   UNL     1       1.015   5.276  -2.055  0.00  0.00    +0.200 A 
ATOM      7  N   UNL     1      -2.448   4.894  -2.410  0.00  0.00    -0.203 NA
ATOM      8  C   UNL     1      -3.200   5.327  -3.449  0.00  0.00    +0.202 A 
ATOM      9  N   UNL     1       0.789   5.606  -3.349  0.00  0.00    -0.218 NA
ATOM     10  N   UNL     1      -2.610   5.633  -4.616  0.00  0.00    -0.204 NA
ENDROOT
TORSDOF 0
ENDMDL
MODEL 3
REMARK VINA RESULT:      -4.7      9.696     10.835
REMARK  Name = 
REMARK  0 active torsions:
REMARK  status: ('A' for Active; 'I' for Inactive)
REMARK                            x       y       z     vdW  Elec       q    Type
REMARK                         _______ _______ _______ _____ _____    ______ ____
ROOT
ATOM      1  N   UNL     1      -2.801   4.995  -2.254  0.00  0.00    -0.105 NA
ATOM      2  C   UNL     1      -1.588   5.281  -2.911  0.00  0.00    +0.192 A 
ATOM      3  C   UNL     1      -1.550   5.671  -4.245  0.00  0.00    +0.153 A 
ATOM      4  C   UNL     1      -0.329   5.644  -4.909  0.00  0.00    +0.186 A 
ATOM      5  N   UNL     1      -0.642   5.476  -6.218  0.00  0.00    -0.203 NA
ATOM      6  C   UNL     1      -1.971   5.676  -6.397  0.00  0.00    +0.200 A 
ATOM      7  N   UNL     1       0.743   5.141  -4.250  0.00  0.00    -0.203 NA
ATOM      8  C   UNL     1       0.733   5.256  -2.901  0.00  0.00    +0.202 A 
ATOM      9  N   UNL     1      -2.540   5.631  -5.168  0.00  0.00    -0.218 NA
ATOM     10  N   UNL     1      -0.435   5.239  -2.241  0.00  0.00    -0.204 NA
ENDROOT
TORSDOF 0
ENDMDL
MODEL 4
REMARK VINA RESULT:      -4.5     10.058     11.470
REMARK  Name = 
REMARK  0 active torsions:
REMARK  status: ('A' for Active; 'I' for Inactive)
REMARK                            x       y       z     vdW  Elec       q    Type
REMARK                         _______ _______ _______ _____ _____    ______ ____
ROOT
ATOM      1  N   UNL     1      -2.710   4.980  -2.351  0.00  0.00    -0.105 NA
ATOM      2  C   UNL     1      -1.625   5.389  -3.152  0.00  0.00    +0.192 A 
ATOM      3  C   UNL     1      -0.307   5.204  -2.750  0.00  0.00    +0.153 A 
ATOM      4  C   UNL     1       0.694   5.889  -3.429  0.00  0.00    +0.186 A 
ATOM      5  N   UNL     1       1.705   6.015  -2.534  0.00  0.00    -0.203 NA
ATOM      6  C   UNL     1       1.471   5.213  -1.467  0.00  0.00    +0.200 A 
ATOM      7  N   UNL     1       0.323   6.780  -4.381  0.00  0.00    -0.203 NA
ATOM      8  C   UNL     1      -0.850   6.539  -5.012  0.00  0.00    +0.202 A 
ATOM      9  N   UNL     1       0.167   4.850  -1.532  0.00  0.00    -0.218 NA
ATOM     10  N   UNL     1      -1.843   5.918  -4.357  0.00  0.00    -0.204 NA
ENDROOT
TORSDOF 0
ENDMDL
MODEL 5
REMARK VINA RESULT:      -4.5      1.108      2.475
REMARK  Name = 
REMARK  0 active torsions:
REMARK  status: ('A' for Active; 'I' for Inactive)
REMARK                            x       y       z     vdW  Elec       q    Type
REMARK                         _______ _______ _______ _____ _____    ______ ____
ROOT
ATOM      1  N   UNL     1       7.926   4.830 -12.917  0.00  0.00    -0.105 NA
ATOM      2  C   UNL     1       6.938   5.276 -12.016  0.00  0.00    +0.192 A 
ATOM      3  C   UNL     1       5.581   5.171 -12.303  0.00  0.00    +0.153 A 
ATOM      4  C   UNL     1       4.682   5.890 -11.525  0.00  0.00    +0.186 A 
ATOM      5  N   UNL     1       3.605   6.091 -12.325  0.00  0.00    -0.203 NA
ATOM      6  C   UNL     1       3.702   5.303 -13.424  0.00  0.00    +0.200 A 
ATOM      7  N   UNL     1       5.182   6.737 -10.593  0.00  0.00    -0.203 NA
ATOM      8  C   UNL     1       6.390   6.420 -10.072  0.00  0.00    +0.202 A 
ATOM      9  N   UNL     1       4.985   4.871 -13.481  0.00  0.00    -0.218 NA
ATOM     10  N   UNL     1       7.287   5.764 -10.824  0.00  0.00    -0.204 NA
ENDROOT
TORSDOF 0
ENDMDL
MODEL 6
REMARK VINA RESULT:      -4.5     10.133     11.516
REMARK  Name = 
REMARK  0 active torsions:
REMARK  status: ('A' for Active; 'I' for Inactive)
REMARK                            x       y       z     vdW  Elec       q    Type
REMARK                         _______ _______ _______ _____ _____    ______ ____
ROOT
ATOM      1  N   UNL     1      -0.122   4.983  -1.383  0.00  0.00    -0.105 NA
ATOM      2  C   UNL     1      -1.012   5.234  -2.446  0.00  0.00    +0.192 A 
ATOM      3  C   UNL     1      -0.565   5.669  -3.689  0.00  0.00    +0.153 A 
ATOM      4  C   UNL     1      -1.496   6.182  -4.585  0.00  0.00    +0.186 A 
ATOM      5  N   UNL     1      -0.793   7.027  -5.380  0.00  0.00    -0.203 NA
ATOM      6  C   UNL     1       0.535   6.835  -5.185  0.00  0.00    +0.200 A 
ATOM      7  N   UNL     1      -2.775   6.327  -4.161  0.00  0.00    -0.203 NA
ATOM      8  C   UNL     1      -3.194   5.473  -3.198  0.00  0.00    +0.202 A 
ATOM      9  N   UNL     1       0.661   6.126  -4.037  0.00  0.00    -0.218 NA
ATOM     10  N   UNL     1      -2.317   5.002  -2.298  0.00  0.00    -0.204 NA
ENDROOT
TORSDOF 0
ENDMDL
MODEL 7
REMARK VINA RESULT:      -4.4      5.156      6.218
REMARK  Name = 
REMARK  0 active torsions:
REMARK  status: ('A' for Active; 'I' for Inactive)
REMARK                            x       y       z     vdW  Elec       q    Type
REMARK                         _______ _______ _______ _____ _____    ______ ____
ROOT
ATOM      1  N   UNL     1       2.180   8.057  -7.878  0.00  0.00    -0.105 NA
ATOM      2  C   UNL     1       2.394   6.719  -8.265  0.00  0.00    +0.192 A 
ATOM      3  C   UNL     1       1.851   5.654  -7.553  0.00  0.00    +0.153 A 
ATOM      4  C   UNL     1       2.339   4.376  -7.800  0.00  0.00    +0.186 A 
ATOM      5  N   UNL     1       2.119   3.687  -6.653  0.00  0.00    -0.203 NA
ATOM      6  C   UNL     1       1.291   4.396  -5.848  0.00  0.00    +0.200 A 
ATOM      7  N   UNL     1       3.388   4.247  -8.648  0.00  0.00    -0.203 NA
ATOM      8  C   UNL     1       3.509   5.191  -9.610  0.00  0.00    +0.202 A 
ATOM      9  N   UNL     1       1.266   5.661  -6.332  0.00  0.00    -0.218 NA
ATOM     10  N   UNL     1       3.083   6.442  -9.372  0.00  0.00    -0.204 NA
ENDROOT
TORSDOF 0
ENDMDL
MODEL 8
REMARK VINA RESULT:      -4.3     10.319     11.627
REMARK  Name = 
REMARK  0 active torsions:
REMARK  status: ('A' for Active; 'I' for Inactive)
REMARK                            x       y       z     vdW  Elec       q    Type
REMARK                         _______ _______ _______ _____ _____    ______ ____
ROOT
ATOM      1  N   UNL     1       0.291   6.921  -5.099  0.00  0.00    -0.105 NA
ATOM      2  C   UNL     1       0.106   6.120  -3.954  0.00  0.00    +0.192 A 
ATOM      3  C   UNL     1      -1.133   5.579  -3.629  0.00  0.00    +0.153 A 
ATOM      4  C   UNL     1      -1.316   5.063  -2.352  0.00  0.00    +0.186 A 
ATOM      5  N   UNL     1      -2.647   5.169  -2.115  0.00  0.00    -0.203 NA
ATOM      6  C   UNL     1      -3.293   5.459  -3.272  0.00  0.00    +0.200 A 
ATOM      7  N   UNL     1      -0.309   5.207  -1.456  0.00  0.00    -0.203 NA
ATOM      8  C   UNL     1       0.945   5.277  -1.961  0.00  0.00    +0.202 A 
ATOM      9  N   UNL     1      -2.349   5.869  -4.152  0.00  0.00    -0.218 NA
ATOM     10  N   UNL     1       1.144   5.813  -3.175  0.00  0.00    -0.204 NA
ENDROOT
TORSDOF 0
ENDMDL
MODEL 9
REMARK VINA RESULT:      -4.2      5.561      6.867
REMARK  Name = 
REMARK  0 active torsions:
REMARK  status: ('A' for Active; 'I' for Inactive)
REMARK                            x       y       z     vdW  Elec       q    Type
REMARK                         _______ _______ _______ _____ _____    ______ ____
ROOT
ATOM      1  N   UNL     1       2.132   8.200  -7.860  0.00  0.00    -0.105 NA
ATOM      2  C   UNL     1       1.960   6.957  -7.218  0.00  0.00    +0.192 A 
ATOM      3  C   UNL     1       2.640   5.817  -7.632  0.00  0.00    +0.153 A 
ATOM      4  C   UNL     1       2.208   4.582  -7.164  0.00  0.00    +0.186 A 
ATOM      5  N   UNL     1       2.592   3.691  -8.112  0.00  0.00    -0.203 NA
ATOM      6  C   UNL     1       3.457   4.285  -8.970  0.00  0.00    +0.200 A 
ATOM      7  N   UNL     1       1.083   4.545  -6.409  0.00  0.00    -0.203 NA
ATOM      8  C   UNL     1       0.802   5.654  -5.686  0.00  0.00    +0.202 A 
ATOM      9  N   UNL     1       3.352   5.620  -8.767  0.00  0.00    -0.218 NA
ATOM     10  N   UNL     1       1.173   6.859  -6.145  0.00  0.00    -0.204 NA
ENDROOT
TORSDOF 0
ENDMDL
