MODEL 1
REMARK VINA RESULT:      -4.7      0.000      0.000
REMARK  Name = 
REMARK  0 active torsions:
REMARK  status: ('A' for Active; 'I' for Inactive)
REMARK                            x       y       z     vdW  Elec       q    Type
REMARK                         _______ _______ _______ _____ _____    ______ ____
ROOT
ATOM      1  O   UNL     1       7.678   4.653 -13.276  0.00  0.00    -0.287 OA
ATOM      2  C   UNL     1       7.212   5.543 -12.301  0.00  0.00    +0.196 A 
ATOM      3  C   UNL     1       7.998   5.578 -11.153  0.00  0.00    +0.042 A 
ATOM      4  C   UNL     1       7.570   6.434 -10.149  0.00  0.00    +0.003 A 
ATOM      5  C   UNL     1       7.189   7.700 -10.572  0.00  0.00    +0.000 A 
ATOM      6  C   UNL     1       6.457   7.716 -11.754  0.00  0.00    +0.003 A 
ATOM      7  C   UNL     1       6.758   6.784 -12.729  0.00  0.00    +0.042 A 
ENDROOT
TORSDOF 0
ENDMDL
MODEL 2
REMARK VINA RESULT:      -4.4     12.265     12.743
REMARK  Name = 
REMARK  0 active torsions:
REMARK  status: ('A' for Active; 'I' for Inactive)
REMARK                            x       y       z     vdW  Elec       q    Type
REMARK                         _______ _______ _______ _____ _____    ______ ____
ROOT
ATOM      1  O   UNL     1      -2.683   4.973  -1.895  0.00  0.00    -0.287 OA
ATOM      2  C   UNL     1      -2.275   5.758  -2.979  0.00  0.00    +0.196 A 
ATOM      3  C   UNL     1      -2.770   5.324  -4.204  0.00  0.00    +0.042 A 
ATOM      4  C   UNL     1      -2.382   6.059  -5.314  0.00  0.00    +0.003 A 
ATOM      5  C   UNL     1      -2.460   7.437  -5.167  0.00  0.00    +0.000 A 
ATOM      6  C   UNL     1      -2.035   7.910  -3.930  0.00  0.00    +0.003 A 
ATOM      7  C   UNL     1      -2.278   7.137  -2.811  0.00  0.00    +0.042 A 
ENDROOT
TORSDOF 0
ENDMDL
MODEL 3
REMARK VINA RESULT:      -4.2      2.215      2.729
REMARK  Name = 
REMARK  0 active torsions:
REMARK  status: ('A' for Active; 'I' for Inactive)
REMARK                            x       y       z     vdW  Elec       q    Type
REMARK                         _______ _______ _______ _____ _____    ______ ____
ROOT
ATOM      1  O   UNL     1       6.458   8.608 -11.819  0.00  0.00    -0.287 OA
ATOM      2  C   UNL     1       6.353   7.373 -11.170  0.00  0.00    +0.196 A 
ATOM      3  C   UNL     1       7.491   7.016 -10.454  0.00  0.00    +0.042 A 
ATOM      4  C   UNL     1       7.444   5.792  -9.804  0.00  0.00    +0.003 A 
ATOM      5  C   UNL     1       6.273   5.539  -9.102  0.00  0.00    +0.000 A 
ATOM      6  C   UNL     1       5.112   5.941  -9.754  0.00  0.00    +0.003 A 
ATOM      7  C   UNL     1       5.154   7.084 -10.529  0.00  0.00    +0.042 A 
ENDROOT
TORSDOF 0
ENDMDL
MODEL 4
REMARK VINA RESULT:      -4.2      2.462      3.243
REMARK  Name = 
REMARK  0 active torsions:
REMARK  status: ('A' for Active; 'I' for Inactive)
REMARK                            x       y       z     vdW  Elec       q    Type
REMARK                         _______ _______ _______ _____ _____    ______ ____
ROOT
ATOM      1  O   UNL     1       3.629   6.448 -10.099  0.00  0.00    -0.287 OA
ATOM      2  C   UNL     1       4.992   6.382 -10.407  0.00  0.00    +0.196 A 
ATOM      3  C   UNL     1       5.506   7.564 -10.932  0.00  0.00    +0.042 A 
ATOM      4  C   UNL     1       6.851   7.547 -11.270  0.00  0.00    +0.003 A 
ATOM      5  C   UNL     1       7.692   6.976 -10.324  0.00  0.00    +0.000 A 
ATOM      6  C   UNL     1       7.188   5.827  -9.724  0.00  0.00    +0.003 A 
ATOM      7  C   UNL     1       5.827   5.744  -9.497  0.00  0.00    +0.042 A 
ENDROOT
TORSDOF 0
ENDMDL
MODEL 5
REMARK VINA RESULT:      -4.1      2.298      2.712
REMARK  Name = 
REMARK  0 active torsions:
REMARK  status: ('A' for Active; 'I' for Inactive)
REMARK                            x       y       z     vdW  Elec       q    Type
REMARK                         _______ _______ _______ _____ _____    ______ ____
ROOT
ATOM      1  O   UNL     1       3.669   6.724 -11.142  0.00  0.00    -0.287 OA
ATOM      2  C   UNL     1       4.941   6.857 -10.573  0.00  0.00    +0.196 A 
ATOM      3  C   UNL     1       5.424   5.686  -9.998  0.00  0.00    +0.042 A 
ATOM      4  C   UNL     1       6.675   5.768  -9.406  0.00  0.00    +0.003 A 
ATOM      5  C   UNL     1       7.640   6.432 -10.152  0.00  0.00    +0.000 A 
ATOM      6  C   UNL     1       7.183   7.575 -10.799  0.00  0.00    +0.003 A 
ATOM      7  C   UNL     1       5.888   7.586 -11.282  0.00  0.00    +0.042 A 
ENDROOT
TORSDOF 0
ENDMDL
MODEL 6
REMARK VINA RESULT:      -4.1     10.585     11.094
REMARK  Name = 
REMARK  0 active torsions:
REMARK  status: ('A' for Active; 'I' for Inactive)
REMARK                            x       y       z     vdW  Elec       q    Type
REMARK                         _______ _______ _______ _____ _____    ______ ____
ROOT
ATOM      1  O   UNL     1      -1.951   8.421  -4.153  0.00  0.00    -0.287 OA
ATOM      2  C   UNL     1      -1.649   7.210  -4.786  0.00  0.00    +0.196 A 
ATOM      3  C   UNL     1      -2.641   6.769  -5.656  0.00  0.00    +0.042 A 
ATOM      4  C   UNL     1      -2.397   5.564  -6.298  0.00  0.00    +0.003 A 
ATOM      5  C   UNL     1      -1.123   5.424  -6.830  0.00  0.00    +0.000 A 
ATOM      6  C   UNL     1      -0.103   5.914  -6.021  0.00  0.00    +0.003 A 
ATOM      7  C   UNL     1      -0.352   7.036  -5.254  0.00  0.00    +0.042 A 
ENDROOT
TORSDOF 0
ENDMDL
MODEL 7
REMARK VINA RESULT:      -4.1      1.911      2.990
REMARK  Name = 
REMARK  0 active torsions:
REMARK  status: ('A' for Active; 'I' for Inactive)
REMARK                            x       y       z     vdW  Elec       q    Type
REMARK                         _______ _______ _______ _____ _____    ______ ____
ROOT
ATOM      1  O   UNL     1       5.289   7.697 -10.853  0.00  0.00    -0.287 OA
ATOM      2  C   UNL     1       6.216   6.788 -11.375  0.00  0.00    +0.196 A 
ATOM      3  C   UNL     1       6.615   7.079 -12.676  0.00  0.00    +0.042 A 
ATOM      4  C   UNL     1       7.522   6.199 -13.246  0.00  0.00    +0.003 A 
ATOM      5  C   UNL     1       8.587   5.835 -12.432  0.00  0.00    +0.000 A 
ATOM      6  C   UNL     1       8.243   5.599 -11.105  0.00  0.00    +0.003 A 
ATOM      7  C   UNL     1       7.241   6.363 -10.538  0.00  0.00    +0.042 A 
ENDROOT
TORSDOF 0
ENDMDL
MODEL 8
REMARK VINA RESULT:      -4.0      9.967     10.396
REMARK  Name = 
REMARK  0 active torsions:
REMARK  status: ('A' for Active; 'I' for Inactive)
REMARK                            x       y       z     vdW  Elec       q    Type
REMARK                         _______ _______ _______ _____ _____    ______ ____
ROOT
ATOM      1  O   UNL     1       1.257   6.818  -4.915  0.00  0.00    -0.287 OA
ATOM      2  C   UNL     1       0.014   6.698  -5.548  0.00  0.00    +0.196 A 
ATOM      3  C   UNL     1      -0.153   5.497  -6.231  0.00  0.00    +0.042 A 
ATOM      4  C   UNL     1      -1.362   5.334  -6.890  0.00  0.00    +0.003 A 
ATOM      5  C   UNL     1      -2.488   5.692  -6.159  0.00  0.00    +0.000 A 
ATOM      6  C   UNL     1      -2.342   6.853  -5.408  0.00  0.00    +0.003 A 
ATOM      7  C   UNL     1      -1.108   7.126  -4.849  0.00  0.00    +0.042 A 
ENDROOT
TORSDOF 0
ENDMDL
MODEL 9
REMARK VINA RESULT:      -4.0     10.004     10.374
REMARK  Name = 
REMARK  0 active torsions:
REMARK  status: ('A' for Active; 'I' for Inactive)
REMARK                            x       y       z     vdW  Elec       q    Type
REMARK                         _______ _______ _______ _____ _____    ______ ____
ROOT
ATOM      1  O   UNL     1       0.896   5.203  -6.403  0.00  0.00    -0.287 OA
ATOM      2  C   UNL     1      -0.294   5.658  -5.823  0.00  0.00    +0.196 A 
ATOM      3  C   UNL     1      -0.185   6.913  -5.232  0.00  0.00    +0.042 A 
ATOM      4  C   UNL     1      -1.333   7.404  -4.628  0.00  0.00    +0.003 A 
ATOM      5  C   UNL     1      -2.498   7.264  -5.370  0.00  0.00    +0.000 A 
ATOM      6  C   UNL     1      -2.618   6.047  -6.033  0.00  0.00    +0.003 A 
ATOM      7  C   UNL     1      -1.473   5.452  -6.528  0.00  0.00    +0.042 A 
ENDROOT
TORSDOF 0
ENDMDL
