MODEL 1
REMARK VINA RESULT:      -8.4      0.000      0.000
REMARK  Name = 
REMARK  4 active torsions:
REMARK  status: ('A' for Active; 'I' for Inactive)
REMARK    1  A    between atoms: N_5  and  C_6
REMARK    2  A    between atoms: C_6  and  C_7
REMARK    3  A    between atoms: C_7  and  C_8
REMARK    4  A    between atoms: C_8  and  N_9
REMARK                            x       y       z     vdW  Elec       q    Type
REMARK                         _______ _______ _______ _____ _____    ______ ____
ROOT
ATOM      1  N   UNL     1       1.185   4.876  -5.057  0.00  0.00    -0.286 N 
ATOM      2  C   UNL     1       2.100   5.386  -4.079  0.00  0.00    +0.058 A 
ATOM      3  C   UNL     1       1.722   5.588  -2.757  0.00  0.00    +0.043 A 
ATOM      4  C   UNL     1       2.370   6.631  -2.107  0.00  0.00    +0.009 A 
ATOM      5  C   UNL     1       3.505   7.230  -2.640  0.00  0.00    +0.012 A 
ATOM      6  C   UNL     1       4.177   6.548  -3.647  0.00  0.00    +0.059 A 
ATOM      7 CL   UNL     1       5.558   7.394  -4.341  0.00  0.00    -0.082 Cl
ATOM      8  S   UNL     1      -0.031   5.408  -2.408  0.00  0.00    -0.084 S 
ATOM      9  C   UNL     1      -0.871   5.633  -3.981  0.00  0.00    +0.043 A 
ATOM     10  C   UNL     1      -1.893   6.564  -4.096  0.00  0.00    +0.008 A 
ATOM     11  C   UNL     1      -2.447   6.786  -5.349  0.00  0.00    +0.001 A 
ATOM     12  C   UNL     1      -2.128   5.890  -6.360  0.00  0.00    +0.001 A 
ATOM     13  C   UNL     1      -0.901   5.278  -6.303  0.00  0.00    +0.015 A 
ATOM     14  C   UNL     1       3.429   5.644  -4.393  0.00  0.00    +0.027 A 
ATOM     15  C   UNL     1      -0.159   5.363  -5.142  0.00  0.00    +0.058 A 
ENDROOT
BRANCH   1  16
ATOM     16  C   UNL     1       1.729   4.069  -6.141  0.00  0.00    +0.097 C 
BRANCH  16  17
ATOM     17  C   UNL     1       2.419   4.910  -7.188  0.00  0.00    +0.039 C 
BRANCH  17  18
ATOM     18  C   UNL     1       1.963   4.608  -8.587  0.00  0.00    +0.074 C 
BRANCH  18  23
ATOM     19  C   UNL     1       0.894   6.180 -12.991  0.00  0.00    +0.090 C 
ATOM     20  N   UNL     1       1.373   5.314 -11.950  0.00  0.00    -0.269 NA
ATOM     21  C   UNL     1       0.343   4.754 -11.126  0.00  0.00    +0.090 C 
ATOM     22  C   UNL     1       0.108   5.499  -9.843  0.00  0.00    +0.090 C 
ATOM     23  N   UNL     1       1.320   5.780  -9.114  0.00  0.00    -0.270 NA
ATOM     24  C   UNL     1       2.160   6.568  -9.980  0.00  0.00    +0.090 C 
ATOM     25  C   UNL     1       2.508   5.821 -11.236  0.00  0.00    +0.090 C 
ENDBRANCH  18  23
ENDBRANCH  17  18
ENDBRANCH  16  17
ENDBRANCH   1  16
TORSDOF 4
ENDMDL
MODEL 2
REMARK VINA RESULT:      -8.4      1.636      1.989
REMARK  Name = 
REMARK  4 active torsions:
REMARK  status: ('A' for Active; 'I' for Inactive)
REMARK    1  A    between atoms: N_5  and  C_6
REMARK    2  A    between atoms: C_6  and  C_7
REMARK    3  A    between atoms: C_7  and  C_8
REMARK    4  A    between atoms: C_8  and  N_9
REMARK                            x       y       z     vdW  Elec       q    Type
REMARK                         _______ _______ _______ _____ _____    ______ ____
ROOT
ATOM      1  N   UNL     1       0.922   4.934  -4.938  0.00  0.00    -0.286 N 
ATOM      2  C   UNL     1       1.886   5.414  -3.992  0.00  0.00    +0.058 A 
ATOM      3  C   UNL     1       1.552   5.666  -2.667  0.00  0.00    +0.043 A 
ATOM      4  C   UNL     1       2.271   6.686  -2.057  0.00  0.00    +0.009 A 
ATOM      5  C   UNL     1       3.425   7.208  -2.629  0.00  0.00    +0.012 A 
ATOM      6  C   UNL     1       4.035   6.467  -3.634  0.00  0.00    +0.059 A 
ATOM      7 CL   UNL     1       5.444   7.219  -4.378  0.00  0.00    -0.082 Cl
ATOM      8  S   UNL     1      -0.200   5.593  -2.276  0.00  0.00    -0.084 S 
ATOM      9  C   UNL     1      -1.063   5.830  -3.835  0.00  0.00    +0.043 A 
ATOM     10  C   UNL     1      -2.034   6.814  -3.948  0.00  0.00    +0.008 A 
ATOM     11  C   UNL     1      -2.604   7.039  -5.194  0.00  0.00    +0.001 A 
ATOM     12  C   UNL     1      -2.359   6.105  -6.190  0.00  0.00    +0.001 A 
ATOM     13  C   UNL     1      -1.167   5.425  -6.146  0.00  0.00    +0.015 A 
ATOM     14  C   UNL     1       3.220   5.590  -4.342  0.00  0.00    +0.027 A 
ATOM     15  C   UNL     1      -0.394   5.495  -5.004  0.00  0.00    +0.058 A 
ENDROOT
BRANCH   1  16
ATOM     16  C   UNL     1       1.395   4.074  -6.014  0.00  0.00    +0.097 C 
BRANCH  16  17
ATOM     17  C   UNL     1       1.552   4.824  -7.316  0.00  0.00    +0.039 C 
BRANCH  17  18
ATOM     18  C   UNL     1       2.833   4.506  -8.032  0.00  0.00    +0.074 C 
BRANCH  18  23
ATOM     19  C   UNL     1       5.367   7.381 -10.918  0.00  0.00    +0.090 C 
ATOM     20  N   UNL     1       4.449   6.355 -10.508  0.00  0.00    -0.269 NA
ATOM     21  C   UNL     1       3.254   6.846  -9.888  0.00  0.00    +0.090 C 
ATOM     22  C   UNL     1       3.295   6.846  -8.387  0.00  0.00    +0.090 C 
ATOM     23  N   UNL     1       3.747   5.596  -7.825  0.00  0.00    -0.270 NA
ATOM     24  C   UNL     1       5.070   5.357  -8.342  0.00  0.00    +0.090 C 
ATOM     25  C   UNL     1       5.062   5.245  -9.840  0.00  0.00    +0.090 C 
ENDBRANCH  18  23
ENDBRANCH  17  18
ENDBRANCH  16  17
ENDBRANCH   1  16
TORSDOF 4
ENDMDL
MODEL 3
REMARK VINA RESULT:      -8.1      4.176      8.643
REMARK  Name = 
REMARK  4 active torsions:
REMARK  status: ('A' for Active; 'I' for Inactive)
REMARK    1  A    between atoms: N_5  and  C_6
REMARK    2  A    between atoms: C_6  and  C_7
REMARK    3  A    between atoms: C_7  and  C_8
REMARK    4  A    between atoms: C_8  and  N_9
REMARK                            x       y       z     vdW  Elec       q    Type
REMARK                         _______ _______ _______ _____ _____    ______ ____
ROOT
ATOM      1  N   UNL     1       3.948   5.248 -10.683  0.00  0.00    -0.286 N 
ATOM      2  C   UNL     1       2.887   5.525 -11.607  0.00  0.00    +0.058 A 
ATOM      3  C   UNL     1       3.066   5.425 -12.981  0.00  0.00    +0.043 A 
ATOM      4  C   UNL     1       2.298   6.295 -13.744  0.00  0.00    +0.009 A 
ATOM      5  C   UNL     1       1.232   6.998 -13.198  0.00  0.00    +0.012 A 
ATOM      6  C   UNL     1       0.732   6.560 -11.977  0.00  0.00    +0.059 A 
ATOM      7 CL   UNL     1      -0.563   7.540 -11.295  0.00  0.00    -0.082 Cl
ATOM      8  S   UNL     1       4.756   5.172 -13.533  0.00  0.00    -0.084 S 
ATOM      9  C   UNL     1       5.804   5.745 -12.190  0.00  0.00    +0.043 A 
ATOM     10  C   UNL     1       6.801   6.678 -12.435  0.00  0.00    +0.008 A 
ATOM     11  C   UNL     1       7.520   7.176 -11.358  0.00  0.00    +0.001 A 
ATOM     12  C   UNL     1       7.378   6.531 -10.138  0.00  0.00    +0.001 A 
ATOM     13  C   UNL     1       6.176   5.921  -9.877  0.00  0.00    +0.015 A 
ATOM     14  C   UNL     1       1.609   5.847 -11.167  0.00  0.00    +0.027 A 
ATOM     15  C   UNL     1       5.274   5.743 -10.906  0.00  0.00    +0.058 A 
ENDROOT
BRANCH   1  16
ATOM     16  C   UNL     1       3.591   4.706  -9.380  0.00  0.00    +0.097 C 
BRANCH  16  17
ATOM     17  C   UNL     1       3.421   5.786  -8.339  0.00  0.00    +0.039 C 
BRANCH  17  18
ATOM     18  C   UNL     1       4.094   5.466  -7.035  0.00  0.00    +0.074 C 
BRANCH  18  23
ATOM     19  C   UNL     1       4.422   6.627  -2.392  0.00  0.00    +0.090 C 
ATOM     20  N   UNL     1       4.827   6.346  -3.741  0.00  0.00    -0.269 NA
ATOM     21  C   UNL     1       4.433   7.339  -4.696  0.00  0.00    +0.090 C 
ATOM     22  C   UNL     1       3.167   7.014  -5.436  0.00  0.00    +0.090 C 
ATOM     23  N   UNL     1       3.145   5.677  -5.976  0.00  0.00    -0.270 NA
ATOM     24  C   UNL     1       3.299   4.772  -4.865  0.00  0.00    +0.090 C 
ATOM     25  C   UNL     1       4.604   4.991  -4.154  0.00  0.00    +0.090 C 
ENDBRANCH  18  23
ENDBRANCH  17  18
ENDBRANCH  16  17
ENDBRANCH   1  16
TORSDOF 4
ENDMDL
MODEL 4
REMARK VINA RESULT:      -8.1      3.834      8.375
REMARK  Name = 
REMARK  4 active torsions:
REMARK  status: ('A' for Active; 'I' for Inactive)
REMARK    1  A    between atoms: N_5  and  C_6
REMARK    2  A    between atoms: C_6  and  C_7
REMARK    3  A    between atoms: C_7  and  C_8
REMARK    4  A    between atoms: C_8  and  N_9
REMARK                            x       y       z     vdW  Elec       q    Type
REMARK                         _______ _______ _______ _____ _____    ______ ____
ROOT
ATOM      1  N   UNL     1       3.751   5.347 -10.692  0.00  0.00    -0.286 N 
ATOM      2  C   UNL     1       2.705   5.615 -11.635  0.00  0.00    +0.058 A 
ATOM      3  C   UNL     1       2.892   5.455 -13.003  0.00  0.00    +0.043 A 
ATOM      4  C   UNL     1       2.154   6.314 -13.807  0.00  0.00    +0.009 A 
ATOM      5  C   UNL     1       1.102   7.066 -13.299  0.00  0.00    +0.012 A 
ATOM      6  C   UNL     1       0.581   6.691 -12.066  0.00  0.00    +0.059 A 
ATOM      7 CL   UNL     1      -0.692   7.731 -11.435  0.00  0.00    -0.082 Cl
ATOM      8  S   UNL     1       4.580   5.136 -13.529  0.00  0.00    -0.084 S 
ATOM      9  C   UNL     1       5.632   5.734 -12.200  0.00  0.00    +0.043 A 
ATOM     10  C   UNL     1       6.655   6.630 -12.474  0.00  0.00    +0.008 A 
ATOM     11  C   UNL     1       7.378   7.152 -11.410  0.00  0.00    +0.001 A 
ATOM     12  C   UNL     1       7.209   6.559 -10.167  0.00  0.00    +0.001 A 
ATOM     13  C   UNL     1       5.989   5.992  -9.893  0.00  0.00    +0.015 A 
ATOM     14  C   UNL     1       1.432   5.988 -11.221  0.00  0.00    +0.027 A 
ATOM     15  C   UNL     1       5.091   5.797 -10.923  0.00  0.00    +0.058 A 
ENDROOT
BRANCH   1  16
ATOM     16  C   UNL     1       3.369   4.867  -9.372  0.00  0.00    +0.097 C 
BRANCH  16  17
ATOM     17  C   UNL     1       3.268   5.987  -8.364  0.00  0.00    +0.039 C 
BRANCH  17  18
ATOM     18  C   UNL     1       2.057   5.884  -7.482  0.00  0.00    +0.074 C 
BRANCH  18  23
ATOM     19  C   UNL     1       0.842   5.499  -2.857  0.00  0.00    +0.090 C 
ATOM     20  N   UNL     1       0.896   6.015  -4.197  0.00  0.00    -0.269 NA
ATOM     21  C   UNL     1       0.244   5.194  -5.173  0.00  0.00    +0.090 C 
ATOM     22  C   UNL     1       1.167   4.276  -5.921  0.00  0.00    +0.090 C 
ATOM     23  N   UNL     1       2.340   4.938  -6.437  0.00  0.00    -0.270 NA
ATOM     24  C   UNL     1       3.035   5.504  -5.309  0.00  0.00    +0.090 C 
ATOM     25  C   UNL     1       2.183   6.510  -4.588  0.00  0.00    +0.090 C 
ENDBRANCH  18  23
ENDBRANCH  17  18
ENDBRANCH  16  17
ENDBRANCH   1  16
TORSDOF 4
ENDMDL
MODEL 5
REMARK VINA RESULT:      -8.0      1.631      2.172
REMARK  Name = 
REMARK  4 active torsions:
REMARK  status: ('A' for Active; 'I' for Inactive)
REMARK    1  A    between atoms: N_5  and  C_6
REMARK    2  A    between atoms: C_6  and  C_7
REMARK    3  A    between atoms: C_7  and  C_8
REMARK    4  A    between atoms: C_8  and  N_9
REMARK                            x       y       z     vdW  Elec       q    Type
REMARK                         _______ _______ _______ _____ _____    ______ ____
ROOT
ATOM      1  N   UNL     1       0.820   5.679  -4.345  0.00  0.00    -0.286 N 
ATOM      2  C   UNL     1       2.044   5.855  -3.620  0.00  0.00    +0.058 A 
ATOM      3  C   UNL     1       2.174   5.462  -2.294  0.00  0.00    +0.043 A 
ATOM      4  C   UNL     1       3.051   6.223  -1.532  0.00  0.00    +0.009 A 
ATOM      5  C   UNL     1       3.942   7.114  -2.118  0.00  0.00    +0.012 A 
ATOM      6  C   UNL     1       4.181   6.980  -3.481  0.00  0.00    +0.059 A 
ATOM      7 CL   UNL     1       5.252   8.190  -4.182  0.00  0.00    -0.082 Cl
ATOM      8  S   UNL     1       0.657   4.952  -1.477  0.00  0.00    -0.084 S 
ATOM      9  C   UNL     1      -0.682   5.692  -2.420  0.00  0.00    +0.043 A 
ATOM     10  C   UNL     1      -1.641   6.463  -1.779  0.00  0.00    +0.008 A 
ATOM     11  C   UNL     1      -2.598   7.104  -2.552  0.00  0.00    +0.001 A 
ATOM     12  C   UNL     1      -2.698   6.736  -3.886  0.00  0.00    +0.001 A 
ATOM     13  C   UNL     1      -1.557   6.301  -4.513  0.00  0.00    +0.015 A 
ATOM     14  C   UNL     1       3.181   6.372  -4.230  0.00  0.00    +0.027 A 
ATOM     15  C   UNL     1      -0.445   5.998  -3.754  0.00  0.00    +0.058 A 
ENDROOT
BRANCH   1  16
ATOM     16  C   UNL     1       0.907   5.447  -5.780  0.00  0.00    +0.097 C 
BRANCH  16  17
ATOM     17  C   UNL     1       1.500   4.097  -6.105  0.00  0.00    +0.039 C 
BRANCH  17  18
ATOM     18  C   UNL     1       2.290   4.088  -7.383  0.00  0.00    +0.074 C 
BRANCH  18  23
ATOM     19  C   UNL     1       4.996   6.152 -10.764  0.00  0.00    +0.090 C 
ATOM     20  N   UNL     1       4.295   5.129 -10.039  0.00  0.00    -0.269 NA
ATOM     21  C   UNL     1       2.867   5.221 -10.117  0.00  0.00    +0.090 C 
ATOM     22  C   UNL     1       2.230   5.920  -8.951  0.00  0.00    +0.090 C 
ATOM     23  N   UNL     1       2.693   5.438  -7.672  0.00  0.00    -0.270 NA
ATOM     24  C   UNL     1       4.118   5.642  -7.635  0.00  0.00    +0.090 C 
ATOM     25  C   UNL     1       4.812   4.877  -8.726  0.00  0.00    +0.090 C 
ENDBRANCH  18  23
ENDBRANCH  17  18
ENDBRANCH  16  17
ENDBRANCH   1  16
TORSDOF 4
ENDMDL
MODEL 6
REMARK VINA RESULT:      -7.9      3.009      7.192
REMARK  Name = 
REMARK  4 active torsions:
REMARK  status: ('A' for Active; 'I' for Inactive)
REMARK    1  A    between atoms: N_5  and  C_6
REMARK    2  A    between atoms: C_6  and  C_7
REMARK    3  A    between atoms: C_7  and  C_8
REMARK    4  A    between atoms: C_8  and  N_9
REMARK                            x       y       z     vdW  Elec       q    Type
REMARK                         _______ _______ _______ _____ _____    ______ ____
ROOT
ATOM      1  N   UNL     1       1.105   5.042  -7.639  0.00  0.00    -0.286 N 
ATOM      2  C   UNL     1       1.135   5.258  -9.056  0.00  0.00    +0.058 A 
ATOM      3  C   UNL     1       2.235   4.907  -9.828  0.00  0.00    +0.043 A 
ATOM      4  C   UNL     1       2.455   5.704 -10.944  0.00  0.00    +0.009 A 
ATOM      5  C   UNL     1       1.490   6.590 -11.410  0.00  0.00    +0.012 A 
ATOM      6  C   UNL     1       0.187   6.417 -10.957  0.00  0.00    +0.059 A 
ATOM      7 CL   UNL     1      -0.973   7.619 -11.514  0.00  0.00    -0.082 Cl
ATOM      8  S   UNL     1       3.700   4.403  -8.918  0.00  0.00    -0.084 S 
ATOM      9  C   UNL     1       3.517   5.093  -7.269  0.00  0.00    +0.043 A 
ATOM     10  C   UNL     1       4.530   5.870  -6.726  0.00  0.00    +0.008 A 
ATOM     11  C   UNL     1       4.311   6.474  -5.495  0.00  0.00    +0.001 A 
ATOM     12  C   UNL     1       3.205   6.063  -4.766  0.00  0.00    +0.001 A 
ATOM     13  C   UNL     1       2.108   5.624  -5.467  0.00  0.00    +0.015 A 
ATOM     14  C   UNL     1       0.036   5.771  -9.734  0.00  0.00    +0.027 A 
ATOM     15  C   UNL     1       2.233   5.361  -6.816  0.00  0.00    +0.058 A 
ENDROOT
BRANCH   1  16
ATOM     16  C   UNL     1      -0.184   4.767  -7.020  0.00  0.00    +0.097 C 
BRANCH  16  17
ATOM     17  C   UNL     1      -0.862   6.024  -6.530  0.00  0.00    +0.039 C 
BRANCH  17  18
ATOM     18  C   UNL     1      -1.997   5.756  -5.583  0.00  0.00    +0.074 C 
BRANCH  18  23
ATOM     19  C   UNL     1      -1.710   5.747  -0.795  0.00  0.00    +0.090 C 
ATOM     20  N   UNL     1      -1.737   5.252  -2.143  0.00  0.00    -0.269 NA
ATOM     21  C   UNL     1      -0.586   5.596  -2.923  0.00  0.00    +0.090 C 
ATOM     22  C   UNL     1      -0.771   6.806  -3.792  0.00  0.00    +0.090 C 
ATOM     23  N   UNL     1      -1.986   6.774  -4.569  0.00  0.00    -0.270 NA
ATOM     24  C   UNL     1      -3.079   6.681  -3.635  0.00  0.00    +0.090 C 
ATOM     25  C   UNL     1      -2.993   5.429  -2.811  0.00  0.00    +0.090 C 
ENDBRANCH  18  23
ENDBRANCH  17  18
ENDBRANCH  16  17
ENDBRANCH   1  16
TORSDOF 4
ENDMDL
MODEL 7
REMARK VINA RESULT:      -7.5      2.414      6.283
REMARK  Name = 
REMARK  4 active torsions:
REMARK  status: ('A' for Active; 'I' for Inactive)
REMARK    1  A    between atoms: N_5  and  C_6
REMARK    2  A    between atoms: C_6  and  C_7
REMARK    3  A    between atoms: C_7  and  C_8
REMARK    4  A    between atoms: C_8  and  N_9
REMARK                            x       y       z     vdW  Elec       q    Type
REMARK                         _______ _______ _______ _____ _____    ______ ____
ROOT
ATOM      1  N   UNL     1       0.661   5.576  -7.286  0.00  0.00    -0.286 N 
ATOM      2  C   UNL     1       1.766   5.951  -6.453  0.00  0.00    +0.058 A 
ATOM      3  C   UNL     1       2.540   7.073  -6.722  0.00  0.00    +0.043 A 
ATOM      4  C   UNL     1       3.870   6.983  -6.334  0.00  0.00    +0.009 A 
ATOM      5  C   UNL     1       4.317   5.976  -5.487  0.00  0.00    +0.012 A 
ATOM      6  C   UNL     1       3.360   5.274  -4.764  0.00  0.00    +0.059 A 
ATOM      7 CL   UNL     1       3.978   3.955  -3.773  0.00  0.00    -0.082 Cl
ATOM      8  S   UNL     1       2.230   7.877  -8.298  0.00  0.00    -0.084 S 
ATOM      9  C   UNL     1       1.449   6.637  -9.339  0.00  0.00    +0.043 A 
ATOM     10  C   UNL     1       1.972   6.353 -10.592  0.00  0.00    +0.008 A 
ATOM     11  C   UNL     1       1.409   5.317 -11.324  0.00  0.00    +0.001 A 
ATOM     12  C   UNL     1       0.203   4.797 -10.876  0.00  0.00    +0.001 A 
ATOM     13  C   UNL     1      -0.044   4.834  -9.526  0.00  0.00    +0.015 A 
ATOM     14  C   UNL     1       2.077   5.242  -5.299  0.00  0.00    +0.027 A 
ATOM     15  C   UNL     1       0.766   5.602  -8.714  0.00  0.00    +0.058 A 
ENDROOT
BRANCH   1  16
ATOM     16  C   UNL     1      -0.465   4.898  -6.658  0.00  0.00    +0.097 C 
BRANCH  16  17
ATOM     17  C   UNL     1      -1.615   5.838  -6.381  0.00  0.00    +0.039 C 
BRANCH  17  18
ATOM     18  C   UNL     1      -2.351   5.516  -5.113  0.00  0.00    +0.074 C 
BRANCH  18  23
ATOM     19  C   UNL     1      -1.187   6.071  -0.492  0.00  0.00    +0.090 C 
ATOM     20  N   UNL     1      -1.423   5.425  -1.753  0.00  0.00    -0.269 NA
ATOM     21  C   UNL     1      -0.466   5.745  -2.770  0.00  0.00    +0.090 C 
ATOM     22  C   UNL     1      -0.903   6.835  -3.705  0.00  0.00    +0.090 C 
ATOM     23  N   UNL     1      -2.234   6.643  -4.227  0.00  0.00    -0.270 NA
ATOM     24  C   UNL     1      -3.126   6.593  -3.097  0.00  0.00    +0.090 C 
ATOM     25  C   UNL     1      -2.791   5.450  -2.182  0.00  0.00    +0.090 C 
ENDBRANCH  18  23
ENDBRANCH  17  18
ENDBRANCH  16  17
ENDBRANCH   1  16
TORSDOF 4
ENDMDL
MODEL 8
REMARK VINA RESULT:      -7.4      1.982      2.762
REMARK  Name = 
REMARK  4 active torsions:
REMARK  status: ('A' for Active; 'I' for Inactive)
REMARK    1  A    between atoms: N_5  and  C_6
REMARK    2  A    between atoms: C_6  and  C_7
REMARK    3  A    between atoms: C_7  and  C_8
REMARK    4  A    between atoms: C_8  and  N_9
REMARK                            x       y       z     vdW  Elec       q    Type
REMARK                         _______ _______ _______ _____ _____    ______ ____
ROOT
ATOM      1  N   UNL     1       2.073   6.588  -3.576  0.00  0.00    -0.286 N 
ATOM      2  C   UNL     1       2.389   6.864  -2.205  0.00  0.00    +0.058 A 
ATOM      3  C   UNL     1       1.869   6.106  -1.164  0.00  0.00    +0.043 A 
ATOM      4  C   UNL     1       1.670   6.791   0.028  0.00  0.00    +0.009 A 
ATOM      5  C   UNL     1       2.219   8.048   0.247  0.00  0.00    +0.012 A 
ATOM      6  C   UNL     1       3.245   8.457  -0.597  0.00  0.00    +0.059 A 
ATOM      7 CL   UNL     1       3.843  10.091  -0.325  0.00  0.00    -0.082 Cl
ATOM      8  S   UNL     1       0.591   4.927  -1.619  0.00  0.00    -0.084 S 
ATOM      9  C   UNL     1      -0.081   5.508  -3.181  0.00  0.00    +0.043 A 
ATOM     10  C   UNL     1      -1.448   5.699  -3.321  0.00  0.00    +0.008 A 
ATOM     11  C   UNL     1      -1.921   6.248  -4.505  0.00  0.00    +0.001 A 
ATOM     12  C   UNL     1      -1.036   6.337  -5.570  0.00  0.00    +0.001 A 
ATOM     13  C   UNL     1       0.296   6.496  -5.278  0.00  0.00    +0.015 A 
ATOM     14  C   UNL     1       3.285   7.868  -1.856  0.00  0.00    +0.027 A 
ATOM     15  C   UNL     1       0.730   6.300  -3.983  0.00  0.00    +0.058 A 
ENDROOT
BRANCH   1  16
ATOM     16  C   UNL     1       3.082   6.888  -4.581  0.00  0.00    +0.097 C 
BRANCH  16  17
ATOM     17  C   UNL     1       3.828   5.653  -5.027  0.00  0.00    +0.039 C 
BRANCH  17  18
ATOM     18  C   UNL     1       3.431   5.182  -6.397  0.00  0.00    +0.074 C 
BRANCH  18  23
ATOM     19  C   UNL     1       3.094   5.681 -11.156  0.00  0.00    +0.090 C 
ATOM     20  N   UNL     1       2.845   5.177  -9.834  0.00  0.00    -0.269 NA
ATOM     21  C   UNL     1       2.155   6.090  -8.973  0.00  0.00    +0.090 C 
ATOM     22  C   UNL     1       3.053   6.880  -8.066  0.00  0.00    +0.090 C 
ATOM     23  N   UNL     1       4.017   6.068  -7.365  0.00  0.00    -0.270 NA
ATOM     24  C   UNL     1       4.810   5.400  -8.364  0.00  0.00    +0.090 C 
ATOM     25  C   UNL     1       3.966   4.514  -9.235  0.00  0.00    +0.090 C 
ENDBRANCH  18  23
ENDBRANCH  17  18
ENDBRANCH  16  17
ENDBRANCH   1  16
TORSDOF 4
ENDMDL
MODEL 9
REMARK VINA RESULT:      -7.1      3.620      7.406
REMARK  Name = 
REMARK  4 active torsions:
REMARK  status: ('A' for Active; 'I' for Inactive)
REMARK    1  A    between atoms: N_5  and  C_6
REMARK    2  A    between atoms: C_6  and  C_7
REMARK    3  A    between atoms: C_7  and  C_8
REMARK    4  A    between atoms: C_8  and  N_9
REMARK                            x       y       z     vdW  Elec       q    Type
REMARK                         _______ _______ _______ _____ _____    ______ ____
ROOT
ATOM      1  N   UNL     1       2.959   6.673  -9.797  0.00  0.00    -0.286 N 
ATOM      2  C   UNL     1       4.182   6.534 -10.532  0.00  0.00    +0.058 A 
ATOM      3  C   UNL     1       4.206   6.528 -11.921  0.00  0.00    +0.043 A 
ATOM      4  C   UNL     1       5.215   5.763 -12.493  0.00  0.00    +0.009 A 
ATOM      5  C   UNL     1       6.284   5.287 -11.744  0.00  0.00    +0.012 A 
ATOM      6  C   UNL     1       6.508   5.870 -10.502  0.00  0.00    +0.059 A 
ATOM      7 CL   UNL     1       7.822   5.168  -9.563  0.00  0.00    -0.082 Cl
ATOM      8  S   UNL     1       2.604   6.453 -12.731  0.00  0.00    -0.084 S 
ATOM      9  C   UNL     1       1.467   5.781 -11.512  0.00  0.00    +0.043 A 
ATOM     10  C   UNL     1       0.687   4.677 -11.825  0.00  0.00    +0.008 A 
ATOM     11  C   UNL     1      -0.101   4.120 -10.826  0.00  0.00    +0.001 A 
ATOM     12  C   UNL     1      -0.258   4.846  -9.654  0.00  0.00    +0.001 A 
ATOM     13  C   UNL     1       0.772   5.669  -9.272  0.00  0.00    +0.015 A 
ATOM     14  C   UNL     1       5.411   6.463  -9.887  0.00  0.00    +0.027 A 
ATOM     15  C   UNL     1       1.783   5.944 -10.170  0.00  0.00    +0.058 A 
ENDROOT
BRANCH   1  16
ATOM     16  C   UNL     1       3.014   7.339  -8.504  0.00  0.00    +0.097 C 
BRANCH  16  17
ATOM     17  C   UNL     1       3.430   6.400  -7.396  0.00  0.00    +0.039 C 
BRANCH  17  18
ATOM     18  C   UNL     1       3.290   7.001  -6.026  0.00  0.00    +0.074 C 
BRANCH  18  23
ATOM     19  C   UNL     1       4.124   6.113  -1.386  0.00  0.00    +0.090 C 
ATOM     20  N   UNL     1       3.403   6.418  -2.590  0.00  0.00    -0.269 NA
ATOM     21  C   UNL     1       3.310   5.329  -3.516  0.00  0.00    +0.090 C 
ATOM     22  C   UNL     1       4.341   5.359  -4.607  0.00  0.00    +0.090 C 
ATOM     23  N   UNL     1       4.451   6.642  -5.258  0.00  0.00    -0.270 NA
ATOM     24  C   UNL     1       4.798   7.601  -4.241  0.00  0.00    +0.090 C 
ATOM     25  C   UNL     1       3.741   7.681  -3.177  0.00  0.00    +0.090 C 
ENDBRANCH  18  23
ENDBRANCH  17  18
ENDBRANCH  16  17
ENDBRANCH   1  16
TORSDOF 4
ENDMDL
