MODEL 1
REMARK VINA RESULT:      -6.5      0.000      0.000
REMARK  Name = 
REMARK  12 active torsions:
REMARK  status: ('A' for Active; 'I' for Inactive)
REMARK    1  A    between atoms: N_4  and  C_5
REMARK    2  A    between atoms: N_4  and  C_10
REMARK    3  A    between atoms: C_5  and  C_6
REMARK    4  A    between atoms: C_6  and  C_8
REMARK    5  A    between atoms: C_13  and  C_14
REMARK    6  A    between atoms: N_16  and  C_17
REMARK    7  A    between atoms: C_17  and  C_18
REMARK    8  A    between atoms: C_18  and  C_20
REMARK    9  A    between atoms: C_24  and  C_25
REMARK   10  A    between atoms: N_27  and  C_28
REMARK   11  A    between atoms: C_28  and  C_29
REMARK   12  A    between atoms: C_29  and  C_31
REMARK                            x       y       z     vdW  Elec       q    Type
REMARK                         _______ _______ _______ _____ _____    ______ ____
ROOT
ATOM      1  C   UNL     1       1.770   6.312 -12.779  0.00  0.00    +0.065 A 
ATOM      2  C   UNL     1       1.069   6.455 -11.588  0.00  0.00    +0.049 A 
ATOM      3  I   UNL     1      -0.722   7.555 -11.766  0.00  0.00    -0.041 I 
ATOM      4  C   UNL     1       1.526   5.959 -10.383  0.00  0.00    +0.067 A 
ATOM      5  C   UNL     1       2.894   5.708 -10.333  0.00  0.00    +0.040 A 
ATOM      6  I   UNL     1       3.696   5.038  -8.531  0.00  0.00    -0.042 I 
ATOM      7  C   UNL     1       3.742   5.939 -11.410  0.00  0.00    +0.067 A 
ATOM      8  C   UNL     1       3.123   6.083 -12.637  0.00  0.00    +0.049 A 
ATOM      9  I   UNL     1       4.303   5.926 -14.348  0.00  0.00    -0.041 I 
ENDROOT
BRANCH   1  12
ATOM     10  C   UNL     1       0.697   4.419 -13.949  0.00  0.00    +0.095 C 
ATOM     11  C   UNL     1       0.754   4.584 -13.961  0.00  0.00    +0.230 C 
ATOM     12  N   UNL     1       1.054   5.929 -13.963  0.00  0.00    -0.255 N 
ATOM     13  O   UNL     1       0.505   3.796 -13.164  0.00  0.00    -0.275 OA
BRANCH  12  14
ATOM     14  C   UNL     1       0.355   7.020 -14.531  0.00  0.00    +0.134 C 
BRANCH  14  15
ATOM     15  C   UNL     1       1.296   7.664 -15.723  0.00  0.00    +0.205 C 
ATOM     16  O   UNL     1       0.957   9.095 -15.326  0.00  0.00    -0.218 OA
BRANCH  15  17
ATOM     17  C   UNL     1       0.116   7.595 -16.882  0.00  0.00    +0.217 C 
ATOM     18  O   UNL     1       0.892   7.146 -17.965  0.00  0.00    -0.218 OA
ENDBRANCH  15  17
ENDBRANCH  14  15
ENDBRANCH  12  14
ENDBRANCH   1  12
BRANCH   4  19
ATOM     19  C   UNL     1       0.852   6.426  -9.164  0.00  0.00    +0.266 C 
ATOM     20  N   UNL     1       0.052   5.585  -8.334  0.00  0.00    -0.199 NA
ATOM     21  O   UNL     1       1.330   7.442  -8.572  0.00  0.00    -0.268 OA
BRANCH  20  22
ATOM     22  C   UNL     1       0.195   5.668  -6.885  0.00  0.00    +0.151 C 
BRANCH  22  23
ATOM     23  C   UNL     1      -1.157   4.928  -6.292  0.00  0.00    +0.206 C 
ATOM     24  O   UNL     1      -2.088   6.000  -6.837  0.00  0.00    -0.218 OA
BRANCH  23  25
ATOM     25  C   UNL     1      -1.024   5.700  -4.840  0.00  0.00    +0.217 C 
ATOM     26  O   UNL     1      -0.687   6.999  -5.258  0.00  0.00    -0.218 OA
ENDBRANCH  23  25
ENDBRANCH  22  23
ENDBRANCH  20  22
ENDBRANCH   4  19
BRANCH   7  27
ATOM     27  C   UNL     1       5.140   6.293 -11.202  0.00  0.00    +0.266 C 
ATOM     28  N   UNL     1       6.207   5.339 -11.220  0.00  0.00    -0.199 NA
ATOM     29  O   UNL     1       5.365   7.483 -10.825  0.00  0.00    -0.268 OA
BRANCH  28  30
ATOM     30  C   UNL     1       7.357   5.695 -10.460  0.00  0.00    +0.151 C 
BRANCH  30  31
ATOM     31  C   UNL     1       8.690   5.348 -11.370  0.00  0.00    +0.206 C 
ATOM     32  O   UNL     1       7.964   4.434 -12.351  0.00  0.00    -0.218 OA
BRANCH  31  33
ATOM     33  C   UNL     1       8.442   6.664 -12.339  0.00  0.00    +0.217 C 
ATOM     34  O   UNL     1       8.116   6.085 -13.564  0.00  0.00    -0.218 OA
ENDBRANCH  31  33
ENDBRANCH  30  31
ENDBRANCH  28  30
ENDBRANCH   7  27
TORSDOF 12
ENDMDL
MODEL 2
REMARK VINA RESULT:      -6.1      4.911     11.430
REMARK  Name = 
REMARK  12 active torsions:
REMARK  status: ('A' for Active; 'I' for Inactive)
REMARK    1  A    between atoms: N_4  and  C_5
REMARK    2  A    between atoms: N_4  and  C_10
REMARK    3  A    between atoms: C_5  and  C_6
REMARK    4  A    between atoms: C_6  and  C_8
REMARK    5  A    between atoms: C_13  and  C_14
REMARK    6  A    between atoms: N_16  and  C_17
REMARK    7  A    between atoms: C_17  and  C_18
REMARK    8  A    between atoms: C_18  and  C_20
REMARK    9  A    between atoms: C_24  and  C_25
REMARK   10  A    between atoms: N_27  and  C_28
REMARK   11  A    between atoms: C_28  and  C_29
REMARK   12  A    between atoms: C_29  and  C_31
REMARK                            x       y       z     vdW  Elec       q    Type
REMARK                         _______ _______ _______ _____ _____    ______ ____
ROOT
ATOM      1  C   UNL     1       3.021   6.529  -2.678  0.00  0.00    +0.065 A 
ATOM      2  C   UNL     1       3.619   6.668  -3.923  0.00  0.00    +0.049 A 
ATOM      3  I   UNL     1       5.373   7.842  -3.913  0.00  0.00    -0.041 I 
ATOM      4  C   UNL     1       3.089   6.126  -5.077  0.00  0.00    +0.067 A 
ATOM      5  C   UNL     1       1.733   5.821  -5.013  0.00  0.00    +0.040 A 
ATOM      6  I   UNL     1       0.819   5.076  -6.730  0.00  0.00    -0.042 I 
ATOM      7  C   UNL     1       0.963   6.046  -3.877  0.00  0.00    +0.067 A 
ATOM      8  C   UNL     1       1.671   6.243  -2.706  0.00  0.00    +0.049 A 
ATOM      9  I   UNL     1       0.637   6.083  -0.903  0.00  0.00    -0.041 I 
ENDROOT
BRANCH   1  12
ATOM     10  C   UNL     1       4.265   4.710  -1.560  0.00  0.00    +0.095 C 
ATOM     11  C   UNL     1       4.201   4.872  -1.547  0.00  0.00    +0.230 C 
ATOM     12  N   UNL     1       3.843   6.202  -1.546  0.00  0.00    -0.255 N 
ATOM     13  O   UNL     1       4.422   4.078  -2.346  0.00  0.00    -0.275 OA
BRANCH  12  14
ATOM     14  C   UNL     1       4.535   7.335  -1.056  0.00  0.00    +0.134 C 
BRANCH  14  15
ATOM     15  C   UNL     1       3.555   8.102   0.027  0.00  0.00    +0.205 C 
ATOM     16  O   UNL     1       3.900   9.481  -0.519  0.00  0.00    -0.218 OA
BRANCH  15  17
ATOM     17  C   UNL     1       4.699   8.174   1.221  0.00  0.00    +0.217 C 
ATOM     18  O   UNL     1       4.554   6.879   1.749  0.00  0.00    -0.218 OA
ENDBRANCH  15  17
ENDBRANCH  14  15
ENDBRANCH  12  14
ENDBRANCH   1  12
BRANCH   4  19
ATOM     19  C   UNL     1       3.646   6.588  -6.356  0.00  0.00    +0.266 C 
ATOM     20  N   UNL     1       4.325   5.734  -7.275  0.00  0.00    -0.199 NA
ATOM     21  O   UNL     1       3.142   7.627  -6.883  0.00  0.00    -0.268 OA
BRANCH  20  22
ATOM     22  C   UNL     1       4.032   5.842  -8.700  0.00  0.00    +0.151 C 
BRANCH  22  23
ATOM     23  C   UNL     1       5.181   4.908  -9.431  0.00  0.00    +0.206 C 
ATOM     24  O   UNL     1       6.324   5.788  -8.951  0.00  0.00    -0.218 OA
BRANCH  23  25
ATOM     25  C   UNL     1       5.055   5.745 -10.847  0.00  0.00    +0.217 C 
ATOM     26  O   UNL     1       4.784   7.039 -10.370  0.00  0.00    -0.218 OA
ENDBRANCH  23  25
ENDBRANCH  22  23
ENDBRANCH  20  22
ENDBRANCH   4  19
BRANCH   7  27
ATOM     27  C   UNL     1      -0.459   6.339  -3.980  0.00  0.00    +0.266 C 
ATOM     28  N   UNL     1      -1.484   5.362  -3.776  0.00  0.00    -0.199 NA
ATOM     29  O   UNL     1      -0.761   7.484  -4.436  0.00  0.00    -0.268 OA
BRANCH  28  30
ATOM     30  C   UNL     1      -2.713   5.615  -4.451  0.00  0.00    +0.151 C 
BRANCH  30  31
ATOM     31  C   UNL     1      -3.932   5.476  -3.347  0.00  0.00    +0.206 C 
ATOM     32  O   UNL     1      -3.055   4.929  -2.228  0.00  0.00    -0.218 OA
BRANCH  31  33
ATOM     33  C   UNL     1      -3.714   7.028  -2.825  0.00  0.00    +0.217 C 
ATOM     34  O   UNL     1      -3.117   6.851  -1.578  0.00  0.00    -0.218 OA
ENDBRANCH  31  33
ENDBRANCH  30  31
ENDBRANCH  28  30
ENDBRANCH   7  27
TORSDOF 12
ENDMDL
MODEL 3
REMARK VINA RESULT:      -5.9      7.905     11.475
REMARK  Name = 
REMARK  12 active torsions:
REMARK  status: ('A' for Active; 'I' for Inactive)
REMARK    1  A    between atoms: N_4  and  C_5
REMARK    2  A    between atoms: N_4  and  C_10
REMARK    3  A    between atoms: C_5  and  C_6
REMARK    4  A    between atoms: C_6  and  C_8
REMARK    5  A    between atoms: C_13  and  C_14
REMARK    6  A    between atoms: N_16  and  C_17
REMARK    7  A    between atoms: C_17  and  C_18
REMARK    8  A    between atoms: C_18  and  C_20
REMARK    9  A    between atoms: C_24  and  C_25
REMARK   10  A    between atoms: N_27  and  C_28
REMARK   11  A    between atoms: C_28  and  C_29
REMARK   12  A    between atoms: C_29  and  C_31
REMARK                            x       y       z     vdW  Elec       q    Type
REMARK                         _______ _______ _______ _____ _____    ______ ____
ROOT
ATOM      1  C   UNL     1       2.523   6.250  -1.456  0.00  0.00    +0.065 A 
ATOM      2  C   UNL     1       1.179   6.047  -1.743  0.00  0.00    +0.049 A 
ATOM      3  I   UNL     1       0.787   5.603  -3.769  0.00  0.00    -0.041 I 
ATOM      4  C   UNL     1       0.181   6.170  -0.797  0.00  0.00    +0.067 A 
ATOM      5  C   UNL     1       0.523   6.921   0.322  0.00  0.00    +0.040 A 
ATOM      6  I   UNL     1      -0.942   7.237   1.770  0.00  0.00    -0.042 I 
ATOM      7  C   UNL     1       1.773   7.511   0.481  0.00  0.00    +0.067 A 
ATOM      8  C   UNL     1       2.771   7.021  -0.339  0.00  0.00    +0.049 A 
ATOM      9  I   UNL     1       4.747   7.465   0.160  0.00  0.00    -0.041 I 
ENDROOT
BRANCH   1  12
ATOM     10  C   UNL     1       3.619   4.073  -1.058  0.00  0.00    +0.095 C 
ATOM     11  C   UNL     1       3.620   4.221  -1.149  0.00  0.00    +0.230 C 
ATOM     12  N   UNL     1       3.490   5.321  -1.968  0.00  0.00    -0.255 N 
ATOM     13  O   UNL     1       2.925   3.618  -0.462  0.00  0.00    -0.275 OA
BRANCH  12  14
ATOM     14  C   UNL     1       3.640   5.439  -3.371  0.00  0.00    +0.134 C 
BRANCH  14  15
ATOM     15  C   UNL     1       4.892   6.471  -3.664  0.00  0.00    +0.205 C 
ATOM     16  O   UNL     1       4.003   7.703  -3.564  0.00  0.00    -0.218 OA
BRANCH  15  17
ATOM     17  C   UNL     1       4.761   6.382  -5.313  0.00  0.00    +0.217 C 
ATOM     18  O   UNL     1       3.828   7.414  -5.519  0.00  0.00    -0.218 OA
ENDBRANCH  15  17
ENDBRANCH  14  15
ENDBRANCH  12  14
ENDBRANCH   1  12
BRANCH   4  19
ATOM     19  C   UNL     1      -1.205   6.222  -1.283  0.00  0.00    +0.266 C 
ATOM     20  N   UNL     1      -1.792   7.384  -1.867  0.00  0.00    -0.199 NA
ATOM     21  O   UNL     1      -1.757   5.131  -1.621  0.00  0.00    -0.268 OA
BRANCH  20  22
ATOM     22  C   UNL     1      -2.610   7.244  -3.067  0.00  0.00    +0.151 C 
BRANCH  22  23
ATOM     23  C   UNL     1      -1.616   7.708  -4.301  0.00  0.00    +0.206 C 
ATOM     24  O   UNL     1      -2.088   9.153  -4.253  0.00  0.00    -0.218 OA
BRANCH  23  25
ATOM     25  C   UNL     1      -2.742   7.318  -5.443  0.00  0.00    +0.217 C 
ATOM     26  O   UNL     1      -2.504   5.941  -5.593  0.00  0.00    -0.218 OA
ENDBRANCH  23  25
ENDBRANCH  22  23
ENDBRANCH  20  22
ENDBRANCH   4  19
BRANCH   7  27
ATOM     27  C   UNL     1       1.930   8.742   1.243  0.00  0.00    +0.266 C 
ATOM     28  N   UNL     1       2.003  10.039   0.643  0.00  0.00    -0.199 NA
ATOM     29  O   UNL     1       2.176   8.605   2.480  0.00  0.00    -0.268 OA
BRANCH  28  30
ATOM     30  C   UNL     1       2.712  11.020   1.393  0.00  0.00    +0.151 C 
BRANCH  30  31
ATOM     31  C   UNL     1       4.178  11.247   0.667  0.00  0.00    +0.206 C 
ATOM     32  O   UNL     1       3.621  11.918  -0.582  0.00  0.00    -0.218 OA
BRANCH  31  33
ATOM     33  C   UNL     1       4.388  12.705   1.415  0.00  0.00    +0.217 C 
ATOM     34  O   UNL     1       4.815  13.526   0.373  0.00  0.00    -0.218 OA
ENDBRANCH  31  33
ENDBRANCH  30  31
ENDBRANCH  28  30
ENDBRANCH   7  27
TORSDOF 12
ENDMDL
MODEL 4
REMARK VINA RESULT:      -5.5      1.450      6.311
REMARK  Name = 
REMARK  12 active torsions:
REMARK  status: ('A' for Active; 'I' for Inactive)
REMARK    1  A    between atoms: N_4  and  C_5
REMARK    2  A    between atoms: N_4  and  C_10
REMARK    3  A    between atoms: C_5  and  C_6
REMARK    4  A    between atoms: C_6  and  C_8
REMARK    5  A    between atoms: C_13  and  C_14
REMARK    6  A    between atoms: N_16  and  C_17
REMARK    7  A    between atoms: C_17  and  C_18
REMARK    8  A    between atoms: C_18  and  C_20
REMARK    9  A    between atoms: C_24  and  C_25
REMARK   10  A    between atoms: N_27  and  C_28
REMARK   11  A    between atoms: C_28  and  C_29
REMARK   12  A    between atoms: C_29  and  C_31
REMARK                            x       y       z     vdW  Elec       q    Type
REMARK                         _______ _______ _______ _____ _____    ______ ____
ROOT
ATOM      1  C   UNL     1       4.501   6.098 -11.897  0.00  0.00    +0.065 A 
ATOM      2  C   UNL     1       3.845   5.835 -10.701  0.00  0.00    +0.049 A 
ATOM      3  I   UNL     1       5.029   4.834  -9.269  0.00  0.00    -0.041 I 
ATOM      4  C   UNL     1       2.520   6.157 -10.483  0.00  0.00    +0.067 A 
ATOM      5  C   UNL     1       1.766   6.348 -11.636  0.00  0.00    +0.040 A 
ATOM      6  I   UNL     1      -0.266   6.755 -11.416  0.00  0.00    -0.042 I 
ATOM      7  C   UNL     1       2.298   6.221 -12.915  0.00  0.00    +0.067 A 
ATOM      8  C   UNL     1       3.677   6.256 -12.993  0.00  0.00    +0.049 A 
ATOM      9  I   UNL     1       4.539   6.581 -14.863  0.00  0.00    -0.041 I 
ENDROOT
BRANCH   1  12
ATOM     10  C   UNL     1       5.831   8.059 -11.197  0.00  0.00    +0.095 C 
ATOM     11  C   UNL     1       5.828   7.910 -11.289  0.00  0.00    +0.230 C 
ATOM     12  N   UNL     1       5.824   6.654 -11.855  0.00  0.00    -0.255 N 
ATOM     13  O   UNL     1       5.225   8.450 -10.474  0.00  0.00    -0.275 OA
BRANCH  12  14
ATOM     14  C   UNL     1       6.817   5.646 -11.850  0.00  0.00    +0.134 C 
BRANCH  14  15
ATOM     15  C   UNL     1       7.937   6.029 -12.999  0.00  0.00    +0.205 C 
ATOM     16  O   UNL     1       7.873   4.645 -13.633  0.00  0.00    -0.218 OA
BRANCH  15  17
ATOM     17  C   UNL     1       9.241   5.649 -12.052  0.00  0.00    +0.217 C 
ATOM     18  O   UNL     1       8.565   5.108 -10.945  0.00  0.00    -0.218 OA
ENDBRANCH  15  17
ENDBRANCH  14  15
ENDBRANCH  12  14
ENDBRANCH   1  12
BRANCH   4  19
ATOM     19  C   UNL     1       1.869   5.568  -9.305  0.00  0.00    +0.266 C 
ATOM     20  N   UNL     1       1.414   6.333  -8.190  0.00  0.00    -0.199 NA
ATOM     21  O   UNL     1       1.283   4.451  -9.448  0.00  0.00    -0.268 OA
BRANCH  20  22
ATOM     22  C   UNL     1       0.109   6.039  -7.609  0.00  0.00    +0.151 C 
BRANCH  22  23
ATOM     23  C   UNL     1       0.405   5.867  -5.993  0.00  0.00    +0.206 C 
ATOM     24  O   UNL     1       0.620   4.366  -6.104  0.00  0.00    -0.218 OA
BRANCH  23  25
ATOM     25  C   UNL     1      -1.197   5.670  -5.652  0.00  0.00    +0.217 C 
ATOM     26  O   UNL     1      -1.650   5.062  -6.836  0.00  0.00    -0.218 OA
ENDBRANCH  23  25
ENDBRANCH  22  23
ENDBRANCH  20  22
ENDBRANCH   4  19
BRANCH   7  27
ATOM     27  C   UNL     1       1.469   5.791 -14.033  0.00  0.00    +0.266 C 
ATOM     28  N   UNL     1       1.086   6.653 -15.109  0.00  0.00    -0.199 NA
ATOM     29  O   UNL     1       0.946   4.640 -13.930  0.00  0.00    -0.268 OA
BRANCH  28  30
ATOM     30  C   UNL     1      -0.127   6.305 -15.768  0.00  0.00    +0.151 C 
BRANCH  30  31
ATOM     31  C   UNL     1      -0.489   7.516 -16.830  0.00  0.00    +0.206 C 
ATOM     32  O   UNL     1       0.395   6.994 -17.956  0.00  0.00    -0.218 OA
BRANCH  31  33
ATOM     33  C   UNL     1      -1.798   6.694 -17.412  0.00  0.00    +0.217 C 
ATOM     34  O   UNL     1      -1.410   6.380 -18.713  0.00  0.00    -0.218 OA
ENDBRANCH  31  33
ENDBRANCH  30  31
ENDBRANCH  28  30
ENDBRANCH   7  27
TORSDOF 12
ENDMDL
MODEL 5
REMARK VINA RESULT:      -5.3      1.644      7.702
REMARK  Name = 
REMARK  12 active torsions:
REMARK  status: ('A' for Active; 'I' for Inactive)
REMARK    1  A    between atoms: N_4  and  C_5
REMARK    2  A    between atoms: N_4  and  C_10
REMARK    3  A    between atoms: C_5  and  C_6
REMARK    4  A    between atoms: C_6  and  C_8
REMARK    5  A    between atoms: C_13  and  C_14
REMARK    6  A    between atoms: N_16  and  C_17
REMARK    7  A    between atoms: C_17  and  C_18
REMARK    8  A    between atoms: C_18  and  C_20
REMARK    9  A    between atoms: C_24  and  C_25
REMARK   10  A    between atoms: N_27  and  C_28
REMARK   11  A    between atoms: C_28  and  C_29
REMARK   12  A    between atoms: C_29  and  C_31
REMARK                            x       y       z     vdW  Elec       q    Type
REMARK                         _______ _______ _______ _____ _____    ______ ____
ROOT
ATOM      1  C   UNL     1       1.939   5.645  -9.992  0.00  0.00    +0.065 A 
ATOM      2  C   UNL     1       3.193   6.223  -9.850  0.00  0.00    +0.049 A 
ATOM      3  I   UNL     1       3.467   7.256  -8.030  0.00  0.00    -0.041 I 
ATOM      4  C   UNL     1       4.162   6.168 -10.832  0.00  0.00    +0.067 A 
ATOM      5  C   UNL     1       3.686   5.900 -12.112  0.00  0.00    +0.040 A 
ATOM      6  I   UNL     1       5.058   5.879 -13.679  0.00  0.00    -0.042 I 
ATOM      7  C   UNL     1       2.337   5.705 -12.388  0.00  0.00    +0.067 A 
ATOM      8  C   UNL     1       1.538   5.430 -11.295  0.00  0.00    +0.049 A 
ATOM      9  I   UNL     1      -0.358   4.636 -11.648  0.00  0.00    -0.041 I 
ENDROOT
BRANCH   1  12
ATOM     10  C   UNL     1       2.274   3.667  -8.549  0.00  0.00    +0.095 C 
ATOM     11  C   UNL     1       2.164   3.792  -8.601  0.00  0.00    +0.230 C 
ATOM     12  N   UNL     1       1.392   4.895  -8.896  0.00  0.00    -0.255 N 
ATOM     13  O   UNL     1       3.282   3.533  -8.645  0.00  0.00    -0.275 OA
BRANCH  12  14
ATOM     14  C   UNL     1       0.595   5.704  -8.052  0.00  0.00    +0.134 C 
BRANCH  14  15
ATOM     15  C   UNL     1       0.173   4.805  -6.734  0.00  0.00    +0.205 C 
ATOM     16  O   UNL     1      -1.317   4.996  -6.984  0.00  0.00    -0.218 OA
BRANCH  15  17
ATOM     17  C   UNL     1       0.263   6.071  -5.670  0.00  0.00    +0.217 C 
ATOM     18  O   UNL     1      -0.061   5.390  -4.484  0.00  0.00    -0.218 OA
ENDBRANCH  15  17
ENDBRANCH  14  15
ENDBRANCH  12  14
ENDBRANCH   1  12
BRANCH   4  19
ATOM     19  C   UNL     1       5.321   7.059 -10.686  0.00  0.00    +0.266 C 
ATOM     20  N   UNL     1       6.637   6.598 -10.383  0.00  0.00    -0.199 NA
ATOM     21  O   UNL     1       5.283   8.184 -11.271  0.00  0.00    -0.268 OA
BRANCH  20  22
ATOM     22  C   UNL     1       7.773   7.157 -11.108  0.00  0.00    +0.151 C 
BRANCH  22  23
ATOM     23  C   UNL     1       8.901   5.951 -11.103  0.00  0.00    +0.206 C 
ATOM     24  O   UNL     1       9.226   6.131 -12.578  0.00  0.00    -0.218 OA
BRANCH  23  25
ATOM     25  C   UNL     1       7.768   4.799 -11.435  0.00  0.00    +0.217 C 
ATOM     26  O   UNL     1       7.974   4.610 -12.812  0.00  0.00    -0.218 OA
ENDBRANCH  23  25
ENDBRANCH  22  23
ENDBRANCH  20  22
ENDBRANCH   4  19
BRANCH   7  27
ATOM     27  C   UNL     1       1.778   6.057 -13.686  0.00  0.00    +0.266 C 
ATOM     28  N   UNL     1       1.203   7.335 -13.978  0.00  0.00    -0.199 NA
ATOM     29  O   UNL     1       1.664   5.108 -14.521  0.00  0.00    -0.268 OA
BRANCH  28  30
ATOM     30  C   UNL     1       0.223   7.341 -15.012  0.00  0.00    +0.151 C 
BRANCH  30  31
ATOM     31  C   UNL     1       0.702   8.435 -16.153  0.00  0.00    +0.206 C 
ATOM     32  O   UNL     1       1.849   7.590 -16.694  0.00  0.00    -0.218 OA
BRANCH  31  33
ATOM     33  C   UNL     1      -0.345   7.815 -17.270  0.00  0.00    +0.217 C 
ATOM     34  O   UNL     1      -0.722   6.602 -16.698  0.00  0.00    -0.218 OA
ENDBRANCH  31  33
ENDBRANCH  30  31
ENDBRANCH  28  30
ENDBRANCH   7  27
TORSDOF 12
ENDMDL
MODEL 6
REMARK VINA RESULT:      -5.2      1.648      1.895
REMARK  Name = 
REMARK  12 active torsions:
REMARK  status: ('A' for Active; 'I' for Inactive)
REMARK    1  A    between atoms: N_4  and  C_5
REMARK    2  A    between atoms: N_4  and  C_10
REMARK    3  A    between atoms: C_5  and  C_6
REMARK    4  A    between atoms: C_6  and  C_8
REMARK    5  A    between atoms: C_13  and  C_14
REMARK    6  A    between atoms: N_16  and  C_17
REMARK    7  A    between atoms: C_17  and  C_18
REMARK    8  A    between atoms: C_18  and  C_20
REMARK    9  A    between atoms: C_24  and  C_25
REMARK   10  A    between atoms: N_27  and  C_28
REMARK   11  A    between atoms: C_28  and  C_29
REMARK   12  A    between atoms: C_29  and  C_31
REMARK                            x       y       z     vdW  Elec       q    Type
REMARK                         _______ _______ _______ _____ _____    ______ ____
ROOT
ATOM      1  C   UNL     1       1.823   6.402 -13.063  0.00  0.00    +0.065 A 
ATOM      2  C   UNL     1       1.298   6.455 -11.778  0.00  0.00    +0.049 A 
ATOM      3  I   UNL     1      -0.656   7.243 -11.675  0.00  0.00    -0.041 I 
ATOM      4  C   UNL     1       2.010   6.069 -10.659  0.00  0.00    +0.067 A 
ATOM      5  C   UNL     1       3.391   6.046 -10.822  0.00  0.00    +0.040 A 
ATOM      6  I   UNL     1       4.560   5.558  -9.167  0.00  0.00    -0.042 I 
ATOM      7  C   UNL     1       4.016   6.389 -12.016  0.00  0.00    +0.067 A 
ATOM      8  C   UNL     1       3.201   6.401 -13.132  0.00  0.00    +0.049 A 
ATOM      9  I   UNL     1       4.116   6.401 -15.006  0.00  0.00    -0.041 I 
ENDROOT
BRANCH   1  12
ATOM     10  C   UNL     1       0.800   4.350 -13.982  0.00  0.00    +0.095 C 
ATOM     11  C   UNL     1       0.840   4.517 -14.010  0.00  0.00    +0.230 C 
ATOM     12  N   UNL     1       1.009   5.880 -14.124  0.00  0.00    -0.255 N 
ATOM     13  O   UNL     1       0.766   3.765 -13.146  0.00  0.00    -0.275 OA
BRANCH  12  14
ATOM     14  C   UNL     1       0.145   6.866 -14.657  0.00  0.00    +0.134 C 
BRANCH  14  15
ATOM     15  C   UNL     1       0.903   7.565 -15.944  0.00  0.00    +0.205 C 
ATOM     16  O   UNL     1       0.762   8.967 -15.366  0.00  0.00    -0.218 OA
BRANCH  15  17
ATOM     17  C   UNL     1      -0.471   7.693 -16.861  0.00  0.00    +0.217 C 
ATOM     18  O   UNL     1      -0.952   6.379 -16.727  0.00  0.00    -0.218 OA
ENDBRANCH  15  17
ENDBRANCH  14  15
ENDBRANCH  12  14
ENDBRANCH   1  12
BRANCH   4  19
ATOM     19  C   UNL     1       1.461   6.446  -9.349  0.00  0.00    +0.266 C 
ATOM     20  N   UNL     1       1.090   5.500  -8.348  0.00  0.00    -0.199 NA
ATOM     21  O   UNL     1       1.735   7.601  -8.901  0.00  0.00    -0.268 OA
BRANCH  20  22
ATOM     22  C   UNL     1       1.462   5.748  -6.959  0.00  0.00    +0.151 C 
BRANCH  22  23
ATOM     23  C   UNL     1       2.219   4.361  -6.480  0.00  0.00    +0.206 C 
ATOM     24  O   UNL     1       0.941   3.753  -5.924  0.00  0.00    -0.218 OA
BRANCH  23  25
ATOM     25  C   UNL     1       2.618   5.006  -5.015  0.00  0.00    +0.217 C 
ATOM     26  O   UNL     1       3.811   4.316  -4.735  0.00  0.00    -0.218 OA
ENDBRANCH  23  25
ENDBRANCH  22  23
ENDBRANCH  20  22
ENDBRANCH   4  19
BRANCH   7  27
ATOM     27  C   UNL     1       5.351   6.971 -12.025  0.00  0.00    +0.266 C 
ATOM     28  N   UNL     1       6.431   6.458 -12.812  0.00  0.00    -0.199 NA
ATOM     29  O   UNL     1       5.573   7.870 -11.158  0.00  0.00    -0.268 OA
BRANCH  28  30
ATOM     30  C   UNL     1       7.735   6.724 -12.306  0.00  0.00    +0.151 C 
BRANCH  30  31
ATOM     31  C   UNL     1       8.341   5.310 -11.708  0.00  0.00    +0.206 C 
ATOM     32  O   UNL     1       9.805   5.675 -11.923  0.00  0.00    -0.218 OA
BRANCH  31  33
ATOM     33  C   UNL     1       8.369   5.906 -10.167  0.00  0.00    +0.217 C 
ATOM     34  O   UNL     1       8.120   4.772  -9.395  0.00  0.00    -0.218 OA
ENDBRANCH  31  33
ENDBRANCH  30  31
ENDBRANCH  28  30
ENDBRANCH   7  27
TORSDOF 12
ENDMDL
MODEL 7
REMARK VINA RESULT:      -5.2      5.146      8.726
REMARK  Name = 
REMARK  12 active torsions:
REMARK  status: ('A' for Active; 'I' for Inactive)
REMARK    1  A    between atoms: N_4  and  C_5
REMARK    2  A    between atoms: N_4  and  C_10
REMARK    3  A    between atoms: C_5  and  C_6
REMARK    4  A    between atoms: C_6  and  C_8
REMARK    5  A    between atoms: C_13  and  C_14
REMARK    6  A    between atoms: N_16  and  C_17
REMARK    7  A    between atoms: C_17  and  C_18
REMARK    8  A    between atoms: C_18  and  C_20
REMARK    9  A    between atoms: C_24  and  C_25
REMARK   10  A    between atoms: N_27  and  C_28
REMARK   11  A    between atoms: C_28  and  C_29
REMARK   12  A    between atoms: C_29  and  C_31
REMARK                            x       y       z     vdW  Elec       q    Type
REMARK                         _______ _______ _______ _____ _____    ______ ____
ROOT
ATOM      1  C   UNL     1       1.705   5.992  -5.309  0.00  0.00    +0.065 A 
ATOM      2  C   UNL     1       0.557   5.748  -4.566  0.00  0.00    +0.049 A 
ATOM      3  I   UNL     1      -1.240   6.098  -5.614  0.00  0.00    -0.041 I 
ATOM      4  C   UNL     1       0.587   5.355  -3.242  0.00  0.00    +0.067 A 
ATOM      5  C   UNL     1       1.774   5.638  -2.573  0.00  0.00    +0.040 A 
ATOM      6  I   UNL     1       1.890   5.161  -0.549  0.00  0.00    -0.042 I 
ATOM      7  C   UNL     1       2.851   6.272  -3.184  0.00  0.00    +0.067 A 
ATOM      8  C   UNL     1       2.832   6.281  -4.566  0.00  0.00    +0.049 A 
ATOM      9  I   UNL     1       4.605   6.742  -5.562  0.00  0.00    -0.041 I 
ENDROOT
BRANCH   1  12
ATOM     10  C   UNL     1       1.961   3.934  -6.652  0.00  0.00    +0.095 C 
ATOM     11  C   UNL     1       1.963   4.109  -6.652  0.00  0.00    +0.230 C 
ATOM     12  N   UNL     1       1.789   5.476  -6.646  0.00  0.00    -0.255 N 
ATOM     13  O   UNL     1       1.632   3.233  -5.987  0.00  0.00    -0.275 OA
BRANCH  12  14
ATOM     14  C   UNL     1       1.134   6.318  -7.576  0.00  0.00    +0.134 C 
BRANCH  14  15
ATOM     15  C   UNL     1       2.257   6.850  -8.660  0.00  0.00    +0.205 C 
ATOM     16  O   UNL     1       2.078   8.306  -8.249  0.00  0.00    -0.218 OA
BRANCH  15  17
ATOM     17  C   UNL     1       1.188   6.966  -9.920  0.00  0.00    +0.217 C 
ATOM     18  O   UNL     1       0.199   6.081  -9.457  0.00  0.00    -0.218 OA
ENDBRANCH  15  17
ENDBRANCH  14  15
ENDBRANCH  12  14
ENDBRANCH   1  12
BRANCH   4  19
ATOM     19  C   UNL     1      -0.675   5.417  -2.493  0.00  0.00    +0.266 C 
ATOM     20  N   UNL     1      -0.968   6.423  -1.524  0.00  0.00    -0.199 NA
ATOM     21  O   UNL     1      -1.699   4.874  -3.008  0.00  0.00    -0.268 OA
BRANCH  20  22
ATOM     22  C   UNL     1      -2.287   7.045  -1.517  0.00  0.00    +0.151 C 
BRANCH  22  23
ATOM     23  C   UNL     1      -2.401   7.757  -0.032  0.00  0.00    +0.206 C 
ATOM     24  O   UNL     1      -1.090   8.510  -0.197  0.00  0.00    -0.218 OA
BRANCH  23  25
ATOM     25  C   UNL     1      -1.648   6.490   0.708  0.00  0.00    +0.217 C 
ATOM     26  O   UNL     1      -2.291   6.490   1.958  0.00  0.00    -0.218 OA
ENDBRANCH  23  25
ENDBRANCH  22  23
ENDBRANCH  20  22
ENDBRANCH   4  19
BRANCH   7  27
ATOM     27  C   UNL     1       3.763   7.109  -2.417  0.00  0.00    +0.266 C 
ATOM     28  N   UNL     1       4.684   6.593  -1.450  0.00  0.00    -0.199 NA
ATOM     29  O   UNL     1       3.590   8.361  -2.517  0.00  0.00    -0.268 OA
BRANCH  28  30
ATOM     30  C   UNL     1       5.057   7.500  -0.417  0.00  0.00    +0.151 C 
BRANCH  30  31
ATOM     31  C   UNL     1       3.859   7.489   0.719  0.00  0.00    +0.206 C 
ATOM     32  O   UNL     1       4.693   6.824   1.807  0.00  0.00    -0.218 OA
BRANCH  31  33
ATOM     33  C   UNL     1       4.274   8.996   1.255  0.00  0.00    +0.217 C 
ATOM     34  O   UNL     1       3.578   9.834   0.386  0.00  0.00    -0.218 OA
ENDBRANCH  31  33
ENDBRANCH  30  31
ENDBRANCH  28  30
ENDBRANCH   7  27
TORSDOF 12
ENDMDL
MODEL 8
REMARK VINA RESULT:      -4.6      3.926      6.959
REMARK  Name = 
REMARK  12 active torsions:
REMARK  status: ('A' for Active; 'I' for Inactive)
REMARK    1  A    between atoms: N_4  and  C_5
REMARK    2  A    between atoms: N_4  and  C_10
REMARK    3  A    between atoms: C_5  and  C_6
REMARK    4  A    between atoms: C_6  and  C_8
REMARK    5  A    between atoms: C_13  and  C_14
REMARK    6  A    between atoms: N_16  and  C_17
REMARK    7  A    between atoms: C_17  and  C_18
REMARK    8  A    between atoms: C_18  and  C_20
REMARK    9  A    between atoms: C_24  and  C_25
REMARK   10  A    between atoms: N_27  and  C_28
REMARK   11  A    between atoms: C_28  and  C_29
REMARK   12  A    between atoms: C_29  and  C_31
REMARK                            x       y       z     vdW  Elec       q    Type
REMARK                         _______ _______ _______ _____ _____    ______ ____
ROOT
ATOM      1  C   UNL     1       2.900   5.858  -7.557  0.00  0.00    +0.065 A 
ATOM      2  C   UNL     1       1.542   6.066  -7.348  0.00  0.00    +0.049 A 
ATOM      3  I   UNL     1       0.500   6.743  -9.054  0.00  0.00    -0.041 I 
ATOM      4  C   UNL     1       0.934   5.889  -6.121  0.00  0.00    +0.067 A 
ATOM      5  C   UNL     1       1.796   5.925  -5.029  0.00  0.00    +0.040 A 
ATOM      6  I   UNL     1       0.965   5.752  -3.126  0.00  0.00    -0.042 I 
ATOM      7  C   UNL     1       3.166   6.127  -5.156  0.00  0.00    +0.067 A 
ATOM      8  C   UNL     1       3.683   5.928  -6.422  0.00  0.00    +0.049 A 
ATOM      9  I   UNL     1       5.748   5.710  -6.608  0.00  0.00    -0.041 I 
ENDROOT
BRANCH   1  12
ATOM     10  C   UNL     1       2.903   3.647  -8.659  0.00  0.00    +0.095 C 
ATOM     11  C   UNL     1       2.968   3.809  -8.658  0.00  0.00    +0.230 C 
ATOM     12  N   UNL     1       3.320   5.140  -8.726  0.00  0.00    -0.255 N 
ATOM     13  O   UNL     1       2.102   3.208  -8.204  0.00  0.00    -0.275 OA
BRANCH  12  14
ATOM     14  C   UNL     1       3.454   5.994  -9.847  0.00  0.00    +0.134 C 
BRANCH  14  15
ATOM     15  C   UNL     1       4.986   5.829 -10.433  0.00  0.00    +0.205 C 
ATOM     16  O   UNL     1       5.098   7.309 -10.775  0.00  0.00    -0.218 OA
BRANCH  15  17
ATOM     17  C   UNL     1       4.505   5.406 -11.960  0.00  0.00    +0.217 C 
ATOM     18  O   UNL     1       5.742   4.984 -12.477  0.00  0.00    -0.218 OA
ENDBRANCH  15  17
ENDBRANCH  14  15
ENDBRANCH  12  14
ENDBRANCH   1  12
BRANCH   4  19
ATOM     19  C   UNL     1      -0.427   6.419  -5.961  0.00  0.00    +0.266 C 
ATOM     20  N   UNL     1      -1.584   5.595  -5.833  0.00  0.00    -0.199 NA
ATOM     21  O   UNL     1      -0.557   7.583  -5.472  0.00  0.00    -0.268 OA
BRANCH  20  22
ATOM     22  C   UNL     1      -2.592   5.931  -4.832  0.00  0.00    +0.151 C 
BRANCH  22  23
ATOM     23  C   UNL     1      -1.932   5.440  -3.400  0.00  0.00    +0.206 C 
ATOM     24  O   UNL     1      -3.103   4.528  -3.074  0.00  0.00    -0.218 OA
BRANCH  23  25
ATOM     25  C   UNL     1      -2.610   6.701  -2.580  0.00  0.00    +0.217 C 
ATOM     26  O   UNL     1      -3.978   6.410  -2.728  0.00  0.00    -0.218 OA
ENDBRANCH  23  25
ENDBRANCH  22  23
ENDBRANCH  20  22
ENDBRANCH   4  19
BRANCH   7  27
ATOM     27  C   UNL     1       3.929   6.779  -4.101  0.00  0.00    +0.266 C 
ATOM     28  N   UNL     1       4.393   6.104  -2.928  0.00  0.00    -0.199 NA
ATOM     29  O   UNL     1       4.025   8.042  -4.182  0.00  0.00    -0.268 OA
BRANCH  28  30
ATOM     30  C   UNL     1       4.583   6.929  -1.783  0.00  0.00    +0.151 C 
BRANCH  30  31
ATOM     31  C   UNL     1       4.549   5.956  -0.450  0.00  0.00    +0.206 C 
ATOM     32  O   UNL     1       3.099   6.253  -0.088  0.00  0.00    -0.218 OA
BRANCH  31  33
ATOM     33  C   UNL     1       4.105   4.642  -1.349  0.00  0.00    +0.217 C 
ATOM     34  O   UNL     1       3.267   3.945  -0.481  0.00  0.00    -0.218 OA
ENDBRANCH  31  33
ENDBRANCH  30  31
ENDBRANCH  28  30
ENDBRANCH   7  27
TORSDOF 12
ENDMDL
MODEL 9
REMARK VINA RESULT:      -4.4      8.148     12.158
REMARK  Name = 
REMARK  12 active torsions:
REMARK  status: ('A' for Active; 'I' for Inactive)
REMARK    1  A    between atoms: N_4  and  C_5
REMARK    2  A    between atoms: N_4  and  C_10
REMARK    3  A    between atoms: C_5  and  C_6
REMARK    4  A    between atoms: C_6  and  C_8
REMARK    5  A    between atoms: C_13  and  C_14
REMARK    6  A    between atoms: N_16  and  C_17
REMARK    7  A    between atoms: C_17  and  C_18
REMARK    8  A    between atoms: C_18  and  C_20
REMARK    9  A    between atoms: C_24  and  C_25
REMARK   10  A    between atoms: N_27  and  C_28
REMARK   11  A    between atoms: C_28  and  C_29
REMARK   12  A    between atoms: C_29  and  C_31
REMARK                            x       y       z     vdW  Elec       q    Type
REMARK                         _______ _______ _______ _____ _____    ______ ____
ROOT
ATOM      1  C   UNL     1       1.673   6.885  -1.224  0.00  0.00    +0.065 A 
ATOM      2  C   UNL     1       0.663   6.859  -0.273  0.00  0.00    +0.049 A 
ATOM      3  I   UNL     1      -1.200   6.194  -1.008  0.00  0.00    -0.041 I 
ATOM      4  C   UNL     1       0.846   7.276   1.031  0.00  0.00    +0.067 A 
ATOM      5  C   UNL     1       1.936   8.119   1.229  0.00  0.00    +0.040 A 
ATOM      6  I   UNL     1       2.250   8.872   3.146  0.00  0.00    -0.042 I 
ATOM      7  C   UNL     1       2.778   8.518   0.197  0.00  0.00    +0.067 A 
ATOM      8  C   UNL     1       2.706   7.761  -0.957  0.00  0.00    +0.049 A 
ATOM      9  I   UNL     1       4.250   7.952  -2.345  0.00  0.00    -0.041 I 
ENDROOT
BRANCH   1  12
ATOM     10  C   UNL     1       2.616   4.606  -1.374  0.00  0.00    +0.095 C 
ATOM     11  C   UNL     1       2.548   4.742  -1.461  0.00  0.00    +0.230 C 
ATOM     12  N   UNL     1       1.845   5.749  -2.085  0.00  0.00    -0.255 N 
ATOM     13  O   UNL     1       2.649   4.351  -0.386  0.00  0.00    -0.275 OA
BRANCH  12  14
ATOM     14  C   UNL     1       0.834   5.682  -3.074  0.00  0.00    +0.134 C 
BRANCH  14  15
ATOM     15  C   UNL     1       1.484   6.193  -4.501  0.00  0.00    +0.205 C 
ATOM     16  O   UNL     1       0.252   7.015  -4.857  0.00  0.00    -0.218 OA
BRANCH  15  17
ATOM     17  C   UNL     1       0.978   4.872  -5.363  0.00  0.00    +0.217 C 
ATOM     18  O   UNL     1       0.272   5.529  -6.386  0.00  0.00    -0.218 OA
ENDBRANCH  15  17
ENDBRANCH  14  15
ENDBRANCH  12  14
ENDBRANCH   1  12
BRANCH   4  19
ATOM     19  C   UNL     1      -0.357   7.478   1.849  0.00  0.00    +0.266 C 
ATOM     20  N   UNL     1      -1.273   8.555   1.654  0.00  0.00    -0.199 NA
ATOM     21  O   UNL     1      -0.856   6.467   2.431  0.00  0.00    -0.268 OA
BRANCH  20  22
ATOM     22  C   UNL     1      -2.706   8.289   1.699  0.00  0.00    +0.151 C 
BRANCH  22  23
ATOM     23  C   UNL     1      -3.328   9.527   2.597  0.00  0.00    +0.206 C 
ATOM     24  O   UNL     1      -2.030   9.743   3.358  0.00  0.00    -0.218 OA
BRANCH  23  25
ATOM     25  C   UNL     1      -3.899   8.493   3.749  0.00  0.00    +0.217 C 
ATOM     26  O   UNL     1      -4.080   7.323   2.992  0.00  0.00    -0.218 OA
ENDBRANCH  23  25
ENDBRANCH  22  23
ENDBRANCH  20  22
ENDBRANCH   4  19
BRANCH   7  27
ATOM     27  C   UNL     1       3.456   9.806   0.237  0.00  0.00    +0.266 C 
ATOM     28  N   UNL     1       4.696  10.024   0.919  0.00  0.00    -0.199 NA
ATOM     29  O   UNL     1       2.807  10.794  -0.223  0.00  0.00    -0.268 OA
BRANCH  28  30
ATOM     30  C   UNL     1       4.924  11.359   1.360  0.00  0.00    +0.151 C 
BRANCH  30  31
ATOM     31  C   UNL     1       5.702  11.283   2.813  0.00  0.00    +0.206 C 
ATOM     32  O   UNL     1       6.326   9.914   2.575  0.00  0.00    -0.218 OA
BRANCH  31  33
ATOM     33  C   UNL     1       7.034  12.049   2.206  0.00  0.00    +0.217 C 
ATOM     34  O   UNL     1       6.548  13.321   1.910  0.00  0.00    -0.218 OA
ENDBRANCH  31  33
ENDBRANCH  30  31
ENDBRANCH  28  30
ENDBRANCH   7  27
TORSDOF 12
ENDMDL
