MODEL 1
REMARK VINA RESULT:      -4.9      0.000      0.000
REMARK  Name = 
REMARK  0 active torsions:
REMARK  status: ('A' for Active; 'I' for Inactive)
REMARK                            x       y       z     vdW  Elec       q    Type
REMARK                         _______ _______ _______ _____ _____    ______ ____
ROOT
ATOM      1  N   UNL     1       1.874   4.319  -0.813  0.00  0.00    -0.086 NA
ATOM      2  C   UNL     1       0.955   5.152  -1.521  0.00  0.00    +0.259 A 
ATOM      3  N   UNL     1       1.297   5.786  -2.666  0.00  0.00    -0.202 NA
ATOM      4  C   UNL     1       0.351   6.130  -3.571  0.00  0.00    +0.140 A 
ATOM      5  S   UNL     1       0.768   6.645  -5.074  0.00  0.00    -0.028 S 
ATOM      6  C   UNL     1      -0.935   5.640  -3.374  0.00  0.00    +0.143 A 
ATOM      7  C   UNL     1      -1.322   5.452  -2.052  0.00  0.00    +0.187 A 
ATOM      8  N   UNL     1      -2.638   5.223  -2.099  0.00  0.00    -0.203 NA
ATOM      9  C   UNL     1      -3.014   5.099  -3.397  0.00  0.00    +0.200 A 
ATOM     10  N   UNL     1      -1.983   5.446  -4.191  0.00  0.00    -0.219 NA
ATOM     11  N   UNL     1      -0.334   5.301  -1.144  0.00  0.00    -0.190 NA
ENDROOT
TORSDOF 0
ENDMDL
MODEL 2
REMARK VINA RESULT:      -4.9      9.066     10.315
REMARK  Name = 
REMARK  0 active torsions:
REMARK  status: ('A' for Active; 'I' for Inactive)
REMARK                            x       y       z     vdW  Elec       q    Type
REMARK                         _______ _______ _______ _____ _____    ______ ____
ROOT
ATOM      1  N   UNL     1       7.762   4.742 -12.777  0.00  0.00    -0.086 NA
ATOM      2  C   UNL     1       6.688   5.367 -12.073  0.00  0.00    +0.259 A 
ATOM      3  N   UNL     1       5.502   5.638 -12.666  0.00  0.00    -0.202 NA
ATOM      4  C   UNL     1       4.372   5.740 -11.928  0.00  0.00    +0.140 A 
ATOM      5  S   UNL     1       2.896   5.792 -12.648  0.00  0.00    -0.028 S 
ATOM      6  C   UNL     1       4.441   5.368 -10.590  0.00  0.00    +0.143 A 
ATOM      7  C   UNL     1       5.663   5.576  -9.960  0.00  0.00    +0.187 A 
ATOM      8  N   UNL     1       5.425   5.386  -8.658  0.00  0.00    -0.203 NA
ATOM      9  C   UNL     1       4.163   4.909  -8.510  0.00  0.00    +0.200 A 
ATOM     10  N   UNL     1       3.521   4.982  -9.692  0.00  0.00    -0.219 NA
ATOM     11  N   UNL     1       6.752   5.659 -10.755  0.00  0.00    -0.190 NA
ENDROOT
TORSDOF 0
ENDMDL
MODEL 3
REMARK VINA RESULT:      -4.8      2.066      3.262
REMARK  Name = 
REMARK  0 active torsions:
REMARK  status: ('A' for Active; 'I' for Inactive)
REMARK                            x       y       z     vdW  Elec       q    Type
REMARK                         _______ _______ _______ _____ _____    ______ ____
ROOT
ATOM      1  N   UNL     1      -2.446   4.960  -1.946  0.00  0.00    -0.086 NA
ATOM      2  C   UNL     1      -1.810   5.657  -3.019  0.00  0.00    +0.259 A 
ATOM      3  N   UNL     1      -0.528   6.081  -2.938  0.00  0.00    -0.202 NA
ATOM      4  C   UNL     1       0.208   6.263  -4.060  0.00  0.00    +0.140 A 
ATOM      5  S   UNL     1       1.831   6.506  -3.975  0.00  0.00    -0.028 S 
ATOM      6  C   UNL     1      -0.331   5.816  -5.262  0.00  0.00    +0.143 A 
ATOM      7  C   UNL     1      -1.716   5.862  -5.365  0.00  0.00    +0.187 A 
ATOM      8  N   UNL     1      -1.981   5.630  -6.655  0.00  0.00    -0.203 NA
ATOM      9  C   UNL     1      -0.829   5.282  -7.281  0.00  0.00    +0.200 A 
ATOM     10  N   UNL     1       0.208   5.483  -6.446  0.00  0.00    -0.219 NA
ATOM     11  N   UNL     1      -2.413   5.871  -4.208  0.00  0.00    -0.190 NA
ENDROOT
TORSDOF 0
ENDMDL
MODEL 4
REMARK VINA RESULT:      -4.7      3.378      4.823
REMARK  Name = 
REMARK  0 active torsions:
REMARK  status: ('A' for Active; 'I' for Inactive)
REMARK                            x       y       z     vdW  Elec       q    Type
REMARK                         _______ _______ _______ _____ _____    ______ ____
ROOT
ATOM      1  N   UNL     1       2.108   8.079  -7.884  0.00  0.00    -0.086 NA
ATOM      2  C   UNL     1       2.426   7.214  -6.792  0.00  0.00    +0.259 A 
ATOM      3  N   UNL     1       3.495   7.432  -5.992  0.00  0.00    -0.202 NA
ATOM      4  C   UNL     1       3.511   6.961  -4.723  0.00  0.00    +0.140 A 
ATOM      5  S   UNL     1       4.664   7.445  -3.658  0.00  0.00    -0.028 S 
ATOM      6  C   UNL     1       2.330   6.427  -4.220  0.00  0.00    +0.143 A 
ATOM      7  C   UNL     1       1.496   5.808  -5.144  0.00  0.00    +0.187 A 
ATOM      8  N   UNL     1       0.574   5.170  -4.415  0.00  0.00    -0.203 NA
ATOM      9  C   UNL     1       0.724   5.525  -3.114  0.00  0.00    +0.200 A 
ATOM     10  N   UNL     1       1.864   6.230  -2.976  0.00  0.00    -0.219 NA
ATOM     11  N   UNL     1       1.644   6.171  -6.437  0.00  0.00    -0.190 NA
ENDROOT
TORSDOF 0
ENDMDL
MODEL 5
REMARK VINA RESULT:      -4.6      1.028      3.418
REMARK  Name = 
REMARK  0 active torsions:
REMARK  status: ('A' for Active; 'I' for Inactive)
REMARK                            x       y       z     vdW  Elec       q    Type
REMARK                         _______ _______ _______ _____ _____    ______ ____
ROOT
ATOM      1  N   UNL     1      -4.056   6.450  -2.630  0.00  0.00    -0.086 NA
ATOM      2  C   UNL     1      -2.861   5.762  -3.006  0.00  0.00    +0.259 A 
ATOM      3  N   UNL     1      -2.378   5.800  -4.269  0.00  0.00    -0.202 NA
ATOM      4  C   UNL     1      -1.060   5.606  -4.507  0.00  0.00    +0.140 A 
ATOM      5  S   UNL     1      -0.413   5.921  -5.984  0.00  0.00    -0.028 S 
ATOM      6  C   UNL     1      -0.208   5.563  -3.409  0.00  0.00    +0.143 A 
ATOM      7  C   UNL     1      -0.749   5.055  -2.234  0.00  0.00    +0.187 A 
ATOM      8  N   UNL     1       0.291   4.881  -1.413  0.00  0.00    -0.203 NA
ATOM      9  C   UNL     1       1.395   5.423  -1.986  0.00  0.00    +0.200 A 
ATOM     10  N   UNL     1       1.111   5.765  -3.257  0.00  0.00    -0.219 NA
ATOM     11  N   UNL     1      -2.094   5.094  -2.116  0.00  0.00    -0.190 NA
ENDROOT
TORSDOF 0
ENDMDL
MODEL 6
REMARK VINA RESULT:      -4.6      2.285      2.670
REMARK  Name = 
REMARK  0 active torsions:
REMARK  status: ('A' for Active; 'I' for Inactive)
REMARK                            x       y       z     vdW  Elec       q    Type
REMARK                         _______ _______ _______ _____ _____    ______ ____
ROOT
ATOM      1  N   UNL     1       2.036   5.497  -1.597  0.00  0.00    -0.086 NA
ATOM      2  C   UNL     1       0.665   5.566  -1.200  0.00  0.00    +0.259 A 
ATOM      3  N   UNL     1       0.219   6.488  -0.316  0.00  0.00    -0.202 NA
ATOM      4  C   UNL     1      -1.076   6.883  -0.327  0.00  0.00    +0.140 A 
ATOM      5  S   UNL     1      -1.569   8.186   0.543  0.00  0.00    -0.028 S 
ATOM      6  C   UNL     1      -1.867   6.459  -1.389  0.00  0.00    +0.143 A 
ATOM      7  C   UNL     1      -1.549   5.221  -1.934  0.00  0.00    +0.187 A 
ATOM      8  N   UNL     1      -2.567   4.921  -2.746  0.00  0.00    -0.203 NA
ATOM      9  C   UNL     1      -3.386   5.999  -2.836  0.00  0.00    +0.200 A 
ATOM     10  N   UNL     1      -3.007   6.919  -1.930  0.00  0.00    -0.219 NA
ATOM     11  N   UNL     1      -0.290   4.774  -1.735  0.00  0.00    -0.190 NA
ENDROOT
TORSDOF 0
ENDMDL
MODEL 7
REMARK VINA RESULT:      -4.6      2.059      4.007
REMARK  Name = 
REMARK  0 active torsions:
REMARK  status: ('A' for Active; 'I' for Inactive)
REMARK                            x       y       z     vdW  Elec       q    Type
REMARK                         _______ _______ _______ _____ _____    ______ ____
ROOT
ATOM      1  N   UNL     1      -1.201   5.130  -6.975  0.00  0.00    -0.086 NA
ATOM      2  C   UNL     1      -1.079   5.699  -5.670  0.00  0.00    +0.259 A 
ATOM      3  N   UNL     1      -2.159   6.067  -4.944  0.00  0.00    -0.202 NA
ATOM      4  C   UNL     1      -2.097   6.113  -3.593  0.00  0.00    +0.140 A 
ATOM      5  S   UNL     1      -3.458   6.286  -2.690  0.00  0.00    -0.028 S 
ATOM      6  C   UNL     1      -0.962   5.587  -2.983  0.00  0.00    +0.143 A 
ATOM      7  C   UNL     1       0.221   5.689  -3.704  0.00  0.00    +0.187 A 
ATOM      8  N   UNL     1       1.188   5.357  -2.843  0.00  0.00    -0.203 NA
ATOM      9  C   UNL     1       0.617   4.899  -1.700  0.00  0.00    +0.200 A 
ATOM     10  N   UNL     1      -0.710   5.125  -1.748  0.00  0.00    -0.219 NA
ATOM     11  N   UNL     1       0.110   5.834  -5.042  0.00  0.00    -0.190 NA
ENDROOT
TORSDOF 0
ENDMDL
MODEL 8
REMARK VINA RESULT:      -4.6      9.412     10.478
REMARK  Name = 
REMARK  0 active torsions:
REMARK  status: ('A' for Active; 'I' for Inactive)
REMARK                            x       y       z     vdW  Elec       q    Type
REMARK                         _______ _______ _______ _____ _____    ______ ____
ROOT
ATOM      1  N   UNL     1       4.819   5.088  -8.162  0.00  0.00    -0.086 NA
ATOM      2  C   UNL     1       5.088   5.608  -9.466  0.00  0.00    +0.259 A 
ATOM      3  N   UNL     1       6.340   5.657  -9.975  0.00  0.00    -0.202 NA
ATOM      4  C   UNL     1       6.539   5.655 -11.314  0.00  0.00    +0.140 A 
ATOM      5  S   UNL     1       8.040   5.437 -11.944  0.00  0.00    -0.028 S 
ATOM      6  C   UNL     1       5.439   5.404 -12.127  0.00  0.00    +0.143 A 
ATOM      7  C   UNL     1       4.210   5.835 -11.642  0.00  0.00    +0.187 A 
ATOM      8  N   UNL     1       3.364   5.717 -12.671  0.00  0.00    -0.203 NA
ATOM      9  C   UNL     1       3.998   5.078 -13.686  0.00  0.00    +0.200 A 
ATOM     10  N   UNL     1       5.307   4.964 -13.388  0.00  0.00    -0.219 NA
ATOM     11  N   UNL     1       4.108   6.009 -10.306  0.00  0.00    -0.190 NA
ENDROOT
TORSDOF 0
ENDMDL
MODEL 9
REMARK VINA RESULT:      -4.5     10.245     11.371
REMARK  Name = 
REMARK  0 active torsions:
REMARK  status: ('A' for Active; 'I' for Inactive)
REMARK                            x       y       z     vdW  Elec       q    Type
REMARK                         _______ _______ _______ _____ _____    ______ ____
ROOT
ATOM      1  N   UNL     1       7.936   5.903 -12.961  0.00  0.00    -0.086 NA
ATOM      2  C   UNL     1       6.636   5.415 -12.624  0.00  0.00    +0.259 A 
ATOM      3  N   UNL     1       6.143   5.496 -11.367  0.00  0.00    -0.202 NA
ATOM      4  C   UNL     1       4.807   5.520 -11.153  0.00  0.00    +0.140 A 
ATOM      5  S   UNL     1       4.195   5.893  -9.675  0.00  0.00    -0.028 S 
ATOM      6  C   UNL     1       3.980   5.655 -12.263  0.00  0.00    +0.143 A 
ATOM      7  C   UNL     1       4.450   5.099 -13.447  0.00  0.00    +0.187 A 
ATOM      8  N   UNL     1       3.410   5.128 -14.287  0.00  0.00    -0.203 NA
ATOM      9  C   UNL     1       2.403   5.830 -13.710  0.00  0.00    +0.200 A 
ATOM     10  N   UNL     1       2.716   6.080 -12.425  0.00  0.00    -0.219 NA
ATOM     11  N   UNL     1       5.784   4.914 -13.546  0.00  0.00    -0.190 NA
ENDROOT
TORSDOF 0
ENDMDL
