MODEL 1
REMARK VINA RESULT:      -9.4      0.000      0.000
REMARK  Name = 
REMARK  3 active torsions:
REMARK  status: ('A' for Active; 'I' for Inactive)
REMARK    1  A    between atoms: C_2  and  C_3
REMARK    2  A    between atoms: C_25  and  C_26
REMARK    3  A    between atoms: C_26  and  N_27
REMARK                            x       y       z     vdW  Elec       q    Type
REMARK                         _______ _______ _______ _____ _____    ______ ____
ROOT
ATOM      1  C   UNL     1       5.335   6.090 -11.419  0.00  0.00    +0.233 C 
ATOM      2  C   UNL     1       4.394   5.933 -10.269  0.00  0.00    +0.021 A 
ATOM      3  C   UNL     1       4.858   5.992  -8.961  0.00  0.00    +0.017 A 
ATOM      4  C   UNL     1       4.039   5.457  -7.982  0.00  0.00    +0.080 A 
ATOM      5  C   UNL     1       4.060   5.603  -6.520  0.00  0.00    +0.095 A 
ATOM      6  C   UNL     1       2.993   4.870  -6.047  0.00  0.00    +0.020 A 
ATOM      7  C   UNL     1       2.263   5.244  -4.926  0.00  0.00    +0.000 A 
ATOM      8  C   UNL     1       2.821   6.212  -4.108  0.00  0.00    +0.018 A 
ATOM      9  C   UNL     1       2.273   6.404  -2.845  0.00  0.00    +0.034 A 
ATOM     10  C   UNL     1       2.958   7.172  -1.918  0.00  0.00    +0.193 A 
ATOM     11  O   UNL     1       3.009   6.832  -0.563  0.00  0.00    -0.287 OA
ATOM     12  C   UNL     1       4.000   7.956  -2.396  0.00  0.00    +0.043 A 
ATOM     13  C   UNL     1       4.432   7.885  -3.713  0.00  0.00    +0.022 A 
ATOM     14  C   UNL     1       3.990   6.837  -4.508  0.00  0.00    +0.081 A 
ATOM     15  C   UNL     1       2.538   4.000  -7.174  0.00  0.00    +0.137 C 
ATOM     16  N   UNL     1       4.596   6.513  -5.672  0.00  0.00    -0.244 NA
ATOM     17  N   UNL     1       2.915   4.783  -8.329  0.00  0.00    -0.290 N 
ATOM     18  C   UNL     1       2.360   4.914  -9.557  0.00  0.00    +0.260 A 
ATOM     19  O   UNL     1       1.115   4.737  -9.713  0.00  0.00    -0.267 OA
ATOM     20  C   UNL     1       3.085   5.562 -10.549  0.00  0.00    +0.076 A 
ATOM     21  C   UNL     1       2.425   6.221 -11.713  0.00  0.00    +0.240 C 
ATOM     22  O   UNL     1       3.324   6.181 -12.814  0.00  0.00    -0.441 OA
ATOM     23  C   UNL     1       4.636   5.723 -12.672  0.00  0.00    +0.349 C 
ATOM     24  O   UNL     1       5.139   4.927 -13.522  0.00  0.00    -0.247 OA
ATOM     25  O   UNL     1       5.832   7.399 -11.451  0.00  0.00    -0.210 OA
ENDROOT
BRANCH   1  27
ATOM     26  C   UNL     1       7.767   5.797 -11.317  0.00  0.00    +0.004 C 
ATOM     27  C   UNL     1       6.528   5.152 -11.286  0.00  0.00    +0.046 C 
ENDBRANCH   1  27
BRANCH   9  28
ATOM     28  C   UNL     1       1.282   5.399  -2.354  0.00  0.00    +0.102 C 
BRANCH  28  29
ATOM     29  N   UNL     1      -0.025   5.971  -2.155  0.00  0.00    -0.266 NA
ATOM     30  C   UNL     1      -1.012   5.463  -3.074  0.00  0.00    +0.090 C 
ATOM     31  C   UNL     1      -0.460   5.941  -0.781  0.00  0.00    +0.090 C 
ENDBRANCH  28  29
ENDBRANCH   9  28
TORSDOF 3
ENDMDL
MODEL 2
REMARK VINA RESULT:      -9.1      1.345      1.648
REMARK  Name = 
REMARK  3 active torsions:
REMARK  status: ('A' for Active; 'I' for Inactive)
REMARK    1  A    between atoms: C_2  and  C_3
REMARK    2  A    between atoms: C_25  and  C_26
REMARK    3  A    between atoms: C_26  and  N_27
REMARK                            x       y       z     vdW  Elec       q    Type
REMARK                         _______ _______ _______ _____ _____    ______ ____
ROOT
ATOM      1  C   UNL     1       3.824   6.426 -10.479  0.00  0.00    +0.233 C 
ATOM      2  C   UNL     1       3.009   6.302  -9.233  0.00  0.00    +0.021 A 
ATOM      3  C   UNL     1       3.620   6.271  -7.987  0.00  0.00    +0.017 A 
ATOM      4  C   UNL     1       2.873   5.766  -6.936  0.00  0.00    +0.080 A 
ATOM      5  C   UNL     1       3.071   5.853  -5.483  0.00  0.00    +0.095 A 
ATOM      6  C   UNL     1       2.005   5.191  -4.911  0.00  0.00    +0.020 A 
ATOM      7  C   UNL     1       1.440   5.580  -3.703  0.00  0.00    +0.000 A 
ATOM      8  C   UNL     1       2.167   6.466  -2.926  0.00  0.00    +0.018 A 
ATOM      9  C   UNL     1       1.784   6.651  -1.604  0.00  0.00    +0.034 A 
ATOM     10  C   UNL     1       2.632   7.324  -0.739  0.00  0.00    +0.193 A 
ATOM     11  O   UNL     1       2.805   6.927   0.590  0.00  0.00    -0.287 OA
ATOM     12  C   UNL     1       3.677   8.037  -1.311  0.00  0.00    +0.043 A 
ATOM     13  C   UNL     1       3.951   7.984  -2.670  0.00  0.00    +0.022 A 
ATOM     14  C   UNL     1       3.334   7.008  -3.439  0.00  0.00    +0.081 A 
ATOM     15  C   UNL     1       1.352   4.407  -6.004  0.00  0.00    +0.137 C 
ATOM     16  N   UNL     1       3.775   6.681  -4.675  0.00  0.00    -0.244 NA
ATOM     17  N   UNL     1       1.663   5.201  -7.171  0.00  0.00    -0.290 N 
ATOM     18  C   UNL     1       0.988   5.426  -8.323  0.00  0.00    +0.260 A 
ATOM     19  O   UNL     1      -0.278   5.358  -8.339  0.00  0.00    -0.267 OA
ATOM     20  C   UNL     1       1.649   6.050  -9.372  0.00  0.00    +0.076 A 
ATOM     21  C   UNL     1       0.921   6.807 -10.432  0.00  0.00    +0.240 C 
ATOM     22  O   UNL     1       1.684   6.737 -11.630  0.00  0.00    -0.441 OA
ATOM     23  C   UNL     1       2.960   6.167 -11.653  0.00  0.00    +0.349 C 
ATOM     24  O   UNL     1       3.294   5.367 -12.579  0.00  0.00    -0.247 OA
ATOM     25  O   UNL     1       4.426   7.690 -10.529  0.00  0.00    -0.210 OA
ENDROOT
BRANCH   1  27
ATOM     26  C   UNL     1       6.225   5.934 -10.544  0.00  0.00    +0.004 C 
ATOM     27  C   UNL     1       4.939   5.389 -10.513  0.00  0.00    +0.046 C 
ENDBRANCH   1  27
BRANCH   9  28
ATOM     28  C   UNL     1       0.771   5.713  -1.032  0.00  0.00    +0.102 C 
BRANCH  28  29
ATOM     29  N   UNL     1      -0.511   6.341  -0.841  0.00  0.00    -0.266 NA
ATOM     30  C   UNL     1      -1.593   5.622  -1.466  0.00  0.00    +0.090 C 
ATOM     31  C   UNL     1      -0.780   6.690   0.532  0.00  0.00    +0.090 C 
ENDBRANCH  28  29
ENDBRANCH   9  28
TORSDOF 3
ENDMDL
MODEL 3
REMARK VINA RESULT:      -9.1      2.527      9.132
REMARK  Name = 
REMARK  3 active torsions:
REMARK  status: ('A' for Active; 'I' for Inactive)
REMARK    1  A    between atoms: C_2  and  C_3
REMARK    2  A    between atoms: C_25  and  C_26
REMARK    3  A    between atoms: C_26  and  N_27
REMARK                            x       y       z     vdW  Elec       q    Type
REMARK                         _______ _______ _______ _____ _____    ______ ____
ROOT
ATOM      1  C   UNL     1      -0.754   6.079  -3.795  0.00  0.00    +0.233 C 
ATOM      2  C   UNL     1       0.181   5.964  -4.955  0.00  0.00    +0.021 A 
ATOM      3  C   UNL     1      -0.306   5.884  -6.253  0.00  0.00    +0.017 A 
ATOM      4  C   UNL     1       0.558   5.390  -7.216  0.00  0.00    +0.080 A 
ATOM      5  C   UNL     1       0.497   5.441  -8.683  0.00  0.00    +0.095 A 
ATOM      6  C   UNL     1       1.638   4.811  -9.135  0.00  0.00    +0.020 A 
ATOM      7  C   UNL     1       2.301   5.199 -10.292  0.00  0.00    +0.000 A 
ATOM      8  C   UNL     1       1.619   6.040 -11.155  0.00  0.00    +0.018 A 
ATOM      9  C   UNL     1       2.121   6.215 -12.438  0.00  0.00    +0.034 A 
ATOM     10  C   UNL     1       1.335   6.837 -13.395  0.00  0.00    +0.193 A 
ATOM     11  O   UNL     1       1.306   6.408 -14.726  0.00  0.00    -0.287 OA
ATOM     12  C   UNL     1       0.214   7.519 -12.942  0.00  0.00    +0.043 A 
ATOM     13  C   UNL     1      -0.188   7.480 -11.615  0.00  0.00    +0.022 A 
ATOM     14  C   UNL     1       0.389   6.545 -10.768  0.00  0.00    +0.081 A 
ATOM     15  C   UNL     1       2.211   4.075  -7.966  0.00  0.00    +0.137 C 
ATOM     16  N   UNL     1      -0.156   6.224  -9.573  0.00  0.00    -0.244 NA
ATOM     17  N   UNL     1       1.760   4.879  -6.854  0.00  0.00    -0.290 N 
ATOM     18  C   UNL     1       2.312   5.152  -5.648  0.00  0.00    +0.260 A 
ATOM     19  O   UNL     1       3.572   5.135  -5.509  0.00  0.00    -0.267 OA
ATOM     20  C   UNL     1       1.529   5.769  -4.682  0.00  0.00    +0.076 A 
ATOM     21  C   UNL     1       2.123   6.575  -3.575  0.00  0.00    +0.240 C 
ATOM     22  O   UNL     1       1.251   6.497  -2.453  0.00  0.00    -0.441 OA
ATOM     23  C   UNL     1       0.001   5.878  -2.539  0.00  0.00    +0.349 C 
ATOM     24  O   UNL     1      -0.389   5.083  -1.631  0.00  0.00    -0.247 OA
ATOM     25  O   UNL     1      -1.405   7.319  -3.832  0.00  0.00    -0.210 OA
ENDROOT
BRANCH   1  27
ATOM     26  C   UNL     1      -3.128   5.478  -3.664  0.00  0.00    +0.004 C 
ATOM     27  C   UNL     1      -1.828   5.000  -3.845  0.00  0.00    +0.046 C 
ENDBRANCH   1  27
BRANCH   9  28
ATOM     28  C   UNL     1       3.218   5.308 -12.889  0.00  0.00    +0.102 C 
BRANCH  28  29
ATOM     29  N   UNL     1       4.483   5.989 -13.001  0.00  0.00    -0.266 NA
ATOM     30  C   UNL     1       5.504   5.431 -12.152  0.00  0.00    +0.090 C 
ATOM     31  C   UNL     1       4.915   6.175 -14.364  0.00  0.00    +0.090 C 
ENDBRANCH  28  29
ENDBRANCH   9  28
TORSDOF 3
ENDMDL
MODEL 4
REMARK VINA RESULT:      -8.6      2.052      8.489
REMARK  Name = 
REMARK  3 active torsions:
REMARK  status: ('A' for Active; 'I' for Inactive)
REMARK    1  A    between atoms: C_2  and  C_3
REMARK    2  A    between atoms: C_25  and  C_26
REMARK    3  A    between atoms: C_26  and  N_27
REMARK                            x       y       z     vdW  Elec       q    Type
REMARK                         _______ _______ _______ _____ _____    ______ ____
ROOT
ATOM      1  C   UNL     1       2.955   6.341  -1.287  0.00  0.00    +0.233 C 
ATOM      2  C   UNL     1       2.432   6.177  -2.677  0.00  0.00    +0.021 A 
ATOM      3  C   UNL     1       3.208   6.529  -3.773  0.00  0.00    +0.017 A 
ATOM      4  C   UNL     1       2.544   6.727  -4.972  0.00  0.00    +0.080 A 
ATOM      5  C   UNL     1       3.046   6.810  -6.350  0.00  0.00    +0.095 A 
ATOM      6  C   UNL     1       1.939   6.990  -7.151  0.00  0.00    +0.020 A 
ATOM      7  C   UNL     1       1.846   6.465  -8.433  0.00  0.00    +0.000 A 
ATOM      8  C   UNL     1       3.018   6.011  -9.012  0.00  0.00    +0.018 A 
ATOM      9  C   UNL     1       3.023   5.752 -10.377  0.00  0.00    +0.034 A 
ATOM     10  C   UNL     1       4.230   5.546 -11.026  0.00  0.00    +0.193 A 
ATOM     11  O   UNL     1       4.481   6.050 -12.306  0.00  0.00    -0.287 OA
ATOM     12  C   UNL     1       5.341   5.310 -10.227  0.00  0.00    +0.043 A 
ATOM     13  C   UNL     1       5.288   5.402  -8.844  0.00  0.00    +0.022 A 
ATOM     14  C   UNL     1       4.176   5.984  -8.253  0.00  0.00    +0.081 A 
ATOM     15  C   UNL     1       0.811   7.367  -6.243  0.00  0.00    +0.137 C 
ATOM     16  N   UNL     1       4.180   6.400  -6.966  0.00  0.00    -0.244 NA
ATOM     17  N   UNL     1       1.189   6.716  -5.010  0.00  0.00    -0.290 N 
ATOM     18  C   UNL     1       0.457   6.167  -4.012  0.00  0.00    +0.260 A 
ATOM     19  O   UNL     1      -0.694   5.694  -4.256  0.00  0.00    -0.267 OA
ATOM     20  C   UNL     1       1.096   5.824  -2.828  0.00  0.00    +0.076 A 
ATOM     21  C   UNL     1       0.561   4.776  -1.911  0.00  0.00    +0.240 C 
ATOM     22  O   UNL     1       0.966   5.097  -0.586  0.00  0.00    -0.441 OA
ATOM     23  C   UNL     1       1.848   6.149  -0.324  0.00  0.00    +0.349 C 
ATOM     24  O   UNL     1       1.619   6.964   0.620  0.00  0.00    -0.247 OA
ATOM     25  O   UNL     1       4.012   5.448  -1.069  0.00  0.00    -0.210 OA
ENDROOT
BRANCH   1  27
ATOM     26  C   UNL     1       4.761   7.788  -0.475  0.00  0.00    +0.004 C 
ATOM     27  C   UNL     1       3.495   7.748  -1.065  0.00  0.00    +0.046 C 
ENDBRANCH   1  27
BRANCH   9  28
ATOM     28  C   UNL     1       1.845   6.205 -11.178  0.00  0.00    +0.102 C 
BRANCH  28  29
ATOM     29  N   UNL     1       1.179   5.113 -11.839  0.00  0.00    -0.266 NA
ATOM     30  C   UNL     1      -0.069   4.749 -11.216  0.00  0.00    +0.090 C 
ATOM     31  C   UNL     1       1.072   5.286 -13.266  0.00  0.00    +0.090 C 
ENDBRANCH  28  29
ENDBRANCH   9  28
TORSDOF 3
ENDMDL
MODEL 5
REMARK VINA RESULT:      -8.3      2.432      4.229
REMARK  Name = 
REMARK  3 active torsions:
REMARK  status: ('A' for Active; 'I' for Inactive)
REMARK    1  A    between atoms: C_2  and  C_3
REMARK    2  A    between atoms: C_25  and  C_26
REMARK    3  A    between atoms: C_26  and  N_27
REMARK                            x       y       z     vdW  Elec       q    Type
REMARK                         _______ _______ _______ _____ _____    ______ ____
ROOT
ATOM      1  C   UNL     1       2.425   5.718 -13.622  0.00  0.00    +0.233 C 
ATOM      2  C   UNL     1       2.581   5.797 -12.138  0.00  0.00    +0.021 A 
ATOM      3  C   UNL     1       1.490   6.075 -11.325  0.00  0.00    +0.017 A 
ATOM      4  C   UNL     1       1.763   6.518 -10.042  0.00  0.00    +0.080 A 
ATOM      5  C   UNL     1       0.906   6.618  -8.853  0.00  0.00    +0.095 A 
ATOM      6  C   UNL     1       1.708   7.102  -7.842  0.00  0.00    +0.020 A 
ATOM      7  C   UNL     1       1.550   6.728  -6.514  0.00  0.00    +0.000 A 
ATOM      8  C   UNL     1       0.368   6.090  -6.178  0.00  0.00    +0.018 A 
ATOM      9  C   UNL     1       0.048   5.962  -4.832  0.00  0.00    +0.034 A 
ATOM     10  C   UNL     1      -1.230   5.565  -4.473  0.00  0.00    +0.193 A 
ATOM     11  O   UNL     1      -1.900   6.118  -3.378  0.00  0.00    -0.287 OA
ATOM     12  C   UNL     1      -2.026   5.026  -5.475  0.00  0.00    +0.043 A 
ATOM     13  C   UNL     1      -1.625   5.000  -6.802  0.00  0.00    +0.022 A 
ATOM     14  C   UNL     1      -0.521   5.748  -7.183  0.00  0.00    +0.081 A 
ATOM     15  C   UNL     1       2.948   7.625  -8.494  0.00  0.00    +0.137 C 
ATOM     16  N   UNL     1      -0.257   6.035  -8.479  0.00  0.00    -0.244 NA
ATOM     17  N   UNL     1       3.038   6.799  -9.676  0.00  0.00    -0.290 N 
ATOM     18  C   UNL     1       4.096   6.328 -10.377  0.00  0.00    +0.260 A 
ATOM     19  O   UNL     1       5.207   6.135  -9.796  0.00  0.00    -0.267 OA
ATOM     20  C   UNL     1       3.869   5.751 -11.619  0.00  0.00    +0.076 A 
ATOM     21  C   UNL     1       4.810   4.761 -12.219  0.00  0.00    +0.240 C 
ATOM     22  O   UNL     1       4.721   4.866 -13.635  0.00  0.00    -0.441 OA
ATOM     23  C   UNL     1       3.765   5.678 -14.250  0.00  0.00    +0.349 C 
ATOM     24  O   UNL     1       4.085   6.434 -15.217  0.00  0.00    -0.247 OA
ATOM     25  O   UNL     1       1.646   4.605 -13.960  0.00  0.00    -0.210 OA
ENDROOT
BRANCH   1  27
ATOM     26  C   UNL     1       0.622   6.667 -14.986  0.00  0.00    +0.004 C 
ATOM     27  C   UNL     1       1.717   6.952 -14.167  0.00  0.00    +0.046 C 
ENDBRANCH   1  27
BRANCH   9  28
ATOM     28  C   UNL     1       0.867   6.726  -3.843  0.00  0.00    +0.102 C 
BRANCH  28  29
ATOM     29  N   UNL     1       1.547   5.863  -2.911  0.00  0.00    -0.266 NA
ATOM     30  C   UNL     1       2.967   5.789  -3.140  0.00  0.00    +0.090 C 
ATOM     31  C   UNL     1       1.207   6.125  -1.535  0.00  0.00    +0.090 C 
ENDBRANCH  28  29
ENDBRANCH   9  28
TORSDOF 3
ENDMDL
MODEL 6
REMARK VINA RESULT:      -8.1      1.815      8.888
REMARK  Name = 
REMARK  3 active torsions:
REMARK  status: ('A' for Active; 'I' for Inactive)
REMARK    1  A    between atoms: C_2  and  C_3
REMARK    2  A    between atoms: C_25  and  C_26
REMARK    3  A    between atoms: C_26  and  N_27
REMARK                            x       y       z     vdW  Elec       q    Type
REMARK                         _______ _______ _______ _____ _____    ______ ____
ROOT
ATOM      1  C   UNL     1       1.689   6.447  -2.102  0.00  0.00    +0.233 C 
ATOM      2  C   UNL     1       2.485   6.583  -3.359  0.00  0.00    +0.021 A 
ATOM      3  C   UNL     1       2.036   6.021  -4.547  0.00  0.00    +0.017 A 
ATOM      4  C   UNL     1       2.976   5.838  -5.547  0.00  0.00    +0.080 A 
ATOM      5  C   UNL     1       2.817   5.564  -6.981  0.00  0.00    +0.095 A 
ATOM      6  C   UNL     1       4.092   5.503  -7.503  0.00  0.00    +0.020 A 
ATOM      7  C   UNL     1       4.398   5.931  -8.789  0.00  0.00    +0.000 A 
ATOM      8  C   UNL     1       3.335   6.140  -9.651  0.00  0.00    +0.018 A 
ATOM      9  C   UNL     1       3.605   6.284 -11.006  0.00  0.00    +0.034 A 
ATOM     10  C   UNL     1       2.560   6.237 -11.915  0.00  0.00    +0.193 A 
ATOM     11  O   UNL     1       2.680   5.597 -13.153  0.00  0.00    -0.287 OA
ATOM     12  C   UNL     1       1.275   6.351 -11.402  0.00  0.00    +0.043 A 
ATOM     13  C   UNL     1       1.024   6.381 -10.038  0.00  0.00    +0.022 A 
ATOM     14  C   UNL     1       2.044   6.038  -9.162  0.00  0.00    +0.081 A 
ATOM     15  C   UNL     1       5.025   5.390  -6.340  0.00  0.00    +0.137 C 
ATOM     16  N   UNL     1       1.806   5.732  -7.867  0.00  0.00    -0.244 NA
ATOM     17  N   UNL     1       4.289   6.068  -5.298  0.00  0.00    -0.290 N 
ATOM     18  C   UNL     1       4.690   6.808  -4.237  0.00  0.00    +0.260 A 
ATOM     19  O   UNL     1       5.787   7.441  -4.284  0.00  0.00    -0.267 OA
ATOM     20  C   UNL     1       3.757   7.135  -3.263  0.00  0.00    +0.076 A 
ATOM     21  C   UNL     1       3.915   8.328  -2.380  0.00  0.00    +0.240 C 
ATOM     22  O   UNL     1       3.270   8.053  -1.143  0.00  0.00    -0.441 OA
ATOM     23  C   UNL     1       2.510   6.895  -0.955  0.00  0.00    +0.349 C 
ATOM     24  O   UNL     1       2.631   6.207   0.103  0.00  0.00    -0.247 OA
ATOM     25  O   UNL     1       0.495   7.170  -2.217  0.00  0.00    -0.210 OA
ENDROOT
BRANCH   1  27
ATOM     26  C   UNL     1      -0.050   4.778  -1.653  0.00  0.00    +0.004 C 
ATOM     27  C   UNL     1       1.317   4.993  -1.840  0.00  0.00    +0.046 C 
ENDBRANCH   1  27
BRANCH   9  28
ATOM     28  C   UNL     1       4.985   5.967 -11.482  0.00  0.00    +0.102 C 
BRANCH  28  29
ATOM     29  N   UNL     1       5.610   7.086 -12.139  0.00  0.00    -0.266 NA
ATOM     30  C   UNL     1       6.417   7.885 -11.253  0.00  0.00    +0.090 C 
ATOM     31  C   UNL     1       6.289   6.728 -13.359  0.00  0.00    +0.090 C 
ENDBRANCH  28  29
ENDBRANCH   9  28
TORSDOF 3
ENDMDL
MODEL 7
REMARK VINA RESULT:      -8.0      2.204      9.048
REMARK  Name = 
REMARK  3 active torsions:
REMARK  status: ('A' for Active; 'I' for Inactive)
REMARK    1  A    between atoms: C_2  and  C_3
REMARK    2  A    between atoms: C_25  and  C_26
REMARK    3  A    between atoms: C_26  and  N_27
REMARK                            x       y       z     vdW  Elec       q    Type
REMARK                         _______ _______ _______ _____ _____    ______ ____
ROOT
ATOM      1  C   UNL     1      -1.216   6.276  -2.702  0.00  0.00    +0.233 C 
ATOM      2  C   UNL     1      -0.128   6.089  -3.708  0.00  0.00    +0.021 A 
ATOM      3  C   UNL     1      -0.429   5.881  -5.048  0.00  0.00    +0.017 A 
ATOM      4  C   UNL     1       0.569   5.331  -5.835  0.00  0.00    +0.080 A 
ATOM      5  C   UNL     1       0.711   5.251  -7.295  0.00  0.00    +0.095 A 
ATOM      6  C   UNL     1       1.914   4.620  -7.528  0.00  0.00    +0.020 A 
ATOM      7  C   UNL     1       2.723   4.925  -8.615  0.00  0.00    +0.000 A 
ATOM      8  C   UNL     1       2.152   5.666  -9.636  0.00  0.00    +0.018 A 
ATOM      9  C   UNL     1       2.822   5.743 -10.850  0.00  0.00    +0.034 A 
ATOM     10  C   UNL     1       2.165   6.254 -11.958  0.00  0.00    +0.193 A 
ATOM     11  O   UNL     1       2.327   5.709 -13.235  0.00  0.00    -0.287 OA
ATOM     12  C   UNL     1       0.979   6.937 -11.725  0.00  0.00    +0.043 A 
ATOM     13  C   UNL     1       0.399   7.003 -10.467  0.00  0.00    +0.022 A 
ATOM     14  C   UNL     1       0.871   6.164  -9.468  0.00  0.00    +0.081 A 
ATOM     15  C   UNL     1       2.335   4.007  -6.231  0.00  0.00    +0.137 C 
ATOM     16  N   UNL     1       0.171   5.932  -8.333  0.00  0.00    -0.244 NA
ATOM     17  N   UNL     1       1.719   4.891  -5.268  0.00  0.00    -0.290 N 
ATOM     18  C   UNL     1       2.094   5.286  -4.028  0.00  0.00    +0.260 A 
ATOM     19  O   UNL     1       3.323   5.321  -3.718  0.00  0.00    -0.267 OA
ATOM     20  C   UNL     1       1.173   5.961  -3.238  0.00  0.00    +0.076 A 
ATOM     21  C   UNL     1       1.593   6.879  -2.138  0.00  0.00    +0.240 C 
ATOM     22  O   UNL     1       0.577   6.873  -1.144  0.00  0.00    -0.441 OA
ATOM     23  C   UNL     1      -0.638   6.210  -1.341  0.00  0.00    +0.349 C 
ATOM     24  O   UNL     1      -1.135   5.486  -0.426  0.00  0.00    -0.247 OA
ATOM     25  O   UNL     1      -1.879   7.487  -2.940  0.00  0.00    -0.210 OA
ENDROOT
BRANCH   1  27
ATOM     26  C   UNL     1      -3.503   5.585  -3.256  0.00  0.00    +0.004 C 
ATOM     27  C   UNL     1      -2.252   5.163  -2.798  0.00  0.00    +0.046 C 
ENDBRANCH   1  27
BRANCH   9  28
ATOM     28  C   UNL     1       3.989   4.834 -11.063  0.00  0.00    +0.102 C 
BRANCH  28  29
ATOM     29  N   UNL     1       5.214   5.557 -11.288  0.00  0.00    -0.266 NA
ATOM     30  C   UNL     1       5.715   5.419 -12.632  0.00  0.00    +0.090 C 
ATOM     31  C   UNL     1       5.163   6.926 -10.840  0.00  0.00    +0.090 C 
ENDBRANCH  28  29
ENDBRANCH   9  28
TORSDOF 3
ENDMDL
MODEL 8
REMARK VINA RESULT:      -7.8      2.407      8.478
REMARK  Name = 
REMARK  3 active torsions:
REMARK  status: ('A' for Active; 'I' for Inactive)
REMARK    1  A    between atoms: C_2  and  C_3
REMARK    2  A    between atoms: C_25  and  C_26
REMARK    3  A    between atoms: C_26  and  N_27
REMARK                            x       y       z     vdW  Elec       q    Type
REMARK                         _______ _______ _______ _____ _____    ______ ____
ROOT
ATOM      1  C   UNL     1       3.975   6.107  -3.996  0.00  0.00    +0.233 C 
ATOM      2  C   UNL     1       3.275   6.044  -5.315  0.00  0.00    +0.021 A 
ATOM      3  C   UNL     1       3.945   6.357  -6.489  0.00  0.00    +0.017 A 
ATOM      4  C   UNL     1       3.166   6.662  -7.593  0.00  0.00    +0.080 A 
ATOM      5  C   UNL     1       3.505   6.744  -9.020  0.00  0.00    +0.095 A 
ATOM      6  C   UNL     1       2.333   7.059  -9.674  0.00  0.00    +0.020 A 
ATOM      7  C   UNL     1       2.035   6.591 -10.947  0.00  0.00    +0.000 A 
ATOM      8  C   UNL     1       3.077   6.045 -11.676  0.00  0.00    +0.018 A 
ATOM      9  C   UNL     1       2.891   5.836 -13.037  0.00  0.00    +0.034 A 
ATOM     10  C   UNL     1       3.985   5.536 -13.834  0.00  0.00    +0.193 A 
ATOM     11  O   UNL     1       4.130   6.058 -15.123  0.00  0.00    -0.287 OA
ATOM     12  C   UNL     1       5.154   5.165 -13.183  0.00  0.00    +0.043 A 
ATOM     13  C   UNL     1       5.277   5.212 -11.802  0.00  0.00    +0.022 A 
ATOM     14  C   UNL     1       4.309   5.879 -11.066  0.00  0.00    +0.081 A 
ATOM     15  C   UNL     1       1.367   7.512  -8.626  0.00  0.00    +0.137 C 
ATOM     16  N   UNL     1       4.510   6.247  -9.780  0.00  0.00    -0.244 NA
ATOM     17  N   UNL     1       1.822   6.784  -7.464  0.00  0.00    -0.290 N 
ATOM     18  C   UNL     1       1.163   6.274  -6.397  0.00  0.00    +0.260 A 
ATOM     19  O   UNL     1      -0.050   5.925  -6.508  0.00  0.00    -0.267 OA
ATOM     20  C   UNL     1       1.902   5.829  -5.308  0.00  0.00    +0.076 A 
ATOM     21  C   UNL     1       1.377   4.806  -4.357  0.00  0.00    +0.240 C 
ATOM     22  O   UNL     1       1.969   5.039  -3.085  0.00  0.00    -0.441 OA
ATOM     23  C   UNL     1       2.978   5.990  -2.909  0.00  0.00    +0.349 C 
ATOM     24  O   UNL     1       2.947   6.790  -1.926  0.00  0.00    -0.247 OA
ATOM     25  O   UNL     1       4.954   5.108  -3.930  0.00  0.00    -0.210 OA
ENDROOT
BRANCH   1  27
ATOM     26  C   UNL     1       6.072   7.364  -3.803  0.00  0.00    +0.004 C 
ATOM     27  C   UNL     1       4.678   7.446  -3.810  0.00  0.00    +0.046 C 
ENDBRANCH   1  27
BRANCH   9  28
ATOM     28  C   UNL     1       1.679   6.430 -13.676  0.00  0.00    +0.102 C 
BRANCH  28  29
ATOM     29  N   UNL     1       1.083   5.548 -14.648  0.00  0.00    -0.266 NA
ATOM     30  C   UNL     1       0.623   4.306 -14.080  0.00  0.00    +0.090 C 
ATOM     31  C   UNL     1       0.097   6.193 -15.479  0.00  0.00    +0.090 C 
ENDBRANCH  28  29
ENDBRANCH   9  28
TORSDOF 3
ENDMDL
MODEL 9
REMARK VINA RESULT:      -7.2      2.303      4.167
REMARK  Name = 
REMARK  3 active torsions:
REMARK  status: ('A' for Active; 'I' for Inactive)
REMARK    1  A    between atoms: C_2  and  C_3
REMARK    2  A    between atoms: C_25  and  C_26
REMARK    3  A    between atoms: C_26  and  N_27
REMARK                            x       y       z     vdW  Elec       q    Type
REMARK                         _______ _______ _______ _____ _____    ______ ____
ROOT
ATOM      1  C   UNL     1       2.018   5.949 -13.701  0.00  0.00    +0.233 C 
ATOM      2  C   UNL     1       2.421   5.997 -12.263  0.00  0.00    +0.021 A 
ATOM      3  C   UNL     1       1.488   6.282 -11.275  0.00  0.00    +0.017 A 
ATOM      4  C   UNL     1       1.981   6.696 -10.049  0.00  0.00    +0.080 A 
ATOM      5  C   UNL     1       1.337   6.790  -8.732  0.00  0.00    +0.095 A 
ATOM      6  C   UNL     1       2.308   7.239  -7.863  0.00  0.00    +0.020 A 
ATOM      7  C   UNL     1       2.365   6.844  -6.532  0.00  0.00    +0.000 A 
ATOM      8  C   UNL     1       1.242   6.223  -6.013  0.00  0.00    +0.018 A 
ATOM      9  C   UNL     1       1.148   6.077  -4.634  0.00  0.00    +0.034 A 
ATOM     10  C   UNL     1      -0.062   5.699  -4.073  0.00  0.00    +0.193 A 
ATOM     11  O   UNL     1      -0.527   6.246  -2.873  0.00  0.00    -0.287 OA
ATOM     12  C   UNL     1      -1.026   5.195  -4.935  0.00  0.00    +0.043 A 
ATOM     13  C   UNL     1      -0.852   5.186  -6.312  0.00  0.00    +0.022 A 
ATOM     14  C   UNL     1       0.190   5.919  -6.861  0.00  0.00    +0.081 A 
ATOM     15  C   UNL     1       3.434   7.749  -8.704  0.00  0.00    +0.137 C 
ATOM     16  N   UNL     1       0.240   6.224  -8.177  0.00  0.00    -0.244 NA
ATOM     17  N   UNL     1       3.306   6.943  -9.897  0.00  0.00    -0.290 N 
ATOM     18  C   UNL     1       4.221   6.465 -10.773  0.00  0.00    +0.260 A 
ATOM     19  O   UNL     1       5.408   6.239 -10.388  0.00  0.00    -0.267 OA
ATOM     20  C   UNL     1       3.776   5.916 -11.968  0.00  0.00    +0.076 A 
ATOM     21  C   UNL     1       4.581   4.918 -12.731  0.00  0.00    +0.240 C 
ATOM     22  O   UNL     1       4.260   5.052 -14.110  0.00  0.00    -0.441 OA
ATOM     23  C   UNL     1       3.233   5.894 -14.545  0.00  0.00    +0.349 C 
ATOM     24  O   UNL     1       3.404   6.661 -15.540  0.00  0.00    -0.247 OA
ATOM     25  O   UNL     1       1.168   4.859 -13.921  0.00  0.00    -0.210 OA
ENDROOT
BRANCH   1  27
ATOM     26  C   UNL     1       0.213   6.981 -15.001  0.00  0.00    +0.004 C 
ATOM     27  C   UNL     1       1.258   7.207 -14.102  0.00  0.00    +0.046 C 
ENDBRANCH   1  27
BRANCH   9  28
ATOM     28  C   UNL     1       2.137   6.806  -3.785  0.00  0.00    +0.102 C 
BRANCH  28  29
ATOM     29  N   UNL     1       3.094   5.919  -3.174  0.00  0.00    -0.266 NA
ATOM     30  C   UNL     1       2.709   5.493  -1.853  0.00  0.00    +0.090 C 
ATOM     31  C   UNL     1       3.494   4.829  -4.029  0.00  0.00    +0.090 C 
ENDBRANCH  28  29
ENDBRANCH   9  28
TORSDOF 3
ENDMDL
