MODEL 1
REMARK VINA RESULT:      -6.9      0.000      0.000
REMARK  Name = 
REMARK  3 active torsions:
REMARK  status: ('A' for Active; 'I' for Inactive)
REMARK    1  A    between atoms: N_6  and  C1*_7
REMARK    2  A    between atoms: C4*_11  and  C5*_12
REMARK    3  A    between atoms: C_16  and  C_17
REMARK                            x       y       z     vdW  Elec       q    Type
REMARK                         _______ _______ _______ _____ _____    ______ ____
ROOT
ATOM      1  O   UNL     1      -2.933   5.228  -3.433  0.00  0.00    -0.265 OA
ATOM      2  C   UNL     1      -2.075   5.341  -3.401  0.00  0.00    +0.288 A 
ATOM      3  C   UNL     1      -1.365   5.676  -4.551  0.00  0.00    +0.146 A 
ATOM      4  C   UNL     1       0.001   5.415  -4.626  0.00  0.00    +0.091 A 
ATOM      5  N   UNL     1       0.663   5.456  -3.440  0.00  0.00    -0.256 N 
ATOM      6  C   UNL     1       0.025   5.175  -2.296  0.00  0.00    +0.355 A 
ATOM      7  O   UNL     1       0.603   4.659  -1.289  0.00  0.00    -0.244 OA
ATOM      8  N   UNL     1      -1.321   5.306  -2.277  0.00  0.00    -0.153 NA
ENDROOT
BRANCH   5   9
ATOM      9  C1* UNL     1       2.144   4.870  -3.519  0.00  0.00    +0.211 C 
ATOM     10  O4* UNL     1       2.678   6.033  -2.704  0.00  0.00    -0.332 OA
ATOM     11  C4* UNL     1       3.745   6.524  -3.630  0.00  0.00    +0.180 C 
ATOM     12  C3* UNL     1       2.433   7.082  -4.594  0.00  0.00    +0.186 C 
ATOM     13  O3* UNL     1       3.352   7.407  -5.748  0.00  0.00    -0.220 OA
ATOM     14  C2* UNL     1       2.342   5.519  -5.025  0.00  0.00    +0.089 C 
BRANCH  11  15
ATOM     15  C5* UNL     1       3.903   7.974  -2.890  0.00  0.00    +0.214 C 
ATOM     16  O5* UNL     1       4.123   7.822  -1.578  0.00  0.00    -0.218 OA
ENDBRANCH  11  15
ENDBRANCH   5   9
BRANCH   3  17
ATOM     17  C   UNL     1      -2.185   5.979  -5.750  0.00  0.00    +0.424 C 
ATOM     18  F   UNL     1      -2.829   7.193  -5.682  0.00  0.00    -0.166 F 
ATOM     19  F   UNL     1      -1.361   6.067  -6.868  0.00  0.00    -0.166 F 
ATOM     20  F   UNL     1      -3.050   4.938  -6.008  0.00  0.00    -0.166 F 
ENDBRANCH   3  17
TORSDOF 3
ENDMDL
MODEL 2
REMARK VINA RESULT:      -6.8      2.876      5.028
REMARK  Name = 
REMARK  3 active torsions:
REMARK  status: ('A' for Active; 'I' for Inactive)
REMARK    1  A    between atoms: N_6  and  C1*_7
REMARK    2  A    between atoms: C4*_11  and  C5*_12
REMARK    3  A    between atoms: C_16  and  C_17
REMARK                            x       y       z     vdW  Elec       q    Type
REMARK                         _______ _______ _______ _____ _____    ______ ____
ROOT
ATOM      1  O   UNL     1       2.642   4.040  -8.542  0.00  0.00    -0.265 OA
ATOM      2  C   UNL     1       2.198   4.327  -7.858  0.00  0.00    +0.288 A 
ATOM      3  C   UNL     1       1.128   5.202  -8.031  0.00  0.00    +0.146 A 
ATOM      4  C   UNL     1       0.713   6.011  -6.976  0.00  0.00    +0.091 A 
ATOM      5  N   UNL     1       0.909   5.491  -5.737  0.00  0.00    -0.256 N 
ATOM      6  C   UNL     1       1.903   4.620  -5.516  0.00  0.00    +0.355 A 
ATOM      7  O   UNL     1       2.499   4.517  -4.398  0.00  0.00    -0.244 OA
ATOM      8  N   UNL     1       2.388   3.935  -6.576  0.00  0.00    -0.153 NA
ENDROOT
BRANCH   5   9
ATOM      9  C1* UNL     1       0.700   6.549  -4.563  0.00  0.00    +0.211 C 
ATOM     10  O4* UNL     1      -0.194   5.582  -3.810  0.00  0.00    -0.332 OA
ATOM     11  C4* UNL     1      -1.407   6.438  -3.636  0.00  0.00    +0.180 C 
ATOM     12  C3* UNL     1      -1.629   6.195  -5.325  0.00  0.00    +0.186 C 
ATOM     13  O3* UNL     1      -2.723   7.235  -5.383  0.00  0.00    -0.220 OA
ATOM     14  C2* UNL     1      -0.466   7.323  -5.441  0.00  0.00    +0.089 C 
BRANCH  11  15
ATOM     15  C5* UNL     1      -2.395   5.191  -3.261  0.00  0.00    +0.214 C 
ATOM     16  O5* UNL     1      -2.420   4.979  -1.939  0.00  0.00    -0.218 OA
ENDBRANCH  11  15
ENDBRANCH   5   9
BRANCH   3  17
ATOM     17  C   UNL     1       0.722   5.453  -9.436  0.00  0.00    +0.424 C 
ATOM     18  F   UNL     1       0.436   4.306 -10.138  0.00  0.00    -0.166 F 
ATOM     19  F   UNL     1      -0.457   6.194  -9.455  0.00  0.00    -0.166 F 
ATOM     20  F   UNL     1       1.661   6.238 -10.068  0.00  0.00    -0.166 F 
ENDBRANCH   3  17
TORSDOF 3
ENDMDL
MODEL 3
REMARK VINA RESULT:      -6.8      3.128      4.254
REMARK  Name = 
REMARK  3 active torsions:
REMARK  status: ('A' for Active; 'I' for Inactive)
REMARK    1  A    between atoms: N_6  and  C1*_7
REMARK    2  A    between atoms: C4*_11  and  C5*_12
REMARK    3  A    between atoms: C_16  and  C_17
REMARK                            x       y       z     vdW  Elec       q    Type
REMARK                         _______ _______ _______ _____ _____    ______ ____
ROOT
ATOM      1  O   UNL     1      -0.655   5.517  -3.675  0.00  0.00    -0.265 OA
ATOM      2  C   UNL     1      -0.201   5.488  -4.411  0.00  0.00    +0.288 A 
ATOM      3  C   UNL     1      -0.823   5.739  -5.632  0.00  0.00    +0.146 A 
ATOM      4  C   UNL     1      -0.258   5.262  -6.812  0.00  0.00    +0.091 A 
ATOM      5  N   UNL     1       1.097   5.160  -6.804  0.00  0.00    -0.256 N 
ATOM      6  C   UNL     1       1.754   4.950  -5.655  0.00  0.00    +0.355 A 
ATOM      7  O   UNL     1       2.854   4.317  -5.591  0.00  0.00    -0.244 OA
ATOM      8  N   UNL     1       1.136   5.297  -4.504  0.00  0.00    -0.153 NA
ENDROOT
BRANCH   5   9
ATOM      9  C1* UNL     1       1.680   4.345  -8.043  0.00  0.00    +0.211 C 
ATOM     10  O4* UNL     1       2.859   5.293  -8.150  0.00  0.00    -0.332 OA
ATOM     11  C4* UNL     1       2.729   5.703  -9.581  0.00  0.00    +0.180 C 
ATOM     12  C3* UNL     1       1.356   6.588  -9.040  0.00  0.00    +0.186 C 
ATOM     13  O3* UNL     1       0.925   6.888 -10.457  0.00  0.00    -0.220 OA
ATOM     14  C2* UNL     1       0.647   5.127  -9.069  0.00  0.00    +0.089 C 
BRANCH  11  15
ATOM     15  C5* UNL     1       3.706   7.006  -9.435  0.00  0.00    +0.214 C 
ATOM     16  O5* UNL     1       4.554   7.088 -10.468  0.00  0.00    -0.218 OA
ENDBRANCH  11  15
ENDBRANCH   5   9
BRANCH   3  17
ATOM     17  C   UNL     1      -2.229   6.207  -5.554  0.00  0.00    +0.424 C 
ATOM     18  F   UNL     1      -2.351   7.509  -5.127  0.00  0.00    -0.166 F 
ATOM     19  F   UNL     1      -2.798   6.188  -6.825  0.00  0.00    -0.166 F 
ATOM     20  F   UNL     1      -2.980   5.332  -4.800  0.00  0.00    -0.166 F 
ENDBRANCH   3  17
TORSDOF 3
ENDMDL
MODEL 4
REMARK VINA RESULT:      -6.7      5.930      7.983
REMARK  Name = 
REMARK  3 active torsions:
REMARK  status: ('A' for Active; 'I' for Inactive)
REMARK    1  A    between atoms: N_6  and  C1*_7
REMARK    2  A    between atoms: C4*_11  and  C5*_12
REMARK    3  A    between atoms: C_16  and  C_17
REMARK                            x       y       z     vdW  Elec       q    Type
REMARK                         _______ _______ _______ _____ _____    ______ ____
ROOT
ATOM      1  O   UNL     1       5.440   6.177 -12.116  0.00  0.00    -0.265 OA
ATOM      2  C   UNL     1       5.024   6.088 -11.363  0.00  0.00    +0.288 A 
ATOM      3  C   UNL     1       5.728   6.118 -10.162  0.00  0.00    +0.146 A 
ATOM      4  C   UNL     1       5.180   5.538  -9.020  0.00  0.00    +0.091 A 
ATOM      5  N   UNL     1       3.823   5.554  -8.957  0.00  0.00    -0.256 N 
ATOM      6  C   UNL     1       3.092   5.558 -10.080  0.00  0.00    +0.355 A 
ATOM      7  O   UNL     1       1.936   5.035 -10.156  0.00  0.00    -0.244 OA
ATOM      8  N   UNL     1       3.681   6.002 -11.213  0.00  0.00    -0.153 NA
ENDROOT
BRANCH   5   9
ATOM      9  C1* UNL     1       3.230   4.632  -7.799  0.00  0.00    +0.211 C 
ATOM     10  O4* UNL     1       1.997   5.509  -7.693  0.00  0.00    -0.332 OA
ATOM     11  C4* UNL     1       2.040   5.834  -6.235  0.00  0.00    +0.180 C 
ATOM     12  C3* UNL     1       3.386   6.821  -6.653  0.00  0.00    +0.186 C 
ATOM     13  O3* UNL     1       3.734   7.053  -5.202  0.00  0.00    -0.220 OA
ATOM     14  C2* UNL     1       4.171   5.400  -6.679  0.00  0.00    +0.089 C 
BRANCH  11  15
ATOM     15  C5* UNL     1       1.000   7.091  -6.349  0.00  0.00    +0.214 C 
ATOM     16  O5* UNL     1       0.089   7.051  -5.368  0.00  0.00    -0.218 OA
ENDBRANCH  11  15
ENDBRANCH   5   9
BRANCH   3  17
ATOM     17  C   UNL     1       7.165   6.470 -10.266  0.00  0.00    +0.424 C 
ATOM     18  F   UNL     1       7.385   7.751 -10.717  0.00  0.00    -0.166 F 
ATOM     19  F   UNL     1       7.749   6.426  -9.003  0.00  0.00    -0.166 F 
ATOM     20  F   UNL     1       7.832   5.525 -11.014  0.00  0.00    -0.166 F 
ENDBRANCH   3  17
TORSDOF 3
ENDMDL
MODEL 5
REMARK VINA RESULT:      -6.7      2.156      3.044
REMARK  Name = 
REMARK  3 active torsions:
REMARK  status: ('A' for Active; 'I' for Inactive)
REMARK    1  A    between atoms: N_6  and  C1*_7
REMARK    2  A    between atoms: C4*_11  and  C5*_12
REMARK    3  A    between atoms: C_16  and  C_17
REMARK                            x       y       z     vdW  Elec       q    Type
REMARK                         _______ _______ _______ _____ _____    ______ ____
ROOT
ATOM      1  O   UNL     1      -1.553   5.416  -6.504  0.00  0.00    -0.265 OA
ATOM      2  C   UNL     1      -0.819   5.430  -6.047  0.00  0.00    +0.288 A 
ATOM      3  C   UNL     1      -0.591   6.436  -5.111  0.00  0.00    +0.146 A 
ATOM      4  C   UNL     1       0.710   6.740  -4.719  0.00  0.00    +0.091 A 
ATOM      5  N   UNL     1       1.582   5.698  -4.749  0.00  0.00    -0.256 N 
ATOM      6  C   UNL     1       1.397   4.685  -5.607  0.00  0.00    +0.355 A 
ATOM      7  O   UNL     1       2.355   4.008  -6.096  0.00  0.00    -0.244 OA
ATOM      8  N   UNL     1       0.149   4.483  -6.084  0.00  0.00    -0.153 NA
ENDROOT
BRANCH   5   9
ATOM      9  C1* UNL     1       3.105   6.139  -4.583  0.00  0.00    +0.211 C 
ATOM     10  O4* UNL     1       3.365   4.983  -3.636  0.00  0.00    -0.332 OA
ATOM     11  C4* UNL     1       3.916   5.732  -2.465  0.00  0.00    +0.180 C 
ATOM     12  C3* UNL     1       2.296   6.270  -2.246  0.00  0.00    +0.186 C 
ATOM     13  O3* UNL     1       2.718   7.281  -1.205  0.00  0.00    -0.220 OA
ATOM     14  C2* UNL     1       2.674   7.276  -3.464  0.00  0.00    +0.089 C 
BRANCH  11  15
ATOM     15  C5* UNL     1       3.716   4.496  -1.412  0.00  0.00    +0.214 C 
ATOM     16  O5* UNL     1       4.737   4.432  -0.548  0.00  0.00    -0.218 OA
ENDBRANCH  11  15
ENDBRANCH   5   9
BRANCH   3  17
ATOM     17  C   UNL     1      -1.735   7.345  -4.852  0.00  0.00    +0.424 C 
ATOM     18  F   UNL     1      -2.747   7.231  -5.776  0.00  0.00    -0.166 F 
ATOM     19  F   UNL     1      -2.320   7.021  -3.631  0.00  0.00    -0.166 F 
ATOM     20  F   UNL     1      -1.289   8.641  -4.715  0.00  0.00    -0.166 F 
ENDBRANCH   3  17
TORSDOF 3
ENDMDL
MODEL 6
REMARK VINA RESULT:      -6.4      3.098      4.505
REMARK  Name = 
REMARK  3 active torsions:
REMARK  status: ('A' for Active; 'I' for Inactive)
REMARK    1  A    between atoms: N_6  and  C1*_7
REMARK    2  A    between atoms: C4*_11  and  C5*_12
REMARK    3  A    between atoms: C_16  and  C_17
REMARK                            x       y       z     vdW  Elec       q    Type
REMARK                         _______ _______ _______ _____ _____    ______ ____
ROOT
ATOM      1  O   UNL     1      -2.587   5.340  -6.108  0.00  0.00    -0.265 OA
ATOM      2  C   UNL     1      -1.764   5.498  -6.322  0.00  0.00    +0.288 A 
ATOM      3  C   UNL     1      -0.891   6.058  -5.392  0.00  0.00    +0.146 A 
ATOM      4  C   UNL     1       0.252   6.726  -5.826  0.00  0.00    +0.091 A 
ATOM      5  N   UNL     1       0.779   6.273  -6.993  0.00  0.00    -0.256 N 
ATOM      6  C   UNL     1      -0.007   5.696  -7.913  0.00  0.00    +0.355 A 
ATOM      7  O   UNL     1       0.231   5.753  -9.160  0.00  0.00    -0.244 OA
ATOM      8  N   UNL     1      -1.179   5.167  -7.497  0.00  0.00    -0.153 NA
ENDROOT
BRANCH   5   9
ATOM      9  C1* UNL     1       1.894   7.235  -7.602  0.00  0.00    +0.211 C 
ATOM     10  O4* UNL     1       2.470   6.097  -8.422  0.00  0.00    -0.332 OA
ATOM     11  C4* UNL     1       3.894   6.151  -7.969  0.00  0.00    +0.180 C 
ATOM     12  C3* UNL     1       3.285   5.514  -6.491  0.00  0.00    +0.186 C 
ATOM     13  O3* UNL     1       4.604   5.740  -5.790  0.00  0.00    -0.220 OA
ATOM     14  C2* UNL     1       2.822   7.051  -6.247  0.00  0.00    +0.089 C 
BRANCH  11  15
ATOM     15  C5* UNL     1       4.268   4.661  -8.531  0.00  0.00    +0.214 C 
ATOM     16  O5* UNL     1       4.103   4.595  -9.859  0.00  0.00    -0.218 OA
ENDBRANCH  11  15
ENDBRANCH   5   9
BRANCH   3  17
ATOM     17  C   UNL     1      -1.420   6.197  -4.013  0.00  0.00    +0.424 C 
ATOM     18  F   UNL     1      -1.806   5.002  -3.451  0.00  0.00    -0.166 F 
ATOM     19  F   UNL     1      -0.420   6.685  -3.177  0.00  0.00    -0.166 F 
ATOM     20  F   UNL     1      -2.422   7.143  -3.982  0.00  0.00    -0.166 F 
ENDBRANCH   3  17
TORSDOF 3
ENDMDL
MODEL 7
REMARK VINA RESULT:      -6.4      7.825      9.937
REMARK  Name = 
REMARK  3 active torsions:
REMARK  status: ('A' for Active; 'I' for Inactive)
REMARK    1  A    between atoms: N_6  and  C1*_7
REMARK    2  A    between atoms: C4*_11  and  C5*_12
REMARK    3  A    between atoms: C_16  and  C_17
REMARK                            x       y       z     vdW  Elec       q    Type
REMARK                         _______ _______ _______ _____ _____    ______ ____
ROOT
ATOM      1  O   UNL     1       5.997   5.621  -9.196  0.00  0.00    -0.265 OA
ATOM      2  C   UNL     1       5.277   5.551  -9.672  0.00  0.00    +0.288 A 
ATOM      3  C   UNL     1       5.181   6.195 -10.903  0.00  0.00    +0.146 A 
ATOM      4  C   UNL     1       3.930   6.475 -11.446  0.00  0.00    +0.091 A 
ATOM      5  N   UNL     1       2.946   5.598 -11.114  0.00  0.00    -0.256 N 
ATOM      6  C   UNL     1       3.000   4.925  -9.956  0.00  0.00    +0.355 A 
ATOM      7  O   UNL     1       1.963   4.554  -9.322  0.00  0.00    -0.244 OA
ATOM      8  N   UNL     1       4.209   4.775  -9.371  0.00  0.00    -0.153 NA
ENDROOT
BRANCH   5   9
ATOM      9  C1* UNL     1       1.486   6.105 -11.503  0.00  0.00    +0.211 C 
ATOM     10  O4* UNL     1       1.148   4.756 -12.108  0.00  0.00    -0.332 OA
ATOM     11  C4* UNL     1       0.728   5.187 -13.477  0.00  0.00    +0.180 C 
ATOM     12  C3* UNL     1       2.403   5.498 -13.721  0.00  0.00    +0.186 C 
ATOM     13  O3* UNL     1       2.134   6.205 -15.029  0.00  0.00    -0.220 OA
ATOM     14  C2* UNL     1       2.080   6.836 -12.860  0.00  0.00    +0.089 C 
BRANCH  11  15
ATOM     15  C5* UNL     1       0.844   3.692 -14.128  0.00  0.00    +0.214 C 
ATOM     16  O5* UNL     1      -0.138   3.476 -15.012  0.00  0.00    -0.218 OA
ENDBRANCH  11  15
ENDBRANCH   5   9
BRANCH   3  17
ATOM     17  C   UNL     1       6.424   6.842 -11.390  0.00  0.00    +0.424 C 
ATOM     18  F   UNL     1       7.482   5.973 -11.518  0.00  0.00    -0.166 F 
ATOM     19  F   UNL     1       6.215   7.350 -12.669  0.00  0.00    -0.166 F 
ATOM     20  F   UNL     1       6.730   7.933 -10.605  0.00  0.00    -0.166 F 
ENDBRANCH   3  17
TORSDOF 3
ENDMDL
MODEL 8
REMARK VINA RESULT:      -6.2      7.131      8.713
REMARK  Name = 
REMARK  3 active torsions:
REMARK  status: ('A' for Active; 'I' for Inactive)
REMARK    1  A    between atoms: N_6  and  C1*_7
REMARK    2  A    between atoms: C4*_11  and  C5*_12
REMARK    3  A    between atoms: C_16  and  C_17
REMARK                            x       y       z     vdW  Elec       q    Type
REMARK                         _______ _______ _______ _____ _____    ______ ____
ROOT
ATOM      1  O   UNL     1       1.618   6.606 -14.953  0.00  0.00    -0.265 OA
ATOM      2  C   UNL     1       1.507   6.635 -14.096  0.00  0.00    +0.288 A 
ATOM      3  C   UNL     1       2.295   5.852 -13.256  0.00  0.00    +0.146 A 
ATOM      4  C   UNL     1       1.847   5.537 -11.976  0.00  0.00    +0.091 A 
ATOM      5  N   UNL     1       1.043   6.468 -11.399  0.00  0.00    -0.256 N 
ATOM      6  C   UNL     1       0.285   7.272 -12.157  0.00  0.00    +0.355 A 
ATOM      7  O   UNL     1      -0.832   7.738 -11.769  0.00  0.00    -0.244 OA
ATOM      8  N   UNL     1       0.659   7.464 -13.441  0.00  0.00    -0.153 NA
ENDROOT
BRANCH   5   9
ATOM      9  C1* UNL     1       0.320   5.951 -10.075  0.00  0.00    +0.211 C 
ATOM     10  O4* UNL     1       0.999   7.026  -9.249  0.00  0.00    -0.332 OA
ATOM     11  C4* UNL     1       1.640   6.175  -8.201  0.00  0.00    +0.180 C 
ATOM     12  C3* UNL     1       2.705   5.694  -9.464  0.00  0.00    +0.186 C 
ATOM     13  O3* UNL     1       3.302   4.596  -8.614  0.00  0.00    -0.220 OA
ATOM     14  C2* UNL     1       1.451   4.759  -9.899  0.00  0.00    +0.089 C 
BRANCH  11  15
ATOM     15  C5* UNL     1       2.666   7.342  -7.692  0.00  0.00    +0.214 C 
ATOM     16  O5* UNL     1       2.107   8.554  -7.803  0.00  0.00    -0.218 OA
ENDBRANCH  11  15
ENDBRANCH   5   9
BRANCH   3  17
ATOM     17  C   UNL     1       3.409   5.124 -13.912  0.00  0.00    +0.424 C 
ATOM     18  F   UNL     1       4.119   5.896 -14.802  0.00  0.00    -0.166 F 
ATOM     19  F   UNL     1       4.337   4.730 -12.953  0.00  0.00    -0.166 F 
ATOM     20  F   UNL     1       2.945   3.957 -14.479  0.00  0.00    -0.166 F 
ENDBRANCH   3  17
TORSDOF 3
ENDMDL
MODEL 9
REMARK VINA RESULT:      -6.1      5.462      7.604
REMARK  Name = 
REMARK  3 active torsions:
REMARK  status: ('A' for Active; 'I' for Inactive)
REMARK    1  A    between atoms: N_6  and  C1*_7
REMARK    2  A    between atoms: C4*_11  and  C5*_12
REMARK    3  A    between atoms: C_16  and  C_17
REMARK                            x       y       z     vdW  Elec       q    Type
REMARK                         _______ _______ _______ _____ _____    ______ ____
ROOT
ATOM      1  O   UNL     1       6.842   5.459  -9.894  0.00  0.00    -0.265 OA
ATOM      2  C   UNL     1       6.066   5.596  -9.536  0.00  0.00    +0.288 A 
ATOM      3  C   UNL     1       5.011   6.077 -10.307  0.00  0.00    +0.146 A 
ATOM      4  C   UNL     1       3.939   6.721  -9.695  0.00  0.00    +0.091 A 
ATOM      5  N   UNL     1       3.659   6.305  -8.432  0.00  0.00    -0.256 N 
ATOM      6  C   UNL     1       4.628   5.803  -7.653  0.00  0.00    +0.355 A 
ATOM      7  O   UNL     1       4.624   5.910  -6.387  0.00  0.00    -0.244 OA
ATOM      8  N   UNL     1       5.726   5.300  -8.260  0.00  0.00    -0.153 NA
ENDROOT
BRANCH   5   9
ATOM      9  C1* UNL     1       2.633   7.252  -7.663  0.00  0.00    +0.211 C 
ATOM     10  O4* UNL     1       2.286   6.139  -6.694  0.00  0.00    -0.332 OA
ATOM     11  C4* UNL     1       0.801   6.107  -6.862  0.00  0.00    +0.180 C 
ATOM     12  C3* UNL     1       1.147   5.413  -8.399  0.00  0.00    +0.186 C 
ATOM     13  O3* UNL     1      -0.292   5.542  -8.839  0.00  0.00    -0.220 OA
ATOM     14  C2* UNL     1       1.473   6.952  -8.801  0.00  0.00    +0.089 C 
BRANCH  11  15
ATOM     15  C5* UNL     1       0.621   4.637  -6.168  0.00  0.00    +0.214 C 
ATOM     16  O5* UNL     1       0.914   4.685  -4.861  0.00  0.00    -0.218 OA
ENDBRANCH  11  15
ENDBRANCH   5   9
BRANCH   3  17
ATOM     17  C   UNL     1       5.268   6.169 -11.766  0.00  0.00    +0.424 C 
ATOM     18  F   UNL     1       5.805   5.021 -12.301  0.00  0.00    -0.166 F 
ATOM     19  F   UNL     1       4.065   6.355 -12.440  0.00  0.00    -0.166 F 
ATOM     20  F   UNL     1       6.025   7.286 -12.044  0.00  0.00    -0.166 F 
ENDBRANCH   3  17
TORSDOF 3
ENDMDL
