MODEL 1
REMARK VINA RESULT:      -8.1      0.000      0.000
REMARK  Name = 
REMARK  1 active torsions:
REMARK  status: ('A' for Active; 'I' for Inactive)
REMARK    1  A    between atoms: C_5  and  C_6
REMARK                            x       y       z     vdW  Elec       q    Type
REMARK                         _______ _______ _______ _____ _____    ______ ____
ROOT
ATOM      1  C   UNL     1       4.961   4.704  -8.312  0.00  0.00    +0.062 C 
ATOM      2  C   UNL     1       4.190   5.726  -7.295  0.00  0.00    -0.017 A 
ATOM      3  C   UNL     1       2.843   5.800  -7.128  0.00  0.00    -0.010 A 
ATOM      4  C   UNL     1       2.413   6.574  -6.057  0.00  0.00    +0.096 A 
ATOM      5  C   UNL     1       3.245   6.700  -4.952  0.00  0.00    +0.244 A 
ATOM      6  C   UNL     1       4.427   5.972  -4.914  0.00  0.00    +0.235 A 
ATOM      7  O   UNL     1       4.916   5.527  -3.689  0.00  0.00    -0.283 OA
ATOM      8  O   UNL     1       2.869   7.393  -3.824  0.00  0.00    -0.282 OA
ATOM      9 CL   UNL     1       0.893   7.442  -6.109  0.00  0.00    -0.079 Cl
ATOM     10  C   UNL     1       1.906   5.916  -8.292  0.00  0.00    +0.046 C 
ATOM     11  C   UNL     1       1.503   4.495  -8.653  0.00  0.00    +0.093 C 
ATOM     12  N   UNL     1       2.748   3.733  -8.722  0.00  0.00    -0.217 NA
ATOM     13  C   UNL     1       4.927   5.522  -6.130  0.00  0.00    +0.041 A 
ATOM     14  C   UNL     1       3.704   4.595  -9.412  0.00  0.00    +0.097 C 
ENDROOT
BRANCH   1  19
ATOM     15  O   UNL     1       7.343   7.304 -12.603  0.00  0.00    -0.287 OA
ATOM     16  C   UNL     1       6.800   7.058 -11.399  0.00  0.00    +0.196 A 
ATOM     17  C   UNL     1       7.553   6.725 -10.279  0.00  0.00    +0.042 A 
ATOM     18  C   UNL     1       6.974   5.768  -9.453  0.00  0.00    -0.001 A 
ATOM     19  C   UNL     1       5.665   5.937  -9.126  0.00  0.00    -0.017 A 
ATOM     20  C   UNL     1       4.838   6.457 -10.121  0.00  0.00    -0.001 A 
ATOM     21  C   UNL     1       5.432   7.152 -11.168  0.00  0.00    +0.042 A 
ENDBRANCH   1  19
TORSDOF 1
ENDMDL
MODEL 2
REMARK VINA RESULT:      -7.9      3.656      7.230
REMARK  Name = 
REMARK  1 active torsions:
REMARK  status: ('A' for Active; 'I' for Inactive)
REMARK    1  A    between atoms: C_5  and  C_6
REMARK                            x       y       z     vdW  Elec       q    Type
REMARK                         _______ _______ _______ _____ _____    ______ ____
ROOT
ATOM      1  C   UNL     1      -0.142   4.665  -7.043  0.00  0.00    +0.062 C 
ATOM      2  C   UNL     1       0.622   5.513  -8.213  0.00  0.00    -0.017 A 
ATOM      3  C   UNL     1       1.967   5.552  -8.404  0.00  0.00    -0.010 A 
ATOM      4  C   UNL     1       2.389   6.149  -9.586  0.00  0.00    +0.096 A 
ATOM      5  C   UNL     1       1.545   6.109 -10.688  0.00  0.00    +0.244 A 
ATOM      6  C   UNL     1       0.358   5.392 -10.601  0.00  0.00    +0.235 A 
ATOM      7  O   UNL     1      -0.147   4.767 -11.738  0.00  0.00    -0.283 OA
ATOM      8  O   UNL     1       1.912   6.618 -11.913  0.00  0.00    -0.282 OA
ATOM      9 CL   UNL     1       3.914   7.005  -9.684  0.00  0.00    -0.079 Cl
ATOM     10  C   UNL     1       2.918   5.839  -7.282  0.00  0.00    +0.046 C 
ATOM     11  C   UNL     1       3.319   4.487  -6.711  0.00  0.00    +0.093 C 
ATOM     12  N   UNL     1       2.070   3.754  -6.512  0.00  0.00    -0.217 NA
ATOM     13  C   UNL     1      -0.130   5.138  -9.325  0.00  0.00    +0.041 A 
ATOM     14  C   UNL     1       1.126   4.718  -5.953  0.00  0.00    +0.097 C 
ENDROOT
BRANCH   1  19
ATOM     15  O   UNL     1      -2.415   7.928  -3.165  0.00  0.00    -0.287 OA
ATOM     16  C   UNL     1      -1.906   7.489  -4.329  0.00  0.00    +0.196 A 
ATOM     17  C   UNL     1      -2.690   6.976  -5.356  0.00  0.00    +0.042 A 
ATOM     18  C   UNL     1      -2.128   5.898  -6.032  0.00  0.00    -0.001 A 
ATOM     19  C   UNL     1      -0.830   6.014  -6.421  0.00  0.00    -0.017 A 
ATOM     20  C   UNL     1       0.021   6.691  -5.550  0.00  0.00    -0.001 A 
ATOM     21  C   UNL     1      -0.546   7.547  -4.613  0.00  0.00    +0.042 A 
ENDBRANCH   1  19
TORSDOF 1
ENDMDL
MODEL 3
REMARK VINA RESULT:      -7.4      3.184      4.865
REMARK  Name = 
REMARK  1 active torsions:
REMARK  status: ('A' for Active; 'I' for Inactive)
REMARK    1  A    between atoms: C_5  and  C_6
REMARK                            x       y       z     vdW  Elec       q    Type
REMARK                         _______ _______ _______ _____ _____    ______ ____
ROOT
ATOM      1  C   UNL     1       2.988   7.223  -5.582  0.00  0.00    +0.062 C 
ATOM      2  C   UNL     1       2.413   6.206  -4.438  0.00  0.00    -0.017 A 
ATOM      3  C   UNL     1       2.943   6.041  -3.197  0.00  0.00    -0.010 A 
ATOM      4  C   UNL     1       2.172   5.299  -2.310  0.00  0.00    +0.096 A 
ATOM      5  C   UNL     1       0.792   5.299  -2.468  0.00  0.00    +0.244 A 
ATOM      6  C   UNL     1       0.227   6.115  -3.440  0.00  0.00    +0.235 A 
ATOM      7  O   UNL     1      -1.033   6.666  -3.221  0.00  0.00    -0.283 OA
ATOM      8  O   UNL     1      -0.048   4.646  -1.595  0.00  0.00    -0.282 OA
ATOM      9 CL   UNL     1       2.907   4.317  -1.060  0.00  0.00    -0.079 Cl
ATOM     10  C   UNL     1       4.405   5.788  -2.987  0.00  0.00    +0.046 C 
ATOM     11  C   UNL     1       5.043   7.152  -2.773  0.00  0.00    +0.093 C 
ATOM     12  N   UNL     1       4.541   8.000  -3.853  0.00  0.00    -0.217 NA
ATOM     13  C   UNL     1       1.058   6.531  -4.472  0.00  0.00    +0.041 A 
ATOM     14  C   UNL     1       4.576   7.174  -5.057  0.00  0.00    +0.097 C 
ENDROOT
BRANCH   1  19
ATOM     15  O   UNL     1       4.456   4.816 -10.367  0.00  0.00    -0.287 OA
ATOM     16  C   UNL     1       4.046   4.998  -9.101  0.00  0.00    +0.196 A 
ATOM     17  C   UNL     1       2.705   5.072  -8.739  0.00  0.00    +0.042 A 
ATOM     18  C   UNL     1       2.423   6.002  -7.744  0.00  0.00    -0.001 A 
ATOM     19  C   UNL     1       3.224   6.001  -6.646  0.00  0.00    -0.017 A 
ATOM     20  C   UNL     1       4.576   5.740  -6.862  0.00  0.00    -0.001 A 
ATOM     21  C   UNL     1       4.937   5.092  -8.038  0.00  0.00    +0.042 A 
ENDBRANCH   1  19
TORSDOF 1
ENDMDL
MODEL 4
REMARK VINA RESULT:      -7.3      4.369      5.895
REMARK  Name = 
REMARK  1 active torsions:
REMARK  status: ('A' for Active; 'I' for Inactive)
REMARK    1  A    between atoms: C_5  and  C_6
REMARK                            x       y       z     vdW  Elec       q    Type
REMARK                         _______ _______ _______ _____ _____    ______ ____
ROOT
ATOM      1  C   UNL     1       1.640   4.887  -4.081  0.00  0.00    +0.062 C 
ATOM      2  C   UNL     1       0.330   5.837  -3.849  0.00  0.00    -0.017 A 
ATOM      3  C   UNL     1      -0.644   6.069  -4.769  0.00  0.00    -0.010 A 
ATOM      4  C   UNL     1      -1.775   6.722  -4.294  0.00  0.00    +0.096 A 
ATOM      5  C   UNL     1      -2.122   6.562  -2.958  0.00  0.00    +0.244 A 
ATOM      6  C   UNL     1      -1.388   5.681  -2.174  0.00  0.00    +0.235 A 
ATOM      7  O   UNL     1      -2.024   4.991  -1.145  0.00  0.00    -0.283 OA
ATOM      8  O   UNL     1      -3.261   7.119  -2.423  0.00  0.00    -0.282 OA
ATOM      9 CL   UNL     1      -2.714   7.788  -5.318  0.00  0.00    -0.079 Cl
ATOM     10  C   UNL     1      -0.326   6.489  -6.171  0.00  0.00    +0.046 C 
ATOM     11  C   UNL     1      -0.247   5.209  -6.989  0.00  0.00    +0.093 C 
ATOM     12  N   UNL     1       0.612   4.303  -6.228  0.00  0.00    -0.217 NA
ATOM     13  C   UNL     1      -0.112   5.359  -2.617  0.00  0.00    +0.041 A 
ATOM     14  C   UNL     1       1.717   5.121  -5.736  0.00  0.00    +0.097 C 
ENDROOT
BRANCH   1  19
ATOM     15  O   UNL     1       6.516   7.535  -3.836  0.00  0.00    -0.287 OA
ATOM     16  C   UNL     1       5.200   7.272  -3.776  0.00  0.00    +0.196 A 
ATOM     17  C   UNL     1       4.554   6.889  -2.606  0.00  0.00    +0.042 A 
ATOM     18  C   UNL     1       3.565   5.926  -2.777  0.00  0.00    -0.001 A 
ATOM     19  C   UNL     1       2.672   6.122  -3.784  0.00  0.00    -0.017 A 
ATOM     20  C   UNL     1       3.170   6.691  -4.954  0.00  0.00    -0.001 A 
ATOM     21  C   UNL     1       4.366   7.397  -4.881  0.00  0.00    +0.042 A 
ENDBRANCH   1  19
TORSDOF 1
ENDMDL
MODEL 5
REMARK VINA RESULT:      -7.2      4.835      8.898
REMARK  Name = 
REMARK  1 active torsions:
REMARK  status: ('A' for Active; 'I' for Inactive)
REMARK    1  A    between atoms: C_5  and  C_6
REMARK                            x       y       z     vdW  Elec       q    Type
REMARK                         _______ _______ _______ _____ _____    ______ ____
ROOT
ATOM      1  C   UNL     1       0.724   5.079  -1.926  0.00  0.00    +0.062 C 
ATOM      2  C   UNL     1       1.551   6.050  -2.948  0.00  0.00    -0.017 A 
ATOM      3  C   UNL     1       2.894   6.259  -2.918  0.00  0.00    -0.010 A 
ATOM      4  C   UNL     1       3.420   6.940  -4.009  0.00  0.00    +0.096 A 
ATOM      5  C   UNL     1       2.774   6.831  -5.234  0.00  0.00    +0.244 A 
ATOM      6  C   UNL     1       1.689   5.972  -5.348  0.00  0.00    +0.235 A 
ATOM      7  O   UNL     1       1.454   5.325  -6.558  0.00  0.00    -0.283 OA
ATOM      8  O   UNL     1       3.264   7.419  -6.378  0.00  0.00    -0.282 OA
ATOM      9 CL   UNL     1       4.821   7.978  -3.851  0.00  0.00    -0.079 Cl
ATOM     10  C   UNL     1       3.611   6.625  -1.654  0.00  0.00    +0.046 C 
ATOM     11  C   UNL     1       4.082   5.316  -1.040  0.00  0.00    +0.093 C 
ATOM     12  N   UNL     1       2.921   4.429  -1.054  0.00  0.00    -0.217 NA
ATOM     13  C   UNL     1       1.040   5.620  -4.171  0.00  0.00    +0.041 A 
ATOM     14  C   UNL     1       1.786   5.253  -0.644  0.00  0.00    +0.097 C 
ENDROOT
BRANCH   1  19
ATOM     15  O   UNL     1      -2.834   7.758   1.393  0.00  0.00    -0.287 OA
ATOM     16  C   UNL     1      -1.973   7.483   0.399  0.00  0.00    +0.196 A 
ATOM     17  C   UNL     1      -2.377   7.060  -0.863  0.00  0.00    +0.042 A 
ATOM     18  C   UNL     1      -1.560   6.095  -1.441  0.00  0.00    -0.001 A 
ATOM     19  C   UNL     1      -0.219   6.313  -1.408  0.00  0.00    -0.017 A 
ATOM     20  C   UNL     1       0.284   6.919  -0.259  0.00  0.00    -0.001 A 
ATOM     21  C   UNL     1      -0.598   7.633   0.544  0.00  0.00    +0.042 A 
ENDBRANCH   1  19
TORSDOF 1
ENDMDL
MODEL 6
REMARK VINA RESULT:      -7.0      4.127      6.994
REMARK  Name = 
REMARK  1 active torsions:
REMARK  status: ('A' for Active; 'I' for Inactive)
REMARK    1  A    between atoms: C_5  and  C_6
REMARK                            x       y       z     vdW  Elec       q    Type
REMARK                         _______ _______ _______ _____ _____    ______ ____
ROOT
ATOM      1  C   UNL     1       0.027   6.944  -4.558  0.00  0.00    +0.062 C 
ATOM      2  C   UNL     1       0.573   6.399  -5.999  0.00  0.00    -0.017 A 
ATOM      3  C   UNL     1      -0.208   5.930  -7.008  0.00  0.00    -0.010 A 
ATOM      4  C   UNL     1       0.437   5.729  -8.222  0.00  0.00    +0.096 A 
ATOM      5  C   UNL     1       1.544   6.513  -8.524  0.00  0.00    +0.244 A 
ATOM      6  C   UNL     1       1.904   7.531  -7.651  0.00  0.00    +0.235 A 
ATOM      7  O   UNL     1       2.485   8.691  -8.157  0.00  0.00    -0.283 OA
ATOM      8  O   UNL     1       2.200   6.425  -9.731  0.00  0.00    -0.282 OA
ATOM      9 CL   UNL     1      -0.069   4.471  -9.330  0.00  0.00    -0.079 Cl
ATOM     10  C   UNL     1      -1.262   4.890  -6.776  0.00  0.00    +0.046 C 
ATOM     11  C   UNL     1      -2.552   5.649  -6.505  0.00  0.00    +0.093 C 
ATOM     12  N   UNL     1      -2.216   6.661  -5.506  0.00  0.00    -0.217 NA
ATOM     13  C   UNL     1       1.441   7.433  -6.345  0.00  0.00    +0.041 A 
ATOM     14  C   UNL     1      -1.350   5.993  -4.538  0.00  0.00    +0.097 C 
ENDROOT
BRANCH   1  19
ATOM     15  O   UNL     1       3.077   4.899  -0.391  0.00  0.00    -0.287 OA
ATOM     16  C   UNL     1       2.373   4.997  -1.531  0.00  0.00    +0.196 A 
ATOM     17  C   UNL     1       2.958   5.249  -2.767  0.00  0.00    +0.042 A 
ATOM     18  C   UNL     1       2.225   6.091  -3.596  0.00  0.00    -0.001 A 
ATOM     19  C   UNL     1       0.897   5.831  -3.731  0.00  0.00    -0.017 A 
ATOM     20  C   UNL     1       0.234   5.379  -2.592  0.00  0.00    -0.001 A 
ATOM     21  C   UNL     1       0.994   4.820  -1.570  0.00  0.00    +0.042 A 
ENDBRANCH   1  19
TORSDOF 1
ENDMDL
MODEL 7
REMARK VINA RESULT:      -6.9      3.934      5.312
REMARK  Name = 
REMARK  1 active torsions:
REMARK  status: ('A' for Active; 'I' for Inactive)
REMARK    1  A    between atoms: C_5  and  C_6
REMARK                            x       y       z     vdW  Elec       q    Type
REMARK                         _______ _______ _______ _____ _____    ______ ____
ROOT
ATOM      1  C   UNL     1       1.585   7.173  -6.623  0.00  0.00    +0.062 C 
ATOM      2  C   UNL     1       0.809   6.477  -5.363  0.00  0.00    -0.017 A 
ATOM      3  C   UNL     1       1.376   6.163  -4.168  0.00  0.00    -0.010 A 
ATOM      4  C   UNL     1       0.491   5.787  -3.164  0.00  0.00    +0.096 A 
ATOM      5  C   UNL     1      -0.802   6.296  -3.194  0.00  0.00    +0.244 A 
ATOM      6  C   UNL     1      -1.132   7.235  -4.163  0.00  0.00    +0.235 A 
ATOM      7  O   UNL     1      -2.070   8.220  -3.867  0.00  0.00    -0.283 OA
ATOM      8  O   UNL     1      -1.719   6.028  -2.204  0.00  0.00    -0.282 OA
ATOM      9 CL   UNL     1       0.950   4.640  -1.923  0.00  0.00    -0.079 Cl
ATOM     10  C   UNL     1       2.657   5.392  -4.078  0.00  0.00    +0.046 C 
ATOM     11  C   UNL     1       3.770   6.426  -4.018  0.00  0.00    +0.093 C 
ATOM     12  N   UNL     1       3.497   7.368  -5.102  0.00  0.00    -0.217 NA
ATOM     13  C   UNL     1      -0.327   7.281  -5.294  0.00  0.00    +0.041 A 
ATOM     14  C   UNL     1       3.092   6.553  -6.244  0.00  0.00    +0.097 C 
ENDROOT
BRANCH   1  19
ATOM     15  O   UNL     1       0.989   4.478 -11.442  0.00  0.00    -0.287 OA
ATOM     16  C   UNL     1       1.039   4.749 -10.127  0.00  0.00    +0.196 A 
ATOM     17  C   UNL     1      -0.080   5.099  -9.380  0.00  0.00    +0.042 A 
ATOM     18  C   UNL     1       0.147   6.075  -8.416  0.00  0.00    -0.001 A 
ATOM     19  C   UNL     1       1.237   5.920  -7.617  0.00  0.00    -0.017 A 
ATOM     20  C   UNL     1       2.376   5.386  -8.216  0.00  0.00    -0.001 A 
ATOM     21  C   UNL     1       2.219   4.668  -9.396  0.00  0.00    +0.042 A 
ENDBRANCH   1  19
TORSDOF 1
ENDMDL
MODEL 8
REMARK VINA RESULT:      -6.7      2.669      6.038
REMARK  Name = 
REMARK  1 active torsions:
REMARK  status: ('A' for Active; 'I' for Inactive)
REMARK    1  A    between atoms: C_5  and  C_6
REMARK                            x       y       z     vdW  Elec       q    Type
REMARK                         _______ _______ _______ _____ _____    ______ ____
ROOT
ATOM      1  C   UNL     1       2.715   7.134  -8.955  0.00  0.00    +0.062 C 
ATOM      2  C   UNL     1       3.577   6.456 -10.167  0.00  0.00    -0.017 A 
ATOM      3  C   UNL     1       3.074   6.080 -11.373  0.00  0.00    -0.010 A 
ATOM      4  C   UNL     1       4.016   5.734 -12.335  0.00  0.00    +0.096 A 
ATOM      5  C   UNL     1       5.274   6.322 -12.274  0.00  0.00    +0.244 A 
ATOM      6  C   UNL     1       5.512   7.301 -11.318  0.00  0.00    +0.235 A 
ATOM      7  O   UNL     1       6.400   8.334 -11.607  0.00  0.00    -0.283 OA
ATOM      8  O   UNL     1       6.242   6.086 -13.223  0.00  0.00    -0.282 OA
ATOM      9 CL   UNL     1       3.673   4.533 -13.561  0.00  0.00    -0.079 Cl
ATOM     10  C   UNL     1       1.846   5.230 -11.489  0.00  0.00    +0.046 C 
ATOM     11  C   UNL     1       0.676   6.193 -11.615  0.00  0.00    +0.093 C 
ATOM     12  N   UNL     1       0.851   7.175 -10.547  0.00  0.00    -0.217 NA
ATOM     13  C   UNL     1       4.665   7.326 -10.218  0.00  0.00    +0.041 A 
ATOM     14  C   UNL     1       1.262   6.414  -9.370  0.00  0.00    +0.097 C 
ENDROOT
BRANCH   1  19
ATOM     15  O   UNL     1       3.117   4.521  -4.071  0.00  0.00    -0.287 OA
ATOM     16  C   UNL     1       3.172   4.786  -5.387  0.00  0.00    +0.196 A 
ATOM     17  C   UNL     1       4.314   5.264  -6.019  0.00  0.00    +0.042 A 
ATOM     18  C   UNL     1       4.076   6.208  -7.012  0.00  0.00    -0.001 A 
ATOM     19  C   UNL     1       3.100   5.929  -7.917  0.00  0.00    -0.017 A 
ATOM     20  C   UNL     1       1.975   5.266  -7.431  0.00  0.00    -0.001 A 
ATOM     21  C   UNL     1       2.091   4.570  -6.233  0.00  0.00    +0.042 A 
ENDBRANCH   1  19
TORSDOF 1
ENDMDL
MODEL 9
REMARK VINA RESULT:      -6.7      4.281      7.512
REMARK  Name = 
REMARK  1 active torsions:
REMARK  status: ('A' for Active; 'I' for Inactive)
REMARK    1  A    between atoms: C_5  and  C_6
REMARK                            x       y       z     vdW  Elec       q    Type
REMARK                         _______ _______ _______ _____ _____    ______ ____
ROOT
ATOM      1  C   UNL     1       0.379   5.028  -2.806  0.00  0.00    +0.062 C 
ATOM      2  C   UNL     1       1.496   5.649  -3.824  0.00  0.00    -0.017 A 
ATOM      3  C   UNL     1       2.748   6.042  -3.471  0.00  0.00    -0.010 A 
ATOM      4  C   UNL     1       3.607   6.330  -4.525  0.00  0.00    +0.096 A 
ATOM      5  C   UNL     1       3.413   5.678  -5.737  0.00  0.00    +0.244 A 
ATOM      6  C   UNL     1       2.436   4.694  -5.821  0.00  0.00    +0.235 A 
ATOM      7  O   UNL     1       2.627   3.614  -6.678  0.00  0.00    -0.283 OA
ATOM      8  O   UNL     1       4.256   5.855  -6.809  0.00  0.00    -0.282 OA
ATOM      9 CL   UNL     1       4.865   7.538  -4.376  0.00  0.00    -0.079 Cl
ATOM     10  C   UNL     1       2.994   6.954  -2.308  0.00  0.00    +0.046 C 
ATOM     11  C   UNL     1       3.240   6.053  -1.108  0.00  0.00    +0.093 C 
ATOM     12  N   UNL     1       2.157   5.072  -1.119  0.00  0.00    -0.217 NA
ATOM     13  C   UNL     1       1.430   4.723  -4.863  0.00  0.00    +0.041 A 
ATOM     14  C   UNL     1       0.945   5.819  -1.444  0.00  0.00    +0.097 C 
ENDROOT
BRANCH   1  19
ATOM     15  O   UNL     1      -3.443   7.792  -5.738  0.00  0.00    -0.287 OA
ATOM     16  C   UNL     1      -2.610   7.423  -4.750  0.00  0.00    +0.196 A 
ATOM     17  C   UNL     1      -1.332   7.950  -4.597  0.00  0.00    +0.042 A 
ATOM     18  C   UNL     1      -0.372   7.032  -4.186  0.00  0.00    -0.001 A 
ATOM     19  C   UNL     1      -0.692   6.219  -3.144  0.00  0.00    -0.017 A 
ATOM     20  C   UNL     1      -2.012   5.779  -3.082  0.00  0.00    -0.001 A 
ATOM     21  C   UNL     1      -2.977   6.503  -3.775  0.00  0.00    +0.042 A 
ENDBRANCH   1  19
TORSDOF 1
ENDMDL
