MODEL 1
REMARK VINA RESULT:      -6.8      0.000      0.000
REMARK  Name = 
REMARK  20 active torsions:
REMARK  status: ('A' for Active; 'I' for Inactive)
REMARK    1  A    between atoms: C_2  and  O_3
REMARK    2  A    between atoms: O_3  and  C_4
REMARK    3  A    between atoms: C_7  and  C_8
REMARK    4  A    between atoms: C_8  and  C_9
REMARK    5  A    between atoms: C_9  and  C_10
REMARK    6  A    between atoms: C_9  and  N_27
REMARK    7  A    between atoms: C_10  and  N_11
REMARK    8  A    between atoms: N_11  and  C_12
REMARK    9  A    between atoms: N_11  and  C_23
REMARK   10  A    between atoms: C_12  and  C_13
REMARK   11  A    between atoms: C_13  and  N_14
REMARK   12  A    between atoms: N_14  and  C_15
REMARK   13  A    between atoms: N_14  and  C_19
REMARK   14  A    between atoms: C_15  and  C_16
REMARK   15  A    between atoms: C_19  and  C_20
REMARK   16  A    between atoms: C_23  and  C_24
REMARK   17  A    between atoms: N_27  and  C_28
REMARK   18  A    between atoms: N_27  and  C_32
REMARK   19  A    between atoms: C_28  and  C_29
REMARK   20  A    between atoms: C_32  and  C_33
REMARK                            x       y       z     vdW  Elec       q    Type
REMARK                         _______ _______ _______ _____ _____    ______ ____
ROOT
ATOM      1  C   UNL     1       3.255   6.121  -7.354  0.00  0.00    +0.079 C 
ENDROOT
BRANCH   1   2
ATOM      2  N   UNL     1       3.903   5.990  -5.898  0.00  0.00    -0.253 NA
BRANCH   2   3
ATOM      3  C   UNL     1       3.318   4.880  -5.244  0.00  0.00    +0.188 C 
BRANCH   3   4
ATOM      4  C   UNL     1       4.123   4.477  -4.081  0.00  0.00    +0.381 C 
ATOM      5  O   UNL     1       5.511   4.555  -4.103  0.00  0.00    -0.244 OA
ATOM      6  O   UNL     1       3.555   4.542  -2.954  0.00  0.00    -0.244 OA
ENDBRANCH   3   4
ENDBRANCH   2   3
BRANCH   2   7
ATOM      7  C   UNL     1       3.268   7.163  -5.291  0.00  0.00    +0.188 C 
BRANCH   7   8
ATOM      8  C   UNL     1       4.029   7.724  -4.172  0.00  0.00    +0.381 C 
ATOM      9  O   UNL     1       3.514   7.888  -2.905  0.00  0.00    -0.244 OA
ATOM     10  O   UNL     1       5.257   7.966  -4.373  0.00  0.00    -0.244 OA
ENDBRANCH   7   8
ENDBRANCH   2   7
ENDBRANCH   1   2
BRANCH   1  11
ATOM     11  C   UNL     1       4.350   5.031  -7.983  0.00  0.00    +0.044 C 
BRANCH  11  15
ATOM     12  C   UNL     1       6.313   5.549 -11.595  0.00  0.00    +0.139 A 
ATOM     13  C   UNL     1       4.948   5.796 -11.535  0.00  0.00    +0.037 A 
ATOM     14  C   UNL     1       4.288   5.743 -10.326  0.00  0.00    -0.001 A 
ATOM     15  C   UNL     1       4.978   5.767  -9.119  0.00  0.00    -0.021 A 
ATOM     16  C   UNL     1       6.358   5.792  -9.218  0.00  0.00    -0.001 A 
ATOM     17  C   UNL     1       7.021   5.735 -10.434  0.00  0.00    +0.037 A 
BRANCH  12  18
ATOM     18  O   UNL     1       6.890   5.037 -12.735  0.00  0.00    -0.475 OA
BRANCH  18  20
ATOM     19  C   UNL     1       7.176   6.304 -14.336  0.00  0.00    +0.051 C 
ATOM     20  C   UNL     1       6.637   5.534 -14.038  0.00  0.00    +0.206 C 
ENDBRANCH  18  20
ENDBRANCH  12  18
ENDBRANCH  11  15
ENDBRANCH   1  11
BRANCH   1  21
ATOM     21  C   UNL     1       2.122   4.910  -7.130  0.00  0.00    +0.089 C 
BRANCH  21  22
ATOM     22  N   UNL     1       1.036   5.550  -7.862  0.00  0.00    -0.261 NA
BRANCH  22  23
ATOM     23  C   UNL     1       0.818   4.940  -9.143  0.00  0.00    +0.188 C 
BRANCH  23  24
ATOM     24  C   UNL     1       0.428   6.026 -10.089  0.00  0.00    +0.381 C 
ATOM     25  O   UNL     1       1.069   7.245  -9.940  0.00  0.00    -0.244 OA
ATOM     26  O   UNL     1      -0.241   5.806 -11.124  0.00  0.00    -0.244 OA
ENDBRANCH  23  24
ENDBRANCH  22  23
BRANCH  22  27
ATOM     27  C   UNL     1      -0.144   5.761  -7.089  0.00  0.00    +0.090 C 
BRANCH  27  28
ATOM     28  C   UNL     1      -0.174   5.018  -5.785  0.00  0.00    +0.091 C 
BRANCH  28  29
ATOM     29  N   UNL     1      -0.518   5.837  -4.654  0.00  0.00    -0.252 NA
BRANCH  29  30
ATOM     30  C   UNL     1      -0.445   7.249  -4.908  0.00  0.00    +0.188 C 
BRANCH  30  31
ATOM     31  C   UNL     1      -1.752   7.922  -4.705  0.00  0.00    +0.381 C 
ATOM     32  O   UNL     1      -2.865   7.474  -5.419  0.00  0.00    -0.244 OA
ATOM     33  O   UNL     1      -1.994   8.320  -3.526  0.00  0.00    -0.244 OA
ENDBRANCH  30  31
ENDBRANCH  29  30
BRANCH  29  34
ATOM     34  C   UNL     1       0.227   5.518  -3.462  0.00  0.00    +0.188 C 
BRANCH  34  35
ATOM     35  C   UNL     1      -0.652   5.385  -2.263  0.00  0.00    +0.381 C 
ATOM     36  O   UNL     1      -0.527   6.231  -1.157  0.00  0.00    -0.244 OA
ATOM     37  O   UNL     1      -1.827   4.965  -2.491  0.00  0.00    -0.244 OA
ENDBRANCH  34  35
ENDBRANCH  29  34
ENDBRANCH  28  29
ENDBRANCH  27  28
ENDBRANCH  22  27
ENDBRANCH  21  22
ENDBRANCH   1  21
TORSDOF 20
ENDMDL
MODEL 2
REMARK VINA RESULT:      -6.6      2.700      7.839
REMARK  Name = 
REMARK  20 active torsions:
REMARK  status: ('A' for Active; 'I' for Inactive)
REMARK    1  A    between atoms: C_2  and  O_3
REMARK    2  A    between atoms: O_3  and  C_4
REMARK    3  A    between atoms: C_7  and  C_8
REMARK    4  A    between atoms: C_8  and  C_9
REMARK    5  A    between atoms: C_9  and  C_10
REMARK    6  A    between atoms: C_9  and  N_27
REMARK    7  A    between atoms: C_10  and  N_11
REMARK    8  A    between atoms: N_11  and  C_12
REMARK    9  A    between atoms: N_11  and  C_23
REMARK   10  A    between atoms: C_12  and  C_13
REMARK   11  A    between atoms: C_13  and  N_14
REMARK   12  A    between atoms: N_14  and  C_15
REMARK   13  A    between atoms: N_14  and  C_19
REMARK   14  A    between atoms: C_15  and  C_16
REMARK   15  A    between atoms: C_19  and  C_20
REMARK   16  A    between atoms: C_23  and  C_24
REMARK   17  A    between atoms: N_27  and  C_28
REMARK   18  A    between atoms: N_27  and  C_32
REMARK   19  A    between atoms: C_28  and  C_29
REMARK   20  A    between atoms: C_32  and  C_33
REMARK                            x       y       z     vdW  Elec       q    Type
REMARK                         _______ _______ _______ _____ _____    ______ ____
ROOT
ATOM      1  C   UNL     1       0.491   5.799  -6.636  0.00  0.00    +0.079 C 
ENDROOT
BRANCH   1   2
ATOM      2  N   UNL     1       0.915   5.162  -8.039  0.00  0.00    -0.253 NA
BRANCH   2   3
ATOM      3  C   UNL     1       2.198   5.649  -8.385  0.00  0.00    +0.188 C 
BRANCH   3   4
ATOM      4  C   UNL     1       3.090   4.545  -8.767  0.00  0.00    +0.381 C 
ATOM      5  O   UNL     1       4.473   4.678  -8.699  0.00  0.00    -0.244 OA
ATOM      6  O   UNL     1       2.615   3.378  -8.672  0.00  0.00    -0.244 OA
ENDBRANCH   3   4
ENDBRANCH   2   3
BRANCH   2   7
ATOM      7  C   UNL     1      -0.014   5.911  -8.888  0.00  0.00    +0.188 C 
BRANCH   7   8
ATOM      8  C   UNL     1       0.135   5.621 -10.316  0.00  0.00    +0.381 C 
ATOM      9  O   UNL     1       0.057   4.352 -10.849  0.00  0.00    -0.244 OA
ATOM     10  O   UNL     1       0.234   6.613 -11.099  0.00  0.00    -0.244 OA
ENDBRANCH   7   8
ENDBRANCH   2   7
ENDBRANCH   1   2
BRANCH   1  11
ATOM     11  C   UNL     1      -1.013   5.079  -6.719  0.00  0.00    +0.044 C 
BRANCH  11  15
ATOM     12  C   UNL     1      -2.263   7.230  -3.405  0.00  0.00    +0.139 A 
ATOM     13  C   UNL     1      -1.709   7.916  -4.478  0.00  0.00    +0.037 A 
ATOM     14  C   UNL     1      -1.389   7.244  -5.638  0.00  0.00    -0.001 A 
ATOM     15  C   UNL     1      -1.885   5.974  -5.904  0.00  0.00    -0.021 A 
ATOM     16  C   UNL     1      -2.669   5.416  -4.908  0.00  0.00    -0.001 A 
ATOM     17  C   UNL     1      -2.900   6.048  -3.697  0.00  0.00    +0.037 A 
BRANCH  12  18
ATOM     18  O   UNL     1      -2.075   7.665  -2.114  0.00  0.00    -0.475 OA
BRANCH  18  20
ATOM     19  C   UNL     1      -1.728   7.191  -0.137  0.00  0.00    +0.051 C 
ATOM     20  C   UNL     1      -2.030   6.801  -0.990  0.00  0.00    +0.206 C 
ENDBRANCH  18  20
ENDBRANCH  12  18
ENDBRANCH  11  15
ENDBRANCH   1  11
BRANCH   1  21
ATOM     21  C   UNL     1       1.082   4.538  -5.707  0.00  0.00    +0.089 C 
BRANCH  21  22
ATOM     22  N   UNL     1       1.684   5.358  -4.664  0.00  0.00    -0.261 NA
BRANCH  22  23
ATOM     23  C   UNL     1       2.124   6.630  -5.166  0.00  0.00    +0.188 C 
BRANCH  23  24
ATOM     24  C   UNL     1       3.609   6.670  -5.026  0.00  0.00    +0.381 C 
ATOM     25  O   UNL     1       4.306   5.544  -5.429  0.00  0.00    -0.244 OA
ATOM     26  O   UNL     1       4.233   7.733  -4.806  0.00  0.00    -0.244 OA
ENDBRANCH  23  24
ENDBRANCH  22  23
BRANCH  22  27
ATOM     27  C   UNL     1       0.926   5.419  -3.457  0.00  0.00    +0.090 C 
BRANCH  27  28
ATOM     28  C   UNL     1       1.237   6.603  -2.587  0.00  0.00    +0.091 C 
BRANCH  28  29
ATOM     29  N   UNL     1       2.251   6.351  -1.599  0.00  0.00    -0.252 NA
BRANCH  29  30
ATOM     30  C   UNL     1       2.215   5.025  -1.047  0.00  0.00    +0.188 C 
BRANCH  30  31
ATOM     31  C   UNL     1       3.550   4.376  -1.062  0.00  0.00    +0.381 C 
ATOM     32  O   UNL     1       3.709   3.134  -0.444  0.00  0.00    -0.244 OA
ATOM     33  O   UNL     1       4.237   4.544  -2.114  0.00  0.00    -0.244 OA
ENDBRANCH  30  31
ENDBRANCH  29  30
BRANCH  29  34
ATOM     34  C   UNL     1       2.273   7.322  -0.534  0.00  0.00    +0.188 C 
BRANCH  34  35
ATOM     35  C   UNL     1       3.398   8.293  -0.676  0.00  0.00    +0.381 C 
ATOM     36  O   UNL     1       3.756   9.167   0.355  0.00  0.00    -0.244 OA
ATOM     37  O   UNL     1       4.354   7.917  -1.420  0.00  0.00    -0.244 OA
ENDBRANCH  34  35
ENDBRANCH  29  34
ENDBRANCH  28  29
ENDBRANCH  27  28
ENDBRANCH  22  27
ENDBRANCH  21  22
ENDBRANCH   1  21
TORSDOF 20
ENDMDL
MODEL 3
REMARK VINA RESULT:      -6.6      2.361      7.444
REMARK  Name = 
REMARK  20 active torsions:
REMARK  status: ('A' for Active; 'I' for Inactive)
REMARK    1  A    between atoms: C_2  and  O_3
REMARK    2  A    between atoms: O_3  and  C_4
REMARK    3  A    between atoms: C_7  and  C_8
REMARK    4  A    between atoms: C_8  and  C_9
REMARK    5  A    between atoms: C_9  and  C_10
REMARK    6  A    between atoms: C_9  and  N_27
REMARK    7  A    between atoms: C_10  and  N_11
REMARK    8  A    between atoms: N_11  and  C_12
REMARK    9  A    between atoms: N_11  and  C_23
REMARK   10  A    between atoms: C_12  and  C_13
REMARK   11  A    between atoms: C_13  and  N_14
REMARK   12  A    between atoms: N_14  and  C_15
REMARK   13  A    between atoms: N_14  and  C_19
REMARK   14  A    between atoms: C_15  and  C_16
REMARK   15  A    between atoms: C_19  and  C_20
REMARK   16  A    between atoms: C_23  and  C_24
REMARK   17  A    between atoms: N_27  and  C_28
REMARK   18  A    between atoms: N_27  and  C_32
REMARK   19  A    between atoms: C_28  and  C_29
REMARK   20  A    between atoms: C_32  and  C_33
REMARK                            x       y       z     vdW  Elec       q    Type
REMARK                         _______ _______ _______ _____ _____    ______ ____
ROOT
ATOM      1  C   UNL     1       1.837   6.032  -6.509  0.00  0.00    +0.079 C 
ENDROOT
BRANCH   1   2
ATOM      2  N   UNL     1       2.464   5.740  -7.951  0.00  0.00    -0.253 NA
BRANCH   2   3
ATOM      3  C   UNL     1       3.853   6.003  -7.899  0.00  0.00    +0.188 C 
BRANCH   3   4
ATOM      4  C   UNL     1       4.605   4.988  -8.652  0.00  0.00    +0.381 C 
ATOM      5  O   UNL     1       3.984   3.839  -9.130  0.00  0.00    -0.244 OA
ATOM      6  O   UNL     1       5.635   5.389  -9.264  0.00  0.00    -0.244 OA
ENDBRANCH   3   4
ENDBRANCH   2   3
BRANCH   2   7
ATOM      7  C   UNL     1       1.889   6.889  -8.655  0.00  0.00    +0.188 C 
BRANCH   7   8
ATOM      8  C   UNL     1       1.407   6.567 -10.001  0.00  0.00    +0.381 C 
ATOM      9  O   UNL     1       2.239   6.249 -11.053  0.00  0.00    -0.244 OA
ATOM     10  O   UNL     1       0.152   6.477 -10.158  0.00  0.00    -0.244 OA
ENDBRANCH   7   8
ENDBRANCH   2   7
ENDBRANCH   1   2
BRANCH   1  11
ATOM     11  C   UNL     1       0.524   5.056  -6.838  0.00  0.00    +0.044 C 
BRANCH  11  15
ATOM     12  C   UNL     1      -2.530   6.643  -4.531  0.00  0.00    +0.139 A 
ATOM     13  C   UNL     1      -1.402   7.417  -4.772  0.00  0.00    +0.037 A 
ATOM     14  C   UNL     1      -0.421   6.963  -5.627  0.00  0.00    -0.001 A 
ATOM     15  C   UNL     1      -0.652   5.912  -6.506  0.00  0.00    -0.021 A 
ATOM     16  C   UNL     1      -1.904   5.326  -6.424  0.00  0.00    -0.001 A 
ATOM     17  C   UNL     1      -2.850   5.712  -5.488  0.00  0.00    +0.037 A 
BRANCH  12  18
ATOM     18  O   UNL     1      -3.212   6.737  -3.340  0.00  0.00    -0.475 OA
BRANCH  18  20
ATOM     19  C   UNL     1      -2.497   5.789  -1.655  0.00  0.00    +0.051 C 
ATOM     20  C   UNL     1      -2.589   6.679  -2.068  0.00  0.00    +0.206 C 
ENDBRANCH  18  20
ENDBRANCH  12  18
ENDBRANCH  11  15
ENDBRANCH   1  11
BRANCH   1  21
ATOM     21  C   UNL     1       2.625   4.773  -5.738  0.00  0.00    +0.089 C 
BRANCH  21  22
ATOM     22  N   UNL     1       2.914   5.482  -4.498  0.00  0.00    -0.261 NA
BRANCH  22  23
ATOM     23  C   UNL     1       3.208   6.869  -4.727  0.00  0.00    +0.188 C 
BRANCH  23  24
ATOM     24  C   UNL     1       4.647   7.077  -4.391  0.00  0.00    +0.381 C 
ATOM     25  O   UNL     1       5.090   8.388  -4.326  0.00  0.00    -0.244 OA
ATOM     26  O   UNL     1       5.368   6.161  -3.935  0.00  0.00    -0.244 OA
ENDBRANCH  23  24
ENDBRANCH  22  23
BRANCH  22  27
ATOM     27  C   UNL     1       1.979   5.232  -3.450  0.00  0.00    +0.090 C 
BRANCH  27  28
ATOM     28  C   UNL     1       1.560   6.455  -2.687  0.00  0.00    +0.091 C 
BRANCH  28  29
ATOM     29  N   UNL     1       1.945   6.438  -1.301  0.00  0.00    -0.252 NA
BRANCH  29  30
ATOM     30  C   UNL     1       3.139   5.685  -1.033  0.00  0.00    +0.188 C 
BRANCH  30  31
ATOM     31  C   UNL     1       4.238   6.543  -0.523  0.00  0.00    +0.381 C 
ATOM     32  O   UNL     1       4.310   7.874  -0.939  0.00  0.00    -0.244 OA
ATOM     33  O   UNL     1       4.595   6.335   0.675  0.00  0.00    -0.244 OA
ENDBRANCH  30  31
ENDBRANCH  29  30
BRANCH  29  34
ATOM     34  C   UNL     1       0.891   6.012  -0.414  0.00  0.00    +0.188 C 
BRANCH  34  35
ATOM     35  C   UNL     1       0.536   7.059   0.588  0.00  0.00    +0.381 C 
ATOM     36  O   UNL     1       1.406   7.420   1.621  0.00  0.00    -0.244 OA
ATOM     37  O   UNL     1      -0.211   7.992   0.162  0.00  0.00    -0.244 OA
ENDBRANCH  34  35
ENDBRANCH  29  34
ENDBRANCH  28  29
ENDBRANCH  27  28
ENDBRANCH  22  27
ENDBRANCH  21  22
ENDBRANCH   1  21
TORSDOF 20
ENDMDL
MODEL 4
REMARK VINA RESULT:      -6.5      2.615      7.751
REMARK  Name = 
REMARK  20 active torsions:
REMARK  status: ('A' for Active; 'I' for Inactive)
REMARK    1  A    between atoms: C_2  and  O_3
REMARK    2  A    between atoms: O_3  and  C_4
REMARK    3  A    between atoms: C_7  and  C_8
REMARK    4  A    between atoms: C_8  and  C_9
REMARK    5  A    between atoms: C_9  and  C_10
REMARK    6  A    between atoms: C_9  and  N_27
REMARK    7  A    between atoms: C_10  and  N_11
REMARK    8  A    between atoms: N_11  and  C_12
REMARK    9  A    between atoms: N_11  and  C_23
REMARK   10  A    between atoms: C_12  and  C_13
REMARK   11  A    between atoms: C_13  and  N_14
REMARK   12  A    between atoms: N_14  and  C_15
REMARK   13  A    between atoms: N_14  and  C_19
REMARK   14  A    between atoms: C_15  and  C_16
REMARK   15  A    between atoms: C_19  and  C_20
REMARK   16  A    between atoms: C_23  and  C_24
REMARK   17  A    between atoms: N_27  and  C_28
REMARK   18  A    between atoms: N_27  and  C_32
REMARK   19  A    between atoms: C_28  and  C_29
REMARK   20  A    between atoms: C_32  and  C_33
REMARK                            x       y       z     vdW  Elec       q    Type
REMARK                         _______ _______ _______ _____ _____    ______ ____
ROOT
ATOM      1  C   UNL     1       0.565   5.821  -6.676  0.00  0.00    +0.079 C 
ENDROOT
BRANCH   1   2
ATOM      2  N   UNL     1       0.978   5.203  -8.092  0.00  0.00    -0.253 NA
BRANCH   2   3
ATOM      3  C   UNL     1       2.216   5.766  -8.484  0.00  0.00    +0.188 C 
BRANCH   3   4
ATOM      4  C   UNL     1       3.152   4.718  -8.916  0.00  0.00    +0.381 C 
ATOM      5  O   UNL     1       2.891   3.373  -8.673  0.00  0.00    -0.244 OA
ATOM      6  O   UNL     1       3.894   4.996  -9.900  0.00  0.00    -0.244 OA
ENDBRANCH   3   4
ENDBRANCH   2   3
BRANCH   2   7
ATOM      7  C   UNL     1      -0.024   5.891  -8.909  0.00  0.00    +0.188 C 
BRANCH   7   8
ATOM      8  C   UNL     1       0.073   5.577 -10.337  0.00  0.00    +0.381 C 
ATOM      9  O   UNL     1       0.381   6.509 -11.304  0.00  0.00    -0.244 OA
ATOM     10  O   UNL     1      -0.030   4.357 -10.668  0.00  0.00    -0.244 OA
ENDBRANCH   7   8
ENDBRANCH   2   7
ENDBRANCH   1   2
BRANCH   1  11
ATOM     11  C   UNL     1      -0.923   5.068  -6.738  0.00  0.00    +0.044 C 
BRANCH  11  15
ATOM     12  C   UNL     1      -2.232   7.238  -3.460  0.00  0.00    +0.139 A 
ATOM     13  C   UNL     1      -1.669   7.919  -4.532  0.00  0.00    +0.037 A 
ATOM     14  C   UNL     1      -1.329   7.239  -5.681  0.00  0.00    -0.001 A 
ATOM     15  C   UNL     1      -1.812   5.963  -5.942  0.00  0.00    -0.021 A 
ATOM     16  C   UNL     1      -2.606   5.408  -4.952  0.00  0.00    -0.001 A 
ATOM     17  C   UNL     1      -2.856   6.050  -3.749  0.00  0.00    +0.037 A 
BRANCH  12  18
ATOM     18  O   UNL     1      -2.064   7.686  -2.170  0.00  0.00    -0.475 OA
BRANCH  18  20
ATOM     19  C   UNL     1      -1.764   7.180  -0.194  0.00  0.00    +0.051 C 
ATOM     20  C   UNL     1      -2.179   6.856  -1.027  0.00  0.00    +0.206 C 
ENDBRANCH  18  20
ENDBRANCH  12  18
ENDBRANCH  11  15
ENDBRANCH   1  11
BRANCH   1  21
ATOM     21  C   UNL     1       1.202   4.568  -5.767  0.00  0.00    +0.089 C 
BRANCH  21  22
ATOM     22  N   UNL     1       1.767   5.393  -4.707  0.00  0.00    -0.261 NA
BRANCH  22  23
ATOM     23  C   UNL     1       2.105   6.709  -5.171  0.00  0.00    +0.188 C 
BRANCH  23  24
ATOM     24  C   UNL     1       3.594   6.811  -5.163  0.00  0.00    +0.381 C 
ATOM     25  O   UNL     1       4.157   7.668  -4.232  0.00  0.00    -0.244 OA
ATOM     26  O   UNL     1       4.325   5.995  -5.768  0.00  0.00    -0.244 OA
ENDBRANCH  23  24
ENDBRANCH  22  23
BRANCH  22  27
ATOM     27  C   UNL     1       1.032   5.357  -3.484  0.00  0.00    +0.090 C 
BRANCH  27  28
ATOM     28  C   UNL     1       1.259   6.541  -2.590  0.00  0.00    +0.091 C 
BRANCH  28  29
ATOM     29  N   UNL     1       1.869   6.212  -1.329  0.00  0.00    -0.252 NA
BRANCH  29  30
ATOM     30  C   UNL     1       2.829   7.178  -0.871  0.00  0.00    +0.188 C 
BRANCH  30  31
ATOM     31  C   UNL     1       2.541   7.642   0.509  0.00  0.00    +0.381 C 
ATOM     32  O   UNL     1       2.878   8.948   0.871  0.00  0.00    -0.244 OA
ATOM     33  O   UNL     1       1.477   7.197   1.033  0.00  0.00    -0.244 OA
ENDBRANCH  30  31
ENDBRANCH  29  30
BRANCH  29  34
ATOM     34  C   UNL     1       2.451   4.893  -1.297  0.00  0.00    +0.188 C 
BRANCH  34  35
ATOM     35  C   UNL     1       3.936   4.927  -1.447  0.00  0.00    +0.381 C 
ATOM     36  O   UNL     1       4.793   4.522  -0.420  0.00  0.00    -0.244 OA
ATOM     37  O   UNL     1       4.371   4.727  -2.622  0.00  0.00    -0.244 OA
ENDBRANCH  34  35
ENDBRANCH  29  34
ENDBRANCH  28  29
ENDBRANCH  27  28
ENDBRANCH  22  27
ENDBRANCH  21  22
ENDBRANCH   1  21
TORSDOF 20
ENDMDL
MODEL 5
REMARK VINA RESULT:      -6.5      2.528      8.364
REMARK  Name = 
REMARK  20 active torsions:
REMARK  status: ('A' for Active; 'I' for Inactive)
REMARK    1  A    between atoms: C_2  and  O_3
REMARK    2  A    between atoms: O_3  and  C_4
REMARK    3  A    between atoms: C_7  and  C_8
REMARK    4  A    between atoms: C_8  and  C_9
REMARK    5  A    between atoms: C_9  and  C_10
REMARK    6  A    between atoms: C_9  and  N_27
REMARK    7  A    between atoms: C_10  and  N_11
REMARK    8  A    between atoms: N_11  and  C_12
REMARK    9  A    between atoms: N_11  and  C_23
REMARK   10  A    between atoms: C_12  and  C_13
REMARK   11  A    between atoms: C_13  and  N_14
REMARK   12  A    between atoms: N_14  and  C_15
REMARK   13  A    between atoms: N_14  and  C_19
REMARK   14  A    between atoms: C_15  and  C_16
REMARK   15  A    between atoms: C_19  and  C_20
REMARK   16  A    between atoms: C_23  and  C_24
REMARK   17  A    between atoms: N_27  and  C_28
REMARK   18  A    between atoms: N_27  and  C_32
REMARK   19  A    between atoms: C_28  and  C_29
REMARK   20  A    between atoms: C_32  and  C_33
REMARK                            x       y       z     vdW  Elec       q    Type
REMARK                         _______ _______ _______ _____ _____    ______ ____
ROOT
ATOM      1  C   UNL     1       0.855   6.392  -4.138  0.00  0.00    +0.079 C 
ENDROOT
BRANCH   1   2
ATOM      2  N   UNL     1      -0.650   5.864  -4.246  0.00  0.00    -0.253 NA
BRANCH   2   3
ATOM      3  C   UNL     1      -1.316   6.606  -5.249  0.00  0.00    +0.188 C 
BRANCH   3   4
ATOM      4  C   UNL     1      -1.949   5.709  -6.228  0.00  0.00    +0.381 C 
ATOM      5  O   UNL     1      -1.203   5.084  -7.222  0.00  0.00    -0.244 OA
ATOM      6  O   UNL     1      -3.019   5.145  -5.865  0.00  0.00    -0.244 OA
ENDBRANCH   3   4
ENDBRANCH   2   3
BRANCH   2   7
ATOM      7  C   UNL     1      -1.145   6.411  -2.981  0.00  0.00    +0.188 C 
BRANCH   7   8
ATOM      8  C   UNL     1      -2.468   5.907  -2.604  0.00  0.00    +0.381 C 
ATOM      9  O   UNL     1      -3.570   6.714  -2.426  0.00  0.00    -0.244 OA
ATOM     10  O   UNL     1      -2.611   4.648  -2.549  0.00  0.00    -0.244 OA
ENDBRANCH   7   8
ENDBRANCH   2   7
ENDBRANCH   1   2
BRANCH   1  11
ATOM     11  C   UNL     1       1.094   5.540  -2.722  0.00  0.00    +0.044 C 
BRANCH  11  15
ATOM     12  C   UNL     1       4.298   6.352  -0.223  0.00  0.00    +0.139 A 
ATOM     13  C   UNL     1       4.218   5.102  -0.823  0.00  0.00    +0.037 A 
ATOM     14  C   UNL     1       3.229   4.840  -1.746  0.00  0.00    -0.001 A 
ATOM     15  C   UNL     1       2.501   5.863  -2.342  0.00  0.00    -0.021 A 
ATOM     16  C   UNL     1       2.798   7.143  -1.908  0.00  0.00    -0.001 A 
ATOM     17  C   UNL     1       3.716   7.395  -0.900  0.00  0.00    +0.037 A 
BRANCH  12  18
ATOM     18  O   UNL     1       4.833   6.500   1.036  0.00  0.00    -0.475 OA
BRANCH  18  20
ATOM     19  C   UNL     1       5.841   7.963   2.083  0.00  0.00    +0.051 C 
ATOM     20  C   UNL     1       4.960   7.747   1.696  0.00  0.00    +0.206 C 
ENDBRANCH  18  20
ENDBRANCH  12  18
ENDBRANCH  11  15
ENDBRANCH   1  11
BRANCH   1  21
ATOM     21  C   UNL     1       1.522   5.151  -5.040  0.00  0.00    +0.089 C 
BRANCH  21  22
ATOM     22  N   UNL     1       2.415   5.978  -5.841  0.00  0.00    -0.261 NA
BRANCH  22  23
ATOM     23  C   UNL     1       3.758   5.472  -5.845  0.00  0.00    +0.188 C 
BRANCH  23  24
ATOM     24  C   UNL     1       4.585   6.407  -5.028  0.00  0.00    +0.381 C 
ATOM     25  O   UNL     1       4.204   7.739  -5.025  0.00  0.00    -0.244 OA
ATOM     26  O   UNL     1       5.416   6.004  -4.183  0.00  0.00    -0.244 OA
ENDBRANCH  23  24
ENDBRANCH  22  23
BRANCH  22  27
ATOM     27  C   UNL     1       1.899   6.320  -7.127  0.00  0.00    +0.090 C 
BRANCH  27  28
ATOM     28  C   UNL     1       2.948   6.546  -8.177  0.00  0.00    +0.091 C 
BRANCH  28  29
ATOM     29  N   UNL     1       2.824   5.683  -9.321  0.00  0.00    -0.252 NA
BRANCH  29  30
ATOM     30  C   UNL     1       1.645   4.862  -9.311  0.00  0.00    +0.188 C 
BRANCH  30  31
ATOM     31  C   UNL     1       0.747   5.161 -10.454  0.00  0.00    +0.381 C 
ATOM     32  O   UNL     1       1.237   5.908 -11.527  0.00  0.00    -0.244 OA
ATOM     33  O   UNL     1      -0.076   4.249 -10.767  0.00  0.00    -0.244 OA
ENDBRANCH  30  31
ENDBRANCH  29  30
BRANCH  29  34
ATOM     34  C   UNL     1       3.987   4.862  -9.553  0.00  0.00    +0.188 C 
BRANCH  34  35
ATOM     35  C   UNL     1       4.903   5.455 -10.571  0.00  0.00    +0.381 C 
ATOM     36  O   UNL     1       6.258   5.678 -10.306  0.00  0.00    -0.244 OA
ATOM     37  O   UNL     1       4.628   5.183 -11.779  0.00  0.00    -0.244 OA
ENDBRANCH  34  35
ENDBRANCH  29  34
ENDBRANCH  28  29
ENDBRANCH  27  28
ENDBRANCH  22  27
ENDBRANCH  21  22
ENDBRANCH   1  21
TORSDOF 20
ENDMDL
MODEL 6
REMARK VINA RESULT:      -6.4      3.194      8.108
REMARK  Name = 
REMARK  20 active torsions:
REMARK  status: ('A' for Active; 'I' for Inactive)
REMARK    1  A    between atoms: C_2  and  O_3
REMARK    2  A    between atoms: O_3  and  C_4
REMARK    3  A    between atoms: C_7  and  C_8
REMARK    4  A    between atoms: C_8  and  C_9
REMARK    5  A    between atoms: C_9  and  C_10
REMARK    6  A    between atoms: C_9  and  N_27
REMARK    7  A    between atoms: C_10  and  N_11
REMARK    8  A    between atoms: N_11  and  C_12
REMARK    9  A    between atoms: N_11  and  C_23
REMARK   10  A    between atoms: C_12  and  C_13
REMARK   11  A    between atoms: C_13  and  N_14
REMARK   12  A    between atoms: N_14  and  C_15
REMARK   13  A    between atoms: N_14  and  C_19
REMARK   14  A    between atoms: C_15  and  C_16
REMARK   15  A    between atoms: C_19  and  C_20
REMARK   16  A    between atoms: C_23  and  C_24
REMARK   17  A    between atoms: N_27  and  C_28
REMARK   18  A    between atoms: N_27  and  C_32
REMARK   19  A    between atoms: C_28  and  C_29
REMARK   20  A    between atoms: C_32  and  C_33
REMARK                            x       y       z     vdW  Elec       q    Type
REMARK                         _______ _______ _______ _____ _____    ______ ____
ROOT
ATOM      1  C   UNL     1       0.395   6.362  -5.725  0.00  0.00    +0.079 C 
ENDROOT
BRANCH   1   2
ATOM      2  N   UNL     1       0.951   5.939  -7.164  0.00  0.00    -0.253 NA
BRANCH   2   3
ATOM      3  C   UNL     1      -0.140   5.526  -7.964  0.00  0.00    +0.188 C 
BRANCH   3   4
ATOM      4  C   UNL     1       0.134   5.773  -9.387  0.00  0.00    +0.381 C 
ATOM      5  O   UNL     1       0.998   6.786  -9.790  0.00  0.00    -0.244 OA
ATOM      6  O   UNL     1      -0.011   4.790 -10.167  0.00  0.00    -0.244 OA
ENDBRANCH   3   4
ENDBRANCH   2   3
BRANCH   2   7
ATOM      7  C   UNL     1       1.617   4.697  -6.763  0.00  0.00    +0.188 C 
BRANCH   7   8
ATOM      8  C   UNL     1       2.699   4.298  -7.666  0.00  0.00    +0.381 C 
ATOM      9  O   UNL     1       2.570   3.317  -8.625  0.00  0.00    -0.244 OA
ATOM     10  O   UNL     1       3.769   4.977  -7.619  0.00  0.00    -0.244 OA
ENDBRANCH   7   8
ENDBRANCH   2   7
ENDBRANCH   1   2
BRANCH   1  11
ATOM     11  C   UNL     1      -1.000   5.477  -5.961  0.00  0.00    +0.044 C 
BRANCH  11  15
ATOM     12  C   UNL     1      -2.473   7.070  -2.431  0.00  0.00    +0.139 A 
ATOM     13  C   UNL     1      -2.125   7.934  -3.460  0.00  0.00    +0.037 A 
ATOM     14  C   UNL     1      -1.740   7.432  -4.684  0.00  0.00    -0.001 A 
ATOM     15  C   UNL     1      -1.988   6.112  -5.040  0.00  0.00    -0.021 A 
ATOM     16  C   UNL     1      -2.592   5.332  -4.068  0.00  0.00    -0.001 A 
ATOM     17  C   UNL     1      -2.878   5.810  -2.799  0.00  0.00    +0.037 A 
BRANCH  12  18
ATOM     18  O   UNL     1      -2.307   7.433  -1.114  0.00  0.00    -0.475 OA
BRANCH  18  20
ATOM     19  C   UNL     1      -1.947   6.860   0.833  0.00  0.00    +0.051 C 
ATOM     20  C   UNL     1      -1.888   6.539  -0.097  0.00  0.00    +0.206 C 
ENDBRANCH  18  20
ENDBRANCH  12  18
ENDBRANCH  11  15
ENDBRANCH   1  11
BRANCH   1  21
ATOM     21  C   UNL     1       1.106   5.089  -4.903  0.00  0.00    +0.089 C 
BRANCH  21  22
ATOM     22  N   UNL     1       1.653   5.875  -3.804  0.00  0.00    -0.261 NA
BRANCH  22  23
ATOM     23  C   UNL     1       2.021   7.199  -4.221  0.00  0.00    +0.188 C 
BRANCH  23  24
ATOM     24  C   UNL     1       3.499   7.319  -4.058  0.00  0.00    +0.381 C 
ATOM     25  O   UNL     1       4.283   6.838  -5.093  0.00  0.00    -0.244 OA
ATOM     26  O   UNL     1       4.019   8.038  -3.175  0.00  0.00    -0.244 OA
ENDBRANCH  23  24
ENDBRANCH  22  23
BRANCH  22  27
ATOM     27  C   UNL     1       0.885   5.815  -2.604  0.00  0.00    +0.090 C 
BRANCH  27  28
ATOM     28  C   UNL     1       1.550   5.079  -1.477  0.00  0.00    +0.091 C 
BRANCH  28  29
ATOM     29  N   UNL     1       2.227   5.935  -0.540  0.00  0.00    -0.252 NA
BRANCH  29  30
ATOM     30  C   UNL     1       1.751   7.290  -0.534  0.00  0.00    +0.188 C 
BRANCH  30  31
ATOM     31  C   UNL     1       1.503   7.790   0.841  0.00  0.00    +0.381 C 
ATOM     32  O   UNL     1       2.428   7.500   1.847  0.00  0.00    -0.244 OA
ATOM     33  O   UNL     1       0.956   8.930   0.928  0.00  0.00    -0.244 OA
ENDBRANCH  30  31
ENDBRANCH  29  30
BRANCH  29  34
ATOM     34  C   UNL     1       3.662   5.924  -0.680  0.00  0.00    +0.188 C 
BRANCH  34  35
ATOM     35  C   UNL     1       4.162   4.654  -1.285  0.00  0.00    +0.381 C 
ATOM     36  O   UNL     1       4.530   4.570  -2.631  0.00  0.00    -0.244 OA
ATOM     37  O   UNL     1       4.805   3.891  -0.501  0.00  0.00    -0.244 OA
ENDBRANCH  34  35
ENDBRANCH  29  34
ENDBRANCH  28  29
ENDBRANCH  27  28
ENDBRANCH  22  27
ENDBRANCH  21  22
ENDBRANCH   1  21
TORSDOF 20
ENDMDL
MODEL 7
REMARK VINA RESULT:      -6.4      2.398      8.111
REMARK  Name = 
REMARK  20 active torsions:
REMARK  status: ('A' for Active; 'I' for Inactive)
REMARK    1  A    between atoms: C_2  and  O_3
REMARK    2  A    between atoms: O_3  and  C_4
REMARK    3  A    between atoms: C_7  and  C_8
REMARK    4  A    between atoms: C_8  and  C_9
REMARK    5  A    between atoms: C_9  and  C_10
REMARK    6  A    between atoms: C_9  and  N_27
REMARK    7  A    between atoms: C_10  and  N_11
REMARK    8  A    between atoms: N_11  and  C_12
REMARK    9  A    between atoms: N_11  and  C_23
REMARK   10  A    between atoms: C_12  and  C_13
REMARK   11  A    between atoms: C_13  and  N_14
REMARK   12  A    between atoms: N_14  and  C_15
REMARK   13  A    between atoms: N_14  and  C_19
REMARK   14  A    between atoms: C_15  and  C_16
REMARK   15  A    between atoms: C_19  and  C_20
REMARK   16  A    between atoms: C_23  and  C_24
REMARK   17  A    between atoms: N_27  and  C_28
REMARK   18  A    between atoms: N_27  and  C_32
REMARK   19  A    between atoms: C_28  and  C_29
REMARK   20  A    between atoms: C_32  and  C_33
REMARK                            x       y       z     vdW  Elec       q    Type
REMARK                         _______ _______ _______ _____ _____    ______ ____
ROOT
ATOM      1  C   UNL     1       1.174   6.441  -3.971  0.00  0.00    +0.079 C 
ENDROOT
BRANCH   1   2
ATOM      2  N   UNL     1      -0.323   6.617  -3.435  0.00  0.00    -0.253 NA
BRANCH   2   3
ATOM      3  C   UNL     1      -0.760   5.379  -2.908  0.00  0.00    +0.188 C 
BRANCH   3   4
ATOM      4  C   UNL     1      -1.934   5.565  -2.043  0.00  0.00    +0.381 C 
ATOM      5  O   UNL     1      -2.123   6.743  -1.328  0.00  0.00    -0.244 OA
ATOM      6  O   UNL     1      -2.963   4.894  -2.338  0.00  0.00    -0.244 OA
ENDBRANCH   3   4
ENDBRANCH   2   3
BRANCH   2   7
ATOM      7  C   UNL     1      -0.988   6.729  -4.735  0.00  0.00    +0.188 C 
BRANCH   7   8
ATOM      8  C   UNL     1      -2.018   7.770  -4.775  0.00  0.00    +0.381 C 
ATOM      9  O   UNL     1      -3.156   7.689  -5.549  0.00  0.00    -0.244 OA
ATOM     10  O   UNL     1      -1.891   8.739  -3.967  0.00  0.00    -0.244 OA
ENDBRANCH   7   8
ENDBRANCH   2   7
ENDBRANCH   1   2
BRANCH   1  11
ATOM     11  C   UNL     1       1.597   5.560  -2.618  0.00  0.00    +0.044 C 
BRANCH  11  15
ATOM     12  C   UNL     1       3.954   8.341  -0.647  0.00  0.00    +0.139 A 
ATOM     13  C   UNL     1       3.814   7.073  -0.098  0.00  0.00    +0.037 A 
ATOM     14  C   UNL     1       3.131   6.093  -0.785  0.00  0.00    -0.001 A 
ATOM     15  C   UNL     1       2.849   6.216  -2.140  0.00  0.00    -0.021 A 
ATOM     16  C   UNL     1       3.249   7.403  -2.730  0.00  0.00    -0.001 A 
ATOM     17  C   UNL     1       3.837   8.433  -2.013  0.00  0.00    +0.037 A 
BRANCH  12  18
ATOM     18  O   UNL     1       4.087   9.450   0.156  0.00  0.00    -0.475 OA
BRANCH  18  20
ATOM     19  C   UNL     1       2.845  11.089   0.300  0.00  0.00    +0.051 C 
ATOM     20  C   UNL     1       3.620  10.740  -0.199  0.00  0.00    +0.206 C 
ENDBRANCH  18  20
ENDBRANCH  12  18
ENDBRANCH  11  15
ENDBRANCH   1  11
BRANCH   1  21
ATOM     21  C   UNL     1       0.868   5.039  -4.833  0.00  0.00    +0.089 C 
BRANCH  21  22
ATOM     22  N   UNL     1       1.788   5.306  -5.931  0.00  0.00    -0.261 NA
BRANCH  22  23
ATOM     23  C   UNL     1       2.928   4.434  -5.901  0.00  0.00    +0.188 C 
BRANCH  23  24
ATOM     24  C   UNL     1       4.079   5.229  -5.383  0.00  0.00    +0.381 C 
ATOM     25  O   UNL     1       4.912   4.603  -4.471  0.00  0.00    -0.244 OA
ATOM     26  O   UNL     1       4.445   6.303  -5.913  0.00  0.00    -0.244 OA
ENDBRANCH  23  24
ENDBRANCH  22  23
BRANCH  22  27
ATOM     27  C   UNL     1       1.157   5.426  -7.205  0.00  0.00    +0.090 C 
BRANCH  27  28
ATOM     28  C   UNL     1       1.705   6.527  -8.067  0.00  0.00    +0.091 C 
BRANCH  28  29
ATOM     29  N   UNL     1       2.367   6.062  -9.257  0.00  0.00    -0.252 NA
BRANCH  29  30
ATOM     30  C   UNL     1       3.775   6.348  -9.295  0.00  0.00    +0.188 C 
BRANCH  30  31
ATOM     31  C   UNL     1       4.598   5.114  -9.259  0.00  0.00    +0.381 C 
ATOM     32  O   UNL     1       5.853   5.151  -8.647  0.00  0.00    -0.244 OA
ATOM     33  O   UNL     1       3.962   4.027  -9.115  0.00  0.00    -0.244 OA
ENDBRANCH  30  31
ENDBRANCH  29  30
BRANCH  29  34
ATOM     34  C   UNL     1       1.746   6.513 -10.477  0.00  0.00    +0.188 C 
BRANCH  34  35
ATOM     35  C   UNL     1       0.618   5.630 -10.897  0.00  0.00    +0.381 C 
ATOM     36  O   UNL     1       0.584   4.270 -10.575  0.00  0.00    -0.244 OA
ATOM     37  O   UNL     1      -0.515   6.193 -10.981  0.00  0.00    -0.244 OA
ENDBRANCH  34  35
ENDBRANCH  29  34
ENDBRANCH  28  29
ENDBRANCH  27  28
ENDBRANCH  22  27
ENDBRANCH  21  22
ENDBRANCH   1  21
TORSDOF 20
ENDMDL
MODEL 8
REMARK VINA RESULT:      -6.4      2.369      8.017
REMARK  Name = 
REMARK  20 active torsions:
REMARK  status: ('A' for Active; 'I' for Inactive)
REMARK    1  A    between atoms: C_2  and  O_3
REMARK    2  A    between atoms: O_3  and  C_4
REMARK    3  A    between atoms: C_7  and  C_8
REMARK    4  A    between atoms: C_8  and  C_9
REMARK    5  A    between atoms: C_9  and  C_10
REMARK    6  A    between atoms: C_9  and  N_27
REMARK    7  A    between atoms: C_10  and  N_11
REMARK    8  A    between atoms: N_11  and  C_12
REMARK    9  A    between atoms: N_11  and  C_23
REMARK   10  A    between atoms: C_12  and  C_13
REMARK   11  A    between atoms: C_13  and  N_14
REMARK   12  A    between atoms: N_14  and  C_15
REMARK   13  A    between atoms: N_14  and  C_19
REMARK   14  A    between atoms: C_15  and  C_16
REMARK   15  A    between atoms: C_19  and  C_20
REMARK   16  A    between atoms: C_23  and  C_24
REMARK   17  A    between atoms: N_27  and  C_28
REMARK   18  A    between atoms: N_27  and  C_32
REMARK   19  A    between atoms: C_28  and  C_29
REMARK   20  A    between atoms: C_32  and  C_33
REMARK                            x       y       z     vdW  Elec       q    Type
REMARK                         _______ _______ _______ _____ _____    ______ ____
ROOT
ATOM      1  C   UNL     1       1.283   6.473  -4.049  0.00  0.00    +0.079 C 
ENDROOT
BRANCH   1   2
ATOM      2  N   UNL     1      -0.248   6.686  -3.640  0.00  0.00    -0.253 NA
BRANCH   2   3
ATOM      3  C   UNL     1      -0.877   5.420  -3.578  0.00  0.00    +0.188 C 
BRANCH   3   4
ATOM      4  C   UNL     1      -1.909   5.402  -2.530  0.00  0.00    +0.381 C 
ATOM      5  O   UNL     1      -2.062   6.467  -1.650  0.00  0.00    -0.244 OA
ATOM      6  O   UNL     1      -2.924   4.682  -2.753  0.00  0.00    -0.244 OA
ENDBRANCH   3   4
ENDBRANCH   2   3
BRANCH   2   7
ATOM      7  C   UNL     1      -0.711   7.276  -4.898  0.00  0.00    +0.188 C 
BRANCH   7   8
ATOM      8  C   UNL     1      -1.923   8.085  -4.752  0.00  0.00    +0.381 C 
ATOM      9  O   UNL     1      -1.955   9.304  -4.110  0.00  0.00    -0.244 OA
ATOM     10  O   UNL     1      -2.965   7.675  -5.347  0.00  0.00    -0.244 OA
ENDBRANCH   7   8
ENDBRANCH   2   7
ENDBRANCH   1   2
BRANCH   1  11
ATOM     11  C   UNL     1       1.584   5.629  -2.641  0.00  0.00    +0.044 C 
BRANCH  11  15
ATOM     12  C   UNL     1       3.838   8.492  -0.670  0.00  0.00    +0.139 A 
ATOM     13  C   UNL     1       3.583   7.286  -0.031  0.00  0.00    +0.037 A 
ATOM     14  C   UNL     1       2.934   6.272  -0.702  0.00  0.00    -0.001 A 
ATOM     15  C   UNL     1       2.805   6.281  -2.085  0.00  0.00    -0.021 A 
ATOM     16  C   UNL     1       3.320   7.393  -2.729  0.00  0.00    -0.001 A 
ATOM     17  C   UNL     1       3.873   8.463  -2.042  0.00  0.00    +0.037 A 
BRANCH  12  18
ATOM     18  O   UNL     1       3.935   9.665   0.043  0.00  0.00    -0.475 OA
BRANCH  18  20
ATOM     19  C   UNL     1       3.762  11.695  -0.270  0.00  0.00    +0.051 C 
ATOM     20  C   UNL     1       3.247  10.855  -0.301  0.00  0.00    +0.206 C 
ENDBRANCH  18  20
ENDBRANCH  12  18
ENDBRANCH  11  15
ENDBRANCH   1  11
BRANCH   1  21
ATOM     21  C   UNL     1       1.023   5.050  -4.890  0.00  0.00    +0.089 C 
BRANCH  21  22
ATOM     22  N   UNL     1       1.967   5.310  -5.969  0.00  0.00    -0.261 NA
BRANCH  22  23
ATOM     23  C   UNL     1       3.102   4.432  -5.914  0.00  0.00    +0.188 C 
BRANCH  23  24
ATOM     24  C   UNL     1       4.247   5.223  -5.375  0.00  0.00    +0.381 C 
ATOM     25  O   UNL     1       5.017   4.619  -4.395  0.00  0.00    -0.244 OA
ATOM     26  O   UNL     1       4.667   6.261  -5.935  0.00  0.00    -0.244 OA
ENDBRANCH  23  24
ENDBRANCH  22  23
BRANCH  22  27
ATOM     27  C   UNL     1       1.365   5.433  -7.257  0.00  0.00    +0.090 C 
BRANCH  27  28
ATOM     28  C   UNL     1       1.539   6.780  -7.898  0.00  0.00    +0.091 C 
BRANCH  28  29
ATOM     29  N   UNL     1       1.956   6.722  -9.273  0.00  0.00    -0.252 NA
BRANCH  29  30
ATOM     30  C   UNL     1       0.872   6.632 -10.212  0.00  0.00    +0.188 C 
BRANCH  30  31
ATOM     31  C   UNL     1       0.895   5.357 -10.971  0.00  0.00    +0.381 C 
ATOM     32  O   UNL     1       0.034   4.325 -10.593  0.00  0.00    -0.244 OA
ATOM     33  O   UNL     1       1.097   5.457 -12.219  0.00  0.00    -0.244 OA
ENDBRANCH  30  31
ENDBRANCH  29  30
BRANCH  29  34
ATOM     34  C   UNL     1       2.920   5.683  -9.541  0.00  0.00    +0.188 C 
BRANCH  34  35
ATOM     35  C   UNL     1       4.324   6.183  -9.475  0.00  0.00    +0.381 C 
ATOM     36  O   UNL     1       5.381   5.367  -9.059  0.00  0.00    -0.244 OA
ATOM     37  O   UNL     1       4.630   7.067 -10.331  0.00  0.00    -0.244 OA
ENDBRANCH  34  35
ENDBRANCH  29  34
ENDBRANCH  28  29
ENDBRANCH  27  28
ENDBRANCH  22  27
ENDBRANCH  21  22
ENDBRANCH   1  21
TORSDOF 20
ENDMDL
MODEL 9
REMARK VINA RESULT:      -6.4      2.650      8.389
REMARK  Name = 
REMARK  20 active torsions:
REMARK  status: ('A' for Active; 'I' for Inactive)
REMARK    1  A    between atoms: C_2  and  O_3
REMARK    2  A    between atoms: O_3  and  C_4
REMARK    3  A    between atoms: C_7  and  C_8
REMARK    4  A    between atoms: C_8  and  C_9
REMARK    5  A    between atoms: C_9  and  C_10
REMARK    6  A    between atoms: C_9  and  N_27
REMARK    7  A    between atoms: C_10  and  N_11
REMARK    8  A    between atoms: N_11  and  C_12
REMARK    9  A    between atoms: N_11  and  C_23
REMARK   10  A    between atoms: C_12  and  C_13
REMARK   11  A    between atoms: C_13  and  N_14
REMARK   12  A    between atoms: N_14  and  C_15
REMARK   13  A    between atoms: N_14  and  C_19
REMARK   14  A    between atoms: C_15  and  C_16
REMARK   15  A    between atoms: C_19  and  C_20
REMARK   16  A    between atoms: C_23  and  C_24
REMARK   17  A    between atoms: N_27  and  C_28
REMARK   18  A    between atoms: N_27  and  C_32
REMARK   19  A    between atoms: C_28  and  C_29
REMARK   20  A    between atoms: C_32  and  C_33
REMARK                            x       y       z     vdW  Elec       q    Type
REMARK                         _______ _______ _______ _____ _____    ______ ____
ROOT
ATOM      1  C   UNL     1       0.897   6.453  -4.023  0.00  0.00    +0.079 C 
ENDROOT
BRANCH   1   2
ATOM      2  N   UNL     1      -0.584   5.866  -4.165  0.00  0.00    -0.253 NA
BRANCH   2   3
ATOM      3  C   UNL     1      -1.231   6.531  -5.232  0.00  0.00    +0.188 C 
BRANCH   3   4
ATOM      4  C   UNL     1      -1.813   5.563  -6.174  0.00  0.00    +0.381 C 
ATOM      5  O   UNL     1      -3.134   5.146  -6.055  0.00  0.00    -0.244 OA
ATOM      6  O   UNL     1      -1.289   5.511  -7.323  0.00  0.00    -0.244 OA
ENDBRANCH   3   4
ENDBRANCH   2   3
BRANCH   2   7
ATOM      7  C   UNL     1      -1.151   6.459  -2.951  0.00  0.00    +0.188 C 
BRANCH   7   8
ATOM      8  C   UNL     1      -2.455   5.903  -2.584  0.00  0.00    +0.381 C 
ATOM      9  O   UNL     1      -3.591   6.666  -2.418  0.00  0.00    -0.244 OA
ATOM     10  O   UNL     1      -2.548   4.640  -2.526  0.00  0.00    -0.244 OA
ENDBRANCH   7   8
ENDBRANCH   2   7
ENDBRANCH   1   2
BRANCH   1  11
ATOM     11  C   UNL     1       1.171   5.538  -2.654  0.00  0.00    +0.044 C 
BRANCH  11  15
ATOM     12  C   UNL     1       4.327   6.453  -0.130  0.00  0.00    +0.139 A 
ATOM     13  C   UNL     1       4.271   5.188  -0.699  0.00  0.00    +0.037 A 
ATOM     14  C   UNL     1       3.299   4.890  -1.630  0.00  0.00    -0.001 A 
ATOM     15  C   UNL     1       2.567   5.888  -2.262  0.00  0.00    -0.021 A 
ATOM     16  C   UNL     1       2.842   7.183  -1.856  0.00  0.00    -0.001 A 
ATOM     17  C   UNL     1       3.742   7.472  -0.841  0.00  0.00    +0.037 A 
BRANCH  12  18
ATOM     18  O   UNL     1       4.841   6.640   1.133  0.00  0.00    -0.475 OA
BRANCH  18  20
ATOM     19  C   UNL     1       6.022   7.880   2.281  0.00  0.00    +0.051 C 
ATOM     20  C   UNL     1       5.288   7.893   1.624  0.00  0.00    +0.206 C 
ENDBRANCH  18  20
ENDBRANCH  12  18
ENDBRANCH  11  15
ENDBRANCH   1  11
BRANCH   1  21
ATOM     21  C   UNL     1       1.618   5.292  -4.988  0.00  0.00    +0.089 C 
BRANCH  21  22
ATOM     22  N   UNL     1       2.441   6.204  -5.772  0.00  0.00    -0.261 NA
BRANCH  22  23
ATOM     23  C   UNL     1       3.706   5.622  -6.123  0.00  0.00    +0.188 C 
BRANCH  23  24
ATOM     24  C   UNL     1       4.624   5.830  -4.966  0.00  0.00    +0.381 C 
ATOM     25  O   UNL     1       5.174   4.695  -4.391  0.00  0.00    -0.244 OA
ATOM     26  O   UNL     1       5.093   6.954  -4.675  0.00  0.00    -0.244 OA
ENDBRANCH  23  24
ENDBRANCH  22  23
BRANCH  22  27
ATOM     27  C   UNL     1       1.751   6.835  -6.850  0.00  0.00    +0.090 C 
BRANCH  27  28
ATOM     28  C   UNL     1       2.632   7.252  -7.991  0.00  0.00    +0.091 C 
BRANCH  28  29
ATOM     29  N   UNL     1       2.475   6.448  -9.174  0.00  0.00    -0.252 NA
BRANCH  29  30
ATOM     30  C   UNL     1       3.627   6.438 -10.033  0.00  0.00    +0.188 C 
BRANCH  30  31
ATOM     31  C   UNL     1       4.509   5.273  -9.772  0.00  0.00    +0.381 C 
ATOM     32  O   UNL     1       5.796   5.493  -9.276  0.00  0.00    -0.244 OA
ATOM     33  O   UNL     1       3.936   4.231  -9.334  0.00  0.00    -0.244 OA
ENDBRANCH  30  31
ENDBRANCH  29  30
BRANCH  29  34
ATOM     34  C   UNL     1       1.299   6.774  -9.941  0.00  0.00    +0.188 C 
BRANCH  34  35
ATOM     35  C   UNL     1       0.759   5.593 -10.677  0.00  0.00    +0.381 C 
ATOM     36  O   UNL     1       1.049   5.365 -12.026  0.00  0.00    -0.244 OA
ATOM     37  O   UNL     1       0.583   4.548  -9.980  0.00  0.00    -0.244 OA
ENDBRANCH  34  35
ENDBRANCH  29  34
ENDBRANCH  28  29
ENDBRANCH  27  28
ENDBRANCH  22  27
ENDBRANCH  21  22
ENDBRANCH   1  21
TORSDOF 20
ENDMDL
