MODEL 1
REMARK VINA RESULT:      -8.0      0.000      0.000
REMARK  Name = 
REMARK  5 active torsions:
REMARK  status: ('A' for Active; 'I' for Inactive)
REMARK    1  A    between atoms: C_6  and  O_7
REMARK    2  A    between atoms: O_7  and  C_8
REMARK    3  A    between atoms: C_8  and  C_10
REMARK    4  A    between atoms: C_10  and  C_12
REMARK    5  A    between atoms: C_10  and  C_18
REMARK                            x       y       z     vdW  Elec       q    Type
REMARK                         _______ _______ _______ _____ _____    ______ ____
ROOT
ATOM      1  C   UNL     1       2.250   5.063  -6.742  0.00  0.00    +0.233 C 
ATOM      2  O   UNL     1       1.639   3.850  -6.380  0.00  0.00    -0.210 OA
ENDROOT
BRANCH   1   3
ATOM      3  C   UNL     1       3.272   5.419  -5.754  0.00  0.00    +0.015 A 
ATOM      4  C   UNL     1       3.755   4.626  -4.748  0.00  0.00    -0.001 A 
ATOM      5  C   UNL     1       4.188   5.205  -3.566  0.00  0.00    -0.000 A 
ATOM      6  C   UNL     1       4.543   6.541  -3.578  0.00  0.00    -0.000 A 
ATOM      7  C   UNL     1       4.470   7.242  -4.769  0.00  0.00    -0.000 A 
ATOM      8  C   UNL     1       3.960   6.620  -5.905  0.00  0.00    -0.001 A 
ENDBRANCH   1   3
BRANCH   1   9
ATOM      9  C   UNL     1       1.193   6.072  -6.991  0.00  0.00    +0.043 C 
ATOM     10  C   UNL     1       0.550   6.681  -5.799  0.00  0.00    +0.003 C 
ATOM     11  C   UNL     1      -0.537   5.687  -5.446  0.00  0.00    +0.000 C 
ATOM     12  C   UNL     1      -1.154   5.464  -6.822  0.00  0.00    +0.000 C 
ATOM     13  C   UNL     1       0.032   5.455  -7.741  0.00  0.00    +0.003 C 
ENDBRANCH   1   9
BRANCH   1  14
ATOM     14  C   UNL     1       2.897   4.797  -8.066  0.00  0.00    +0.349 C 
ATOM     15  O   UNL     1       2.899   3.608  -8.507  0.00  0.00    -0.247 OA
BRANCH  14  16
ATOM     16  O   UNL     1       3.432   5.767  -8.883  0.00  0.00    -0.444 OA
BRANCH  16  20
ATOM     17  C   UNL     1       7.369   6.814 -10.478  0.00  0.00    +0.171 C 
ATOM     18  N   UNL     1       6.207   6.277 -10.695  0.00  0.00    +0.309 N 
ATOM     19  C   UNL     1       5.675   5.702  -9.484  0.00  0.00    +0.153 C 
ATOM     20  C   UNL     1       4.217   5.144 -10.089  0.00  0.00    +0.229 C 
ATOM     21  C   UNL     1       3.965   6.515 -11.012  0.00  0.00    +0.111 C 
ATOM     22  C   UNL     1       5.180   7.295 -10.801  0.00  0.00    +0.113 C 
ATOM     23  C   UNL     1       6.084   5.428 -11.846  0.00  0.00    +0.171 C 
ENDBRANCH  16  20
ENDBRANCH  14  16
ENDBRANCH   1  14
TORSDOF 5
ENDMDL
MODEL 2
REMARK VINA RESULT:      -8.0      2.356      2.901
REMARK  Name = 
REMARK  5 active torsions:
REMARK  status: ('A' for Active; 'I' for Inactive)
REMARK    1  A    between atoms: C_6  and  O_7
REMARK    2  A    between atoms: O_7  and  C_8
REMARK    3  A    between atoms: C_8  and  C_10
REMARK    4  A    between atoms: C_10  and  C_12
REMARK    5  A    between atoms: C_10  and  C_18
REMARK                            x       y       z     vdW  Elec       q    Type
REMARK                         _______ _______ _______ _____ _____    ______ ____
ROOT
ATOM      1  C   UNL     1       1.666   5.076  -6.487  0.00  0.00    +0.233 C 
ATOM      2  O   UNL     1       1.124   3.869  -6.011  0.00  0.00    -0.210 OA
ENDROOT
BRANCH   1   3
ATOM      3  C   UNL     1       2.857   5.427  -5.709  0.00  0.00    +0.015 A 
ATOM      4  C   UNL     1       3.456   4.672  -4.736  0.00  0.00    -0.001 A 
ATOM      5  C   UNL     1       4.113   5.299  -3.689  0.00  0.00    -0.000 A 
ATOM      6  C   UNL     1       4.536   6.602  -3.863  0.00  0.00    -0.000 A 
ATOM      7  C   UNL     1       4.304   7.225  -5.077  0.00  0.00    -0.000 A 
ATOM      8  C   UNL     1       3.577   6.565  -6.062  0.00  0.00    -0.001 A 
ENDBRANCH   1   3
BRANCH   1   9
ATOM      9  C   UNL     1       0.588   6.093  -6.540  0.00  0.00    +0.043 C 
ATOM     10  C   UNL     1       0.403   6.938  -5.333  0.00  0.00    +0.003 C 
ATOM     11  C   UNL     1      -0.492   6.093  -4.452  0.00  0.00    +0.000 C 
ATOM     12  C   UNL     1      -1.552   5.676  -5.466  0.00  0.00    +0.000 C 
ATOM     13  C   UNL     1      -0.762   5.432  -6.717  0.00  0.00    +0.003 C 
ENDBRANCH   1   9
BRANCH   1  14
ATOM     14  C   UNL     1       2.052   4.800  -7.907  0.00  0.00    +0.349 C 
ATOM     15  O   UNL     1       2.543   3.664  -8.188  0.00  0.00    -0.247 OA
BRANCH  14  16
ATOM     16  O   UNL     1       1.847   5.668  -8.955  0.00  0.00    -0.444 OA
BRANCH  16  20
ATOM     17  C   UNL     1       0.765   7.227 -12.897  0.00  0.00    +0.171 C 
ATOM     18  N   UNL     1       0.814   6.203 -12.100  0.00  0.00    +0.309 N 
ATOM     19  C   UNL     1       1.921   6.321 -11.183  0.00  0.00    +0.153 C 
ATOM     20  C   UNL     1       1.683   4.908 -10.318  0.00  0.00    +0.229 C 
ATOM     21  C   UNL     1       0.023   5.102 -10.271  0.00  0.00    +0.111 C 
ATOM     22  C   UNL     1      -0.201   6.302 -11.070  0.00  0.00    +0.113 C 
ATOM     23  C   UNL     1       0.688   4.904 -12.697  0.00  0.00    +0.171 C 
ENDBRANCH  16  20
ENDBRANCH  14  16
ENDBRANCH   1  14
TORSDOF 5
ENDMDL
MODEL 3
REMARK VINA RESULT:      -7.9      2.827      6.708
REMARK  Name = 
REMARK  5 active torsions:
REMARK  status: ('A' for Active; 'I' for Inactive)
REMARK    1  A    between atoms: C_6  and  O_7
REMARK    2  A    between atoms: O_7  and  C_8
REMARK    3  A    between atoms: C_8  and  C_10
REMARK    4  A    between atoms: C_10  and  C_12
REMARK    5  A    between atoms: C_10  and  C_18
REMARK                            x       y       z     vdW  Elec       q    Type
REMARK                         _______ _______ _______ _____ _____    ______ ____
ROOT
ATOM      1  C   UNL     1       2.575   4.911  -8.524  0.00  0.00    +0.233 C 
ATOM      2  O   UNL     1       3.185   3.695  -8.876  0.00  0.00    -0.210 OA
ENDROOT
BRANCH   1   3
ATOM      3  C   UNL     1       1.462   5.191  -9.435  0.00  0.00    +0.015 A 
ATOM      4  C   UNL     1       0.782   4.286 -10.205  0.00  0.00    -0.001 A 
ATOM      5  C   UNL     1       0.242   4.685 -11.417  0.00  0.00    -0.000 A 
ATOM      6  C   UNL     1       0.003   6.031 -11.620  0.00  0.00    -0.000 A 
ATOM      7  C   UNL     1       0.295   6.924 -10.603  0.00  0.00    -0.000 A 
ATOM      8  C   UNL     1       0.902   6.466  -9.438  0.00  0.00    -0.001 A 
ENDBRANCH   1   3
BRANCH   1   9
ATOM      9  C   UNL     1       3.622   5.957  -8.422  0.00  0.00    +0.043 C 
ATOM     10  C   UNL     1       4.083   6.573  -9.692  0.00  0.00    +0.003 C 
ATOM     11  C   UNL     1       5.147   5.611 -10.178  0.00  0.00    +0.000 C 
ATOM     12  C   UNL     1       5.946   5.422  -8.892  0.00  0.00    +0.000 C 
ATOM     13  C   UNL     1       4.891   5.385  -7.827  0.00  0.00    +0.003 C 
ENDBRANCH   1   9
BRANCH   1  14
ATOM     14  C   UNL     1       2.054   4.703  -7.136  0.00  0.00    +0.349 C 
ATOM     15  O   UNL     1       2.091   3.532  -6.649  0.00  0.00    -0.247 OA
BRANCH  14  16
ATOM     16  O   UNL     1       1.599   5.707  -6.313  0.00  0.00    -0.444 OA
BRANCH  16  20
ATOM     17  C   UNL     1      -2.582   6.739  -5.543  0.00  0.00    +0.171 C 
ATOM     18  N   UNL     1      -1.467   6.268  -5.076  0.00  0.00    +0.309 N 
ATOM     19  C   UNL     1      -0.714   5.611  -6.115  0.00  0.00    +0.153 C 
ATOM     20  C   UNL     1       0.623   5.162  -5.213  0.00  0.00    +0.229 C 
ATOM     21  C   UNL     1       0.676   6.616  -4.389  0.00  0.00    +0.111 C 
ATOM     22  C   UNL     1      -0.498   7.328  -4.883  0.00  0.00    +0.113 C 
ATOM     23  C   UNL     1      -1.535   5.526  -3.849  0.00  0.00    +0.171 C 
ENDBRANCH  16  20
ENDBRANCH  14  16
ENDBRANCH   1  14
TORSDOF 5
ENDMDL
MODEL 4
REMARK VINA RESULT:      -7.8      2.458      6.152
REMARK  Name = 
REMARK  5 active torsions:
REMARK  status: ('A' for Active; 'I' for Inactive)
REMARK    1  A    between atoms: C_6  and  O_7
REMARK    2  A    between atoms: O_7  and  C_8
REMARK    3  A    between atoms: C_8  and  C_10
REMARK    4  A    between atoms: C_10  and  C_12
REMARK    5  A    between atoms: C_10  and  C_18
REMARK                            x       y       z     vdW  Elec       q    Type
REMARK                         _______ _______ _______ _____ _____    ______ ____
ROOT
ATOM      1  C   UNL     1       2.889   4.981  -8.553  0.00  0.00    +0.233 C 
ATOM      2  O   UNL     1       3.470   3.741  -8.869  0.00  0.00    -0.210 OA
ENDROOT
BRANCH   1   3
ATOM      3  C   UNL     1       1.693   5.194  -9.372  0.00  0.00    +0.015 A 
ATOM      4  C   UNL     1       1.078   4.277 -10.183  0.00  0.00    -0.001 A 
ATOM      5  C   UNL     1       0.415   4.705 -11.322  0.00  0.00    -0.000 A 
ATOM      6  C   UNL     1       0.005   6.022 -11.390  0.00  0.00    -0.000 A 
ATOM      7  C   UNL     1       0.254   6.857 -10.315  0.00  0.00    -0.000 A 
ATOM      8  C   UNL     1       0.985   6.384  -9.231  0.00  0.00    -0.001 A 
ENDBRANCH   1   3
BRANCH   1   9
ATOM      9  C   UNL     1       3.936   6.029  -8.630  0.00  0.00    +0.043 C 
ATOM     10  C   UNL     1       4.039   6.784  -9.904  0.00  0.00    +0.003 C 
ATOM     11  C   UNL     1       4.919   5.899 -10.761  0.00  0.00    +0.000 C 
ATOM     12  C   UNL     1       6.037   5.590  -9.770  0.00  0.00    +0.000 C 
ATOM     13  C   UNL     1       5.313   5.422  -8.468  0.00  0.00    +0.003 C 
ENDBRANCH   1   9
BRANCH   1  14
ATOM     14  C   UNL     1       2.503   4.879  -7.111  0.00  0.00    +0.349 C 
ATOM     15  O   UNL     1       2.099   3.759  -6.673  0.00  0.00    -0.247 OA
BRANCH  14  16
ATOM     16  O   UNL     1       2.623   5.900  -6.195  0.00  0.00    -0.444 OA
BRANCH  16  20
ATOM     17  C   UNL     1       3.850   8.067  -2.599  0.00  0.00    +0.171 C 
ATOM     18  N   UNL     1       3.807   6.936  -3.234  0.00  0.00    +0.309 N 
ATOM     19  C   UNL     1       2.645   6.872  -4.086  0.00  0.00    +0.153 C 
ATOM     20  C   UNL     1       2.903   5.357  -4.750  0.00  0.00    +0.229 C 
ATOM     21  C   UNL     1       4.546   5.610  -4.932  0.00  0.00    +0.111 C 
ATOM     22  C   UNL     1       4.755   6.923  -4.331  0.00  0.00    +0.113 C 
ATOM     23  C   UNL     1       4.032   5.746  -2.465  0.00  0.00    +0.171 C 
ENDBRANCH  16  20
ENDBRANCH  14  16
ENDBRANCH   1  14
TORSDOF 5
ENDMDL
MODEL 5
REMARK VINA RESULT:      -7.7      2.975      6.384
REMARK  Name = 
REMARK  5 active torsions:
REMARK  status: ('A' for Active; 'I' for Inactive)
REMARK    1  A    between atoms: C_6  and  O_7
REMARK    2  A    between atoms: O_7  and  C_8
REMARK    3  A    between atoms: C_8  and  C_10
REMARK    4  A    between atoms: C_10  and  C_12
REMARK    5  A    between atoms: C_10  and  C_18
REMARK                            x       y       z     vdW  Elec       q    Type
REMARK                         _______ _______ _______ _____ _____    ______ ____
ROOT
ATOM      1  C   UNL     1       2.315   6.572  -7.050  0.00  0.00    +0.233 C 
ATOM      2  O   UNL     1       2.434   7.927  -7.405  0.00  0.00    -0.210 OA
ENDROOT
BRANCH   1   3
ATOM      3  C   UNL     1       3.098   6.304  -5.841  0.00  0.00    +0.015 A 
ATOM      4  C   UNL     1       3.909   7.183  -5.175  0.00  0.00    -0.001 A 
ATOM      5  C   UNL     1       5.022   6.711  -4.498  0.00  0.00    -0.000 A 
ATOM      6  C   UNL     1       5.054   5.380  -4.129  0.00  0.00    -0.000 A 
ATOM      7  C   UNL     1       3.970   4.575  -4.434  0.00  0.00    -0.000 A 
ATOM      8  C   UNL     1       2.914   5.094  -5.178  0.00  0.00    -0.001 A 
ENDBRANCH   1   3
BRANCH   1   9
ATOM      9  C   UNL     1       2.630   5.741  -8.238  0.00  0.00    +0.043 C 
ATOM     10  C   UNL     1       3.776   4.804  -8.118  0.00  0.00    +0.003 C 
ATOM     11  C   UNL     1       4.969   5.671  -8.459  0.00  0.00    +0.000 C 
ATOM     12  C   UNL     1       4.455   6.353  -9.722  0.00  0.00    +0.000 C 
ATOM     13  C   UNL     1       3.010   6.613  -9.415  0.00  0.00    +0.003 C 
ENDBRANCH   1   9
BRANCH   1  14
ATOM     14  C   UNL     1       0.860   6.365  -6.768  0.00  0.00    +0.349 C 
ATOM     15  O   UNL     1       0.220   5.534  -7.482  0.00  0.00    -0.247 OA
BRANCH  14  16
ATOM     16  O   UNL     1       0.172   6.961  -5.736  0.00  0.00    -0.444 OA
BRANCH  16  20
ATOM     17  C   UNL     1      -2.409   7.378  -2.228  0.00  0.00    +0.171 C 
ATOM     18  N   UNL     1      -1.962   6.609  -3.173  0.00  0.00    +0.309 N 
ATOM     19  C   UNL     1      -1.647   7.377  -4.352  0.00  0.00    +0.153 C 
ATOM     20  C   UNL     1      -1.094   6.131  -5.324  0.00  0.00    +0.229 C 
ATOM     21  C   UNL     1      -0.257   5.399  -4.076  0.00  0.00    +0.111 C 
ATOM     22  C   UNL     1      -0.588   6.221  -2.917  0.00  0.00    +0.113 C 
ATOM     23  C   UNL     1      -2.699   5.407  -3.440  0.00  0.00    +0.171 C 
ENDBRANCH  16  20
ENDBRANCH  14  16
ENDBRANCH   1  14
TORSDOF 5
ENDMDL
MODEL 6
REMARK VINA RESULT:      -7.7      1.516      3.943
REMARK  Name = 
REMARK  5 active torsions:
REMARK  status: ('A' for Active; 'I' for Inactive)
REMARK    1  A    between atoms: C_6  and  O_7
REMARK    2  A    between atoms: O_7  and  C_8
REMARK    3  A    between atoms: C_8  and  C_10
REMARK    4  A    between atoms: C_10  and  C_12
REMARK    5  A    between atoms: C_10  and  C_18
REMARK                            x       y       z     vdW  Elec       q    Type
REMARK                         _______ _______ _______ _____ _____    ______ ____
ROOT
ATOM      1  C   UNL     1       2.158   6.522  -6.371  0.00  0.00    +0.233 C 
ATOM      2  O   UNL     1       2.531   7.574  -5.516  0.00  0.00    -0.210 OA
ENDROOT
BRANCH   1   3
ATOM      3  C   UNL     1       0.764   6.148  -6.121  0.00  0.00    +0.015 A 
ATOM      4  C   UNL     1       0.041   5.185  -6.772  0.00  0.00    -0.001 A 
ATOM      5  C   UNL     1      -1.328   5.335  -6.918  0.00  0.00    -0.000 A 
ATOM      6  C   UNL     1      -1.993   6.184  -6.054  0.00  0.00    -0.000 A 
ATOM      7  C   UNL     1      -1.273   6.834  -5.067  0.00  0.00    -0.000 A 
ATOM      8  C   UNL     1       0.111   6.694  -5.019  0.00  0.00    -0.001 A 
ENDBRANCH   1   3
BRANCH   1   9
ATOM      9  C   UNL     1       3.163   5.438  -6.258  0.00  0.00    +0.043 C 
ATOM     10  C   UNL     1       2.892   4.373  -5.259  0.00  0.00    +0.003 C 
ATOM     11  C   UNL     1       3.436   4.957  -3.972  0.00  0.00    +0.000 C 
ATOM     12  C   UNL     1       4.794   5.455  -4.455  0.00  0.00    +0.000 C 
ATOM     13  C   UNL     1       4.502   5.994  -5.824  0.00  0.00    +0.003 C 
ENDBRANCH   1   9
BRANCH   1  14
ATOM     14  C   UNL     1       2.293   7.075  -7.756  0.00  0.00    +0.349 C 
ATOM     15  O   UNL     1       2.094   8.315  -7.932  0.00  0.00    -0.247 OA
BRANCH  14  16
ATOM     16  O   UNL     1       2.691   6.345  -8.854  0.00  0.00    -0.444 OA
BRANCH  16  20
ATOM     17  C   UNL     1       4.306   5.399 -12.808  0.00  0.00    +0.171 C 
ATOM     18  N   UNL     1       4.478   6.000 -11.670  0.00  0.00    +0.309 N 
ATOM     19  C   UNL     1       3.213   6.417 -11.116  0.00  0.00    +0.153 C 
ATOM     20  C   UNL     1       3.775   7.104  -9.696  0.00  0.00    +0.229 C 
ATOM     21  C   UNL     1       4.889   5.886  -9.433  0.00  0.00    +0.111 C 
ATOM     22  C   UNL     1       4.756   5.043 -10.617  0.00  0.00    +0.113 C 
ATOM     23  C   UNL     1       5.500   7.006 -11.610  0.00  0.00    +0.171 C 
ENDBRANCH  16  20
ENDBRANCH  14  16
ENDBRANCH   1  14
TORSDOF 5
ENDMDL
MODEL 7
REMARK VINA RESULT:      -7.5      2.361      4.380
REMARK  Name = 
REMARK  5 active torsions:
REMARK  status: ('A' for Active; 'I' for Inactive)
REMARK    1  A    between atoms: C_6  and  O_7
REMARK    2  A    between atoms: O_7  and  C_8
REMARK    3  A    between atoms: C_8  and  C_10
REMARK    4  A    between atoms: C_10  and  C_12
REMARK    5  A    between atoms: C_10  and  C_18
REMARK                            x       y       z     vdW  Elec       q    Type
REMARK                         _______ _______ _______ _____ _____    ______ ____
ROOT
ATOM      1  C   UNL     1       2.809   6.192  -6.504  0.00  0.00    +0.233 C 
ATOM      2  O   UNL     1       3.104   7.565  -6.430  0.00  0.00    -0.210 OA
ENDROOT
BRANCH   1   3
ATOM      3  C   UNL     1       1.428   5.957  -6.076  0.00  0.00    +0.015 A 
ATOM      4  C   UNL     1       0.665   4.848  -6.329  0.00  0.00    -0.001 A 
ATOM      5  C   UNL     1      -0.709   4.974  -6.451  0.00  0.00    -0.000 A 
ATOM      6  C   UNL     1      -1.322   6.078  -5.891  0.00  0.00    -0.000 A 
ATOM      7  C   UNL     1      -0.546   7.004  -5.216  0.00  0.00    -0.000 A 
ATOM      8  C   UNL     1       0.837   6.855  -5.190  0.00  0.00    -0.001 A 
ENDBRANCH   1   3
BRANCH   1   9
ATOM      9  C   UNL     1       3.862   5.439  -5.781  0.00  0.00    +0.043 C 
ATOM     10  C   UNL     1       3.438   4.681  -4.576  0.00  0.00    +0.003 C 
ATOM     11  C   UNL     1       3.483   5.722  -3.477  0.00  0.00    +0.000 C 
ATOM     12  C   UNL     1       4.848   6.344  -3.752  0.00  0.00    +0.000 C 
ATOM     13  C   UNL     1       4.922   6.380  -5.249  0.00  0.00    +0.003 C 
ENDBRANCH   1   9
BRANCH   1  14
ATOM     14  C   UNL     1       2.958   5.836  -7.950  0.00  0.00    +0.349 C 
ATOM     15  O   UNL     1       3.764   4.906  -8.262  0.00  0.00    -0.247 OA
BRANCH  14  16
ATOM     16  O   UNL     1       2.227   6.396  -8.973  0.00  0.00    -0.444 OA
BRANCH  16  20
ATOM     17  C   UNL     1       1.037   6.792 -13.164  0.00  0.00    +0.171 C 
ATOM     18  N   UNL     1       0.931   6.128 -12.054  0.00  0.00    +0.309 N 
ATOM     19  C   UNL     1       2.150   6.215 -11.287  0.00  0.00    +0.153 C 
ATOM     20  C   UNL     1       1.678   5.309  -9.961  0.00  0.00    +0.229 C 
ATOM     21  C   UNL     1       0.150   5.986  -9.920  0.00  0.00    +0.111 C 
ATOM     22  C   UNL     1       0.134   6.859 -11.089  0.00  0.00    +0.113 C 
ATOM     23  C   UNL     1       0.387   4.802 -12.136  0.00  0.00    +0.171 C 
ENDBRANCH  16  20
ENDBRANCH  14  16
ENDBRANCH   1  14
TORSDOF 5
ENDMDL
MODEL 8
REMARK VINA RESULT:      -7.5      3.414      7.061
REMARK  Name = 
REMARK  5 active torsions:
REMARK  status: ('A' for Active; 'I' for Inactive)
REMARK    1  A    between atoms: C_6  and  O_7
REMARK    2  A    between atoms: O_7  and  C_8
REMARK    3  A    between atoms: C_8  and  C_10
REMARK    4  A    between atoms: C_10  and  C_12
REMARK    5  A    between atoms: C_10  and  C_18
REMARK                            x       y       z     vdW  Elec       q    Type
REMARK                         _______ _______ _______ _____ _____    ______ ____
ROOT
ATOM      1  C   UNL     1       1.455   5.868  -5.109  0.00  0.00    +0.233 C 
ATOM      2  O   UNL     1       1.719   4.525  -5.431  0.00  0.00    -0.210 OA
ENDROOT
BRANCH   1   3
ATOM      3  C   UNL     1       0.101   6.225  -5.538  0.00  0.00    +0.015 A 
ATOM      4  C   UNL     1      -0.631   7.309  -5.133  0.00  0.00    -0.001 A 
ATOM      5  C   UNL     1      -2.013   7.223  -5.077  0.00  0.00    -0.000 A 
ATOM      6  C   UNL     1      -2.643   6.248  -5.827  0.00  0.00    -0.000 A 
ATOM      7  C   UNL     1      -1.874   5.410  -6.617  0.00  0.00    -0.000 A 
ATOM      8  C   UNL     1      -0.487   5.504  -6.574  0.00  0.00    -0.001 A 
ENDBRANCH   1   3
BRANCH   1   9
ATOM      9  C   UNL     1       2.558   6.708  -5.635  0.00  0.00    +0.043 C 
ATOM     10  C   UNL     1       2.377   7.278  -6.995  0.00  0.00    +0.003 C 
ATOM     11  C   UNL     1       2.848   6.162  -7.904  0.00  0.00    +0.000 C 
ATOM     12  C   UNL     1       4.158   5.791  -7.217  0.00  0.00    +0.000 C 
ATOM     13  C   UNL     1       3.832   5.902  -5.758  0.00  0.00    +0.003 C 
ENDBRANCH   1   9
BRANCH   1  14
ATOM     14  C   UNL     1       1.549   5.940  -3.616  0.00  0.00    +0.349 C 
ATOM     15  O   UNL     1       1.079   4.978  -2.936  0.00  0.00    -0.247 OA
BRANCH  14  16
ATOM     16  O   UNL     1       2.177   6.949  -2.921  0.00  0.00    -0.444 OA
BRANCH  16  20
ATOM     17  C   UNL     1       3.229   8.195   1.139  0.00  0.00    +0.171 C 
ATOM     18  N   UNL     1       3.605   7.620   0.038  0.00  0.00    +0.309 N 
ATOM     19  C   UNL     1       2.487   6.989  -0.619  0.00  0.00    +0.153 C 
ATOM     20  C   UNL     1       3.287   6.392  -1.963  0.00  0.00    +0.229 C 
ATOM     21  C   UNL     1       4.202   7.778  -2.154  0.00  0.00    +0.111 C 
ATOM     22  C   UNL     1       3.819   8.598  -1.010  0.00  0.00    +0.113 C 
ATOM     23  C   UNL     1       4.782   6.800   0.098  0.00  0.00    +0.171 C 
ENDBRANCH  16  20
ENDBRANCH  14  16
ENDBRANCH   1  14
TORSDOF 5
ENDMDL
MODEL 9
REMARK VINA RESULT:      -7.4      2.470      5.322
REMARK  Name = 
REMARK  5 active torsions:
REMARK  status: ('A' for Active; 'I' for Inactive)
REMARK    1  A    between atoms: C_6  and  O_7
REMARK    2  A    between atoms: O_7  and  C_8
REMARK    3  A    between atoms: C_8  and  C_10
REMARK    4  A    between atoms: C_10  and  C_12
REMARK    5  A    between atoms: C_10  and  C_18
REMARK                            x       y       z     vdW  Elec       q    Type
REMARK                         _______ _______ _______ _____ _____    ______ ____
ROOT
ATOM      1  C   UNL     1       1.949   6.195  -8.623  0.00  0.00    +0.233 C 
ATOM      2  O   UNL     1       1.730   7.556  -8.896  0.00  0.00    -0.210 OA
ENDROOT
BRANCH   1   3
ATOM      3  C   UNL     1       3.302   5.816  -9.038  0.00  0.00    +0.015 A 
ATOM      4  C   UNL     1       4.022   4.735  -8.605  0.00  0.00    -0.001 A 
ATOM      5  C   UNL     1       5.405   4.811  -8.544  0.00  0.00    -0.000 A 
ATOM      6  C   UNL     1       6.046   5.762  -9.314  0.00  0.00    -0.000 A 
ATOM      7  C   UNL     1       5.289   6.588 -10.127  0.00  0.00    -0.000 A 
ATOM      8  C   UNL     1       3.900   6.507 -10.088  0.00  0.00    -0.001 A 
ENDBRANCH   1   3
BRANCH   1   9
ATOM      9  C   UNL     1       0.835   5.408  -9.207  0.00  0.00    +0.043 C 
ATOM     10  C   UNL     1       1.179   4.467 -10.303  0.00  0.00    +0.003 C 
ATOM     11  C   UNL     1       1.151   5.346 -11.536  0.00  0.00    +0.000 C 
ATOM     12  C   UNL     1      -0.170   6.075 -11.317  0.00  0.00    +0.000 C 
ATOM     13  C   UNL     1      -0.192   6.323  -9.838  0.00  0.00    +0.003 C 
ENDBRANCH   1   9
BRANCH   1  14
ATOM     14  C   UNL     1       1.820   6.065  -7.138  0.00  0.00    +0.349 C 
ATOM     15  O   UNL     1       1.066   5.155  -6.676  0.00  0.00    -0.247 OA
BRANCH  14  16
ATOM     16  O   UNL     1       2.518   6.821  -6.223  0.00  0.00    -0.444 OA
BRANCH  16  20
ATOM     17  C   UNL     1       3.940   8.079  -2.282  0.00  0.00    +0.171 C 
ATOM     18  N   UNL     1       3.946   7.171  -3.210  0.00  0.00    +0.309 N 
ATOM     19  C   UNL     1       2.699   7.172  -3.934  0.00  0.00    +0.153 C 
ATOM     20  C   UNL     1       3.042   5.951  -5.027  0.00  0.00    +0.229 C 
ATOM     21  C   UNL     1       4.608   6.481  -5.277  0.00  0.00    +0.111 C 
ATOM     22  C   UNL     1       4.740   7.596  -4.345  0.00  0.00    +0.113 C 
ATOM     23  C   UNL     1       4.403   5.861  -2.839  0.00  0.00    +0.171 C 
ENDBRANCH  16  20
ENDBRANCH  14  16
ENDBRANCH   1  14
TORSDOF 5
ENDMDL
