MODEL 1
REMARK VINA RESULT:      -8.3      0.000      0.000
REMARK  Name = 
REMARK  3 active torsions:
REMARK  status: ('A' for Active; 'I' for Inactive)
REMARK    1  A    between atoms: C_2  and  C_4
REMARK    2  A    between atoms: N_6  and  C_7
REMARK    3  A    between atoms: C_12  and  N_13
REMARK                            x       y       z     vdW  Elec       q    Type
REMARK                         _______ _______ _______ _____ _____    ______ ____
ROOT
ATOM      1  C   UNL     1      -1.323   5.929  -3.603  0.00  0.00    +0.136 A 
ATOM      2  C   UNL     1      -1.656   5.688  -4.931  0.00  0.00    +0.205 A 
ATOM      3  O   UNL     1      -2.706   6.268  -5.335  0.00  0.00    -0.286 OA
ATOM      4  C   UNL     1      -0.626   5.351  -5.801  0.00  0.00    +0.057 A 
ATOM      5  C   UNL     1       0.676   5.432  -5.376  0.00  0.00    +0.064 A 
ATOM      6  C   UNL     1       1.717   5.540  -6.291  0.00  0.00    +0.034 A 
ATOM      7  C   UNL     1       1.452   5.639  -7.650  0.00  0.00    +0.077 A 
ATOM      8  C   UNL     1       0.145   5.518  -8.080  0.00  0.00    +0.154 A 
ATOM      9  F   UNL     1      -0.108   5.941  -9.353  0.00  0.00    -0.203 F 
ATOM     10  N   UNL     1       0.966   5.641  -4.070  0.00  0.00    -0.328 N 
ATOM     11  C   UNL     1      -0.865   5.340  -7.168  0.00  0.00    +0.036 A 
ATOM     12  C   UNL     1      -0.046   5.653  -3.171  0.00  0.00    +0.086 A 
ENDROOT
BRANCH   7  13
ATOM     13  N   UNL     1       2.498   5.619  -8.615  0.00  0.00    -0.303 N 
ATOM     14  C   UNL     1       3.159   6.847  -8.991  0.00  0.00    +0.110 C 
ATOM     15  C   UNL     1       3.989   6.684 -10.230  0.00  0.00    +0.110 C 
ATOM     16  N   UNL     1       4.778   5.481 -10.252  0.00  0.00    -0.214 NA
ATOM     17  C   UNL     1       4.663   4.706  -9.029  0.00  0.00    +0.110 C 
ATOM     18  C   UNL     1       3.185   4.367  -8.879  0.00  0.00    +0.110 C 
ENDBRANCH   7  13
BRANCH   1  20
ATOM     19  O   UNL     1      -2.706   4.893  -2.055  0.00  0.00    -0.240 OA
ATOM     20  C   UNL     1      -2.461   5.969  -2.674  0.00  0.00    +0.392 C 
ATOM     21  O   UNL     1      -2.603   7.138  -1.924  0.00  0.00    -0.240 OA
ENDBRANCH   1  20
BRANCH  10  22
ATOM     22  C   UNL     1       2.344   5.438  -3.657  0.00  0.00    +0.086 C 
ATOM     23  C   UNL     1       2.699   5.377  -2.213  0.00  0.00    +0.024 C 
ATOM     24  C   UNL     1       3.038   6.637  -3.058  0.00  0.00    +0.024 C 
ENDBRANCH  10  22
TORSDOF 3
ENDMDL
MODEL 2
REMARK VINA RESULT:      -8.1      3.476      6.543
REMARK  Name = 
REMARK  3 active torsions:
REMARK  status: ('A' for Active; 'I' for Inactive)
REMARK    1  A    between atoms: C_2  and  C_4
REMARK    2  A    between atoms: N_6  and  C_7
REMARK    3  A    between atoms: C_12  and  N_13
REMARK                            x       y       z     vdW  Elec       q    Type
REMARK                         _______ _______ _______ _____ _____    ______ ____
ROOT
ATOM      1  C   UNL     1       3.861   5.415  -7.922  0.00  0.00    +0.136 A 
ATOM      2  C   UNL     1       2.533   5.344  -8.324  0.00  0.00    +0.205 A 
ATOM      3  O   UNL     1       2.269   4.418  -9.146  0.00  0.00    -0.286 OA
ATOM      4  C   UNL     1       1.570   5.846  -7.457  0.00  0.00    +0.057 A 
ATOM      5  C   UNL     1       1.932   6.230  -6.189  0.00  0.00    +0.064 A 
ATOM      6  C   UNL     1       0.987   6.310  -5.174  0.00  0.00    +0.034 A 
ATOM      7  C   UNL     1      -0.330   5.934  -5.406  0.00  0.00    +0.077 A 
ATOM      8  C   UNL     1      -0.701   5.586  -6.690  0.00  0.00    +0.154 A 
ATOM      9  F   UNL     1      -1.888   4.922  -6.810  0.00  0.00    -0.203 F 
ATOM     10  N   UNL     1       3.237   6.314  -5.838  0.00  0.00    -0.328 N 
ATOM     11  C   UNL     1       0.229   5.580  -7.697  0.00  0.00    +0.036 A 
ATOM     12  C   UNL     1       4.182   6.128  -6.790  0.00  0.00    +0.086 A 
ENDROOT
BRANCH   7  13
ATOM     13  N   UNL     1      -1.342   6.129  -4.426  0.00  0.00    -0.303 N 
ATOM     14  C   UNL     1      -1.355   5.321  -3.228  0.00  0.00    +0.110 C 
ATOM     15  C   UNL     1      -2.652   5.437  -2.483  0.00  0.00    +0.110 C 
ATOM     16  N   UNL     1      -3.143   6.785  -2.370  0.00  0.00    -0.214 NA
ATOM     17  C   UNL     1      -2.239   7.767  -2.941  0.00  0.00    +0.110 C 
ATOM     18  C   UNL     1      -2.068   7.387  -4.407  0.00  0.00    +0.110 C 
ENDBRANCH   7  13
BRANCH   1  20
ATOM     19  O   UNL     1       4.815   5.969  -9.963  0.00  0.00    -0.240 OA
ATOM     20  C   UNL     1       4.846   5.168  -8.984  0.00  0.00    +0.392 C 
ATOM     21  O   UNL     1       6.121   4.783  -8.565  0.00  0.00    -0.240 OA
ENDBRANCH   1  20
BRANCH  10  22
ATOM     22  C   UNL     1       3.544   6.988  -4.588  0.00  0.00    +0.086 C 
ATOM     23  C   UNL     1       4.854   7.667  -4.397  0.00  0.00    +0.024 C 
ATOM     24  C   UNL     1       4.560   6.307  -3.704  0.00  0.00    +0.024 C 
ENDBRANCH  10  22
TORSDOF 3
ENDMDL
MODEL 3
REMARK VINA RESULT:      -8.0      4.959      8.547
REMARK  Name = 
REMARK  3 active torsions:
REMARK  status: ('A' for Active; 'I' for Inactive)
REMARK    1  A    between atoms: C_2  and  C_4
REMARK    2  A    between atoms: N_6  and  C_7
REMARK    3  A    between atoms: C_12  and  N_13
REMARK                            x       y       z     vdW  Elec       q    Type
REMARK                         _______ _______ _______ _____ _____    ______ ____
ROOT
ATOM      1  C   UNL     1       5.780   5.897 -11.927  0.00  0.00    +0.136 A 
ATOM      2  C   UNL     1       6.146   5.633 -10.612  0.00  0.00    +0.205 A 
ATOM      3  O   UNL     1       7.236   6.160 -10.242  0.00  0.00    -0.286 OA
ATOM      4  C   UNL     1       5.132   5.342  -9.708  0.00  0.00    +0.057 A 
ATOM      5  C   UNL     1       3.821   5.487 -10.088  0.00  0.00    +0.064 A 
ATOM      6  C   UNL     1       2.818   5.641  -9.138  0.00  0.00    +0.034 A 
ATOM      7  C   UNL     1       3.134   5.720  -7.787  0.00  0.00    +0.077 A 
ATOM      8  C   UNL     1       4.448   5.535  -7.404  0.00  0.00    +0.154 A 
ATOM      9  F   UNL     1       4.764   5.939  -6.139  0.00  0.00    -0.203 F 
ATOM     10  N   UNL     1       3.497   5.717 -11.382  0.00  0.00    -0.328 N 
ATOM     11  C   UNL     1       5.416   5.313  -8.350  0.00  0.00    +0.036 A 
ATOM     12  C   UNL     1       4.477   5.685 -12.315  0.00  0.00    +0.086 A 
ENDROOT
BRANCH   7  13
ATOM     13  N   UNL     1       2.122   5.746  -6.788  0.00  0.00    -0.303 N 
ATOM     14  C   UNL     1       1.357   6.951  -6.563  0.00  0.00    +0.110 C 
ATOM     15  C   UNL     1       0.581   6.896  -5.280  0.00  0.00    +0.110 C 
ATOM     16  N   UNL     1      -0.088   5.642  -5.055  0.00  0.00    -0.214 NA
ATOM     17  C   UNL     1       0.067   4.710  -6.158  0.00  0.00    +0.110 C 
ATOM     18  C   UNL     1       1.566   4.489  -6.319  0.00  0.00    +0.110 C 
ENDBRANCH   7  13
BRANCH   1  20
ATOM     19  O   UNL     1       7.326   4.745 -13.217  0.00  0.00    -0.240 OA
ATOM     20  C   UNL     1       6.886   5.887 -12.894  0.00  0.00    +0.392 C 
ATOM     21  O   UNL     1       6.804   6.814 -13.934  0.00  0.00    -0.240 OA
ENDBRANCH   1  20
BRANCH  10  22
ATOM     22  C   UNL     1       2.098   5.582 -11.749  0.00  0.00    +0.086 C 
ATOM     23  C   UNL     1       1.710   5.279 -13.153  0.00  0.00    +0.024 C 
ATOM     24  C   UNL     1       1.519   6.707 -12.571  0.00  0.00    +0.024 C 
ENDBRANCH  10  22
TORSDOF 3
ENDMDL
MODEL 4
REMARK VINA RESULT:      -7.8      3.895      6.408
REMARK  Name = 
REMARK  3 active torsions:
REMARK  status: ('A' for Active; 'I' for Inactive)
REMARK    1  A    between atoms: C_2  and  C_4
REMARK    2  A    between atoms: N_6  and  C_7
REMARK    3  A    between atoms: C_12  and  N_13
REMARK                            x       y       z     vdW  Elec       q    Type
REMARK                         _______ _______ _______ _____ _____    ______ ____
ROOT
ATOM      1  C   UNL     1       1.064   6.234  -9.113  0.00  0.00    +0.136 A 
ATOM      2  C   UNL     1       2.391   6.178  -8.704  0.00  0.00    +0.205 A 
ATOM      3  O   UNL     1       3.190   6.898  -9.371  0.00  0.00    -0.286 OA
ATOM      4  C   UNL     1       2.642   5.844  -7.378  0.00  0.00    +0.057 A 
ATOM      5  C   UNL     1       1.598   5.752  -6.492  0.00  0.00    +0.064 A 
ATOM      6  C   UNL     1       1.815   5.862  -5.123  0.00  0.00    +0.034 A 
ATOM      7  C   UNL     1       3.085   6.139  -4.632  0.00  0.00    +0.077 A 
ATOM      8  C   UNL     1       4.140   6.194  -5.521  0.00  0.00    +0.154 A 
ATOM      9  F   UNL     1       5.283   6.780  -5.058  0.00  0.00    -0.203 F 
ATOM     10  N   UNL     1       0.317   5.784  -6.926  0.00  0.00    -0.328 N 
ATOM     11  C   UNL     1       3.920   6.011  -6.863  0.00  0.00    +0.036 A 
ATOM     12  C   UNL     1       0.080   5.790  -8.259  0.00  0.00    +0.086 A 
ENDROOT
BRANCH   7  13
ATOM     13  N   UNL     1       3.360   6.128  -3.237  0.00  0.00    -0.303 N 
ATOM     14  C   UNL     1       3.996   4.981  -2.633  0.00  0.00    +0.110 C 
ATOM     15  C   UNL     1       3.910   5.010  -1.135  0.00  0.00    +0.110 C 
ATOM     16  N   UNL     1       4.195   6.297  -0.559  0.00  0.00    -0.214 NA
ATOM     17  C   UNL     1       4.581   7.288  -1.546  0.00  0.00    +0.110 C 
ATOM     18  C   UNL     1       3.415   7.392  -2.522  0.00  0.00    +0.110 C 
ENDBRANCH   7  13
BRANCH   1  20
ATOM     19  O   UNL     1       0.750   5.157 -11.143  0.00  0.00    -0.240 OA
ATOM     20  C   UNL     1       0.863   6.279 -10.567  0.00  0.00    +0.392 C 
ATOM     21  O   UNL     1       0.020   7.284 -11.044  0.00  0.00    -0.240 OA
ENDBRANCH   1  20
BRANCH  10  22
ATOM     22  C   UNL     1      -0.715   5.403  -5.976  0.00  0.00    +0.086 C 
ATOM     23  C   UNL     1      -2.143   5.357  -6.390  0.00  0.00    +0.024 C 
ATOM     24  C   UNL     1      -1.616   6.516  -5.499  0.00  0.00    +0.024 C 
ENDBRANCH  10  22
TORSDOF 3
ENDMDL
MODEL 5
REMARK VINA RESULT:      -7.8      4.028      7.463
REMARK  Name = 
REMARK  3 active torsions:
REMARK  status: ('A' for Active; 'I' for Inactive)
REMARK    1  A    between atoms: C_2  and  C_4
REMARK    2  A    between atoms: N_6  and  C_7
REMARK    3  A    between atoms: C_12  and  N_13
REMARK                            x       y       z     vdW  Elec       q    Type
REMARK                         _______ _______ _______ _____ _____    ______ ____
ROOT
ATOM      1  C   UNL     1       2.274   5.451 -12.659  0.00  0.00    +0.136 A 
ATOM      2  C   UNL     1       1.068   5.435 -11.968  0.00  0.00    +0.205 A 
ATOM      3  O   UNL     1       0.229   4.578 -12.372  0.00  0.00    -0.286 OA
ATOM      4  C   UNL     1       1.074   5.888 -10.654  0.00  0.00    +0.057 A 
ATOM      5  C   UNL     1       2.267   6.169 -10.038  0.00  0.00    +0.064 A 
ATOM      6  C   UNL     1       2.364   6.190  -8.651  0.00  0.00    +0.034 A 
ATOM      7  C   UNL     1       1.269   5.858  -7.865  0.00  0.00    +0.077 A 
ATOM      8  C   UNL     1       0.059   5.613  -8.484  0.00  0.00    +0.154 A 
ATOM      9  F   UNL     1      -0.885   4.982  -7.726  0.00  0.00    -0.203 F 
ATOM     10  N   UNL     1       3.421   6.203 -10.746  0.00  0.00    -0.328 N 
ATOM     11  C   UNL     1      -0.036   5.666  -9.851  0.00  0.00    +0.036 A 
ATOM     12  C   UNL     1       3.364   6.071 -12.092  0.00  0.00    +0.086 A 
ENDROOT
BRANCH   7  13
ATOM     13  N   UNL     1       1.302   5.997  -6.449  0.00  0.00    -0.303 N 
ATOM     14  C   UNL     1       1.212   4.828  -5.604  0.00  0.00    +0.110 C 
ATOM     15  C   UNL     1       0.937   5.186  -4.173  0.00  0.00    +0.110 C 
ATOM     16  N   UNL     1       1.721   6.289  -3.686  0.00  0.00    -0.214 NA
ATOM     17  C   UNL     1       2.674   6.784  -4.663  0.00  0.00    +0.110 C 
ATOM     18  C   UNL     1       1.856   7.211  -5.876  0.00  0.00    +0.110 C 
ENDBRANCH   7  13
BRANCH   1  20
ATOM     19  O   UNL     1       2.484   6.262 -14.823  0.00  0.00    -0.240 OA
ATOM     20  C   UNL     1       2.160   5.266 -14.112  0.00  0.00    +0.392 C 
ATOM     21  O   UNL     1       2.555   4.023 -14.609  0.00  0.00    -0.240 OA
ENDBRANCH   1  20
BRANCH  10  22
ATOM     22  C   UNL     1       4.584   6.775 -10.090  0.00  0.00    +0.086 C 
ATOM     23  C   UNL     1       5.688   7.369 -10.891  0.00  0.00    +0.024 C 
ATOM     24  C   UNL     1       5.865   5.984 -10.209  0.00  0.00    +0.024 C 
ENDBRANCH  10  22
TORSDOF 3
ENDMDL
MODEL 6
REMARK VINA RESULT:      -7.6      3.761      7.039
REMARK  Name = 
REMARK  3 active torsions:
REMARK  status: ('A' for Active; 'I' for Inactive)
REMARK    1  A    between atoms: C_2  and  C_4
REMARK    2  A    between atoms: N_6  and  C_7
REMARK    3  A    between atoms: C_12  and  N_13
REMARK                            x       y       z     vdW  Elec       q    Type
REMARK                         _______ _______ _______ _____ _____    ______ ____
ROOT
ATOM      1  C   UNL     1       1.616   5.599 -12.011  0.00  0.00    +0.136 A 
ATOM      2  C   UNL     1       0.650   5.475 -11.019  0.00  0.00    +0.205 A 
ATOM      3  O   UNL     1      -0.244   4.609 -11.245  0.00  0.00    -0.286 OA
ATOM      4  C   UNL     1       1.008   5.834  -9.725  0.00  0.00    +0.057 A 
ATOM      5  C   UNL     1       2.318   6.130  -9.439  0.00  0.00    +0.064 A 
ATOM      6  C   UNL     1       2.796   6.058  -8.136  0.00  0.00    +0.034 A 
ATOM      7  C   UNL     1       1.972   5.618  -7.108  0.00  0.00    +0.077 A 
ATOM      8  C   UNL     1       0.645   5.358  -7.389  0.00  0.00    +0.154 A 
ATOM      9  F   UNL     1      -0.033   4.630  -6.454  0.00  0.00    -0.203 F 
ATOM     10  N   UNL     1       3.228   6.270 -10.432  0.00  0.00    -0.328 N 
ATOM     11  C   UNL     1       0.172   5.502  -8.668  0.00  0.00    +0.036 A 
ATOM     12  C   UNL     1       2.802   6.231 -11.717  0.00  0.00    +0.086 A 
ENDROOT
BRANCH   7  13
ATOM     13  N   UNL     1       2.393   5.658  -5.750  0.00  0.00    -0.303 N 
ATOM     14  C   UNL     1       3.623   5.013  -5.353  0.00  0.00    +0.110 C 
ATOM     15  C   UNL     1       3.736   4.880  -3.864  0.00  0.00    +0.110 C 
ATOM     16  N   UNL     1       3.354   6.063  -3.140  0.00  0.00    -0.214 NA
ATOM     17  C   UNL     1       3.006   7.172  -4.011  0.00  0.00    +0.110 C 
ATOM     18  C   UNL     1       1.851   6.686  -4.878  0.00  0.00    +0.110 C 
ENDBRANCH   7  13
BRANCH   1  20
ATOM     19  O   UNL     1       0.646   6.584 -13.874  0.00  0.00    -0.240 OA
ATOM     20  C   UNL     1       1.107   5.511 -13.387  0.00  0.00    +0.392 C 
ATOM     21  O   UNL     1       1.848   4.722 -14.269  0.00  0.00    -0.240 OA
ENDBRANCH   1  20
BRANCH  10  22
ATOM     22  C   UNL     1       4.511   6.851 -10.078  0.00  0.00    +0.086 C 
ATOM     23  C   UNL     1       5.447   7.320 -11.135  0.00  0.00    +0.024 C 
ATOM     24  C   UNL     1       5.724   5.999 -10.365  0.00  0.00    +0.024 C 
ENDBRANCH  10  22
TORSDOF 3
ENDMDL
MODEL 7
REMARK VINA RESULT:      -7.6      4.334      7.800
REMARK  Name = 
REMARK  3 active torsions:
REMARK  status: ('A' for Active; 'I' for Inactive)
REMARK    1  A    between atoms: C_2  and  C_4
REMARK    2  A    between atoms: N_6  and  C_7
REMARK    3  A    between atoms: C_12  and  N_13
REMARK                            x       y       z     vdW  Elec       q    Type
REMARK                         _______ _______ _______ _____ _____    ______ ____
ROOT
ATOM      1  C   UNL     1       3.807   5.631 -12.427  0.00  0.00    +0.136 A 
ATOM      2  C   UNL     1       2.757   6.039 -11.613  0.00  0.00    +0.205 A 
ATOM      3  O   UNL     1       1.613   5.627 -11.965  0.00  0.00    -0.286 OA
ATOM      4  C   UNL     1       3.049   6.341 -10.288  0.00  0.00    +0.057 A 
ATOM      5  C   UNL     1       4.298   6.069  -9.789  0.00  0.00    +0.064 A 
ATOM      6  C   UNL     1       4.503   5.933  -8.421  0.00  0.00    +0.034 A 
ATOM      7  C   UNL     1       3.433   6.001  -7.539  0.00  0.00    +0.077 A 
ATOM      8  C   UNL     1       2.183   6.312  -8.037  0.00  0.00    +0.154 A 
ATOM      9  F   UNL     1       1.127   6.050  -7.213  0.00  0.00    -0.203 F 
ATOM     10  N   UNL     1       5.307   5.699 -10.613  0.00  0.00    -0.328 N 
ATOM     11  C   UNL     1       2.011   6.514  -9.383  0.00  0.00    +0.036 A 
ATOM     12  C   UNL     1       5.096   5.715 -11.950  0.00  0.00    +0.086 A 
ENDROOT
BRANCH   7  13
ATOM     13  N   UNL     1       3.630   5.996  -6.130  0.00  0.00    -0.303 N 
ATOM     14  C   UNL     1       3.718   7.243  -5.407  0.00  0.00    +0.110 C 
ATOM     15  C   UNL     1       4.244   7.053  -4.015  0.00  0.00    +0.110 C 
ATOM     16  N   UNL     1       3.669   5.932  -3.321  0.00  0.00    -0.214 NA
ATOM     17  C   UNL     1       2.638   5.257  -4.090  0.00  0.00    +0.110 C 
ATOM     18  C   UNL     1       3.305   4.795  -5.380  0.00  0.00    +0.110 C 
ENDBRANCH   7  13
BRANCH   1  20
ATOM     19  O   UNL     1       4.347   6.239 -14.599  0.00  0.00    -0.240 OA
ATOM     20  C   UNL     1       3.515   5.630 -13.866  0.00  0.00    +0.392 C 
ATOM     21  O   UNL     1       3.013   4.438 -14.393  0.00  0.00    -0.240 OA
ENDBRANCH   1  20
BRANCH  10  22
ATOM     22  C   UNL     1       6.650   5.702 -10.059  0.00  0.00    +0.086 C 
ATOM     23  C   UNL     1       7.582   6.827 -10.340  0.00  0.00    +0.024 C 
ATOM     24  C   UNL     1       7.769   5.452 -11.039  0.00  0.00    +0.024 C 
ENDBRANCH  10  22
TORSDOF 3
ENDMDL
MODEL 8
REMARK VINA RESULT:      -7.6      1.969      2.708
REMARK  Name = 
REMARK  3 active torsions:
REMARK  status: ('A' for Active; 'I' for Inactive)
REMARK    1  A    between atoms: C_2  and  C_4
REMARK    2  A    between atoms: N_6  and  C_7
REMARK    3  A    between atoms: C_12  and  N_13
REMARK                            x       y       z     vdW  Elec       q    Type
REMARK                         _______ _______ _______ _____ _____    ______ ____
ROOT
ATOM      1  C   UNL     1       1.016   5.786  -4.320  0.00  0.00    +0.136 A 
ATOM      2  C   UNL     1       1.009   4.934  -5.419  0.00  0.00    +0.205 A 
ATOM      3  O   UNL     1      -0.139   4.647  -5.868  0.00  0.00    -0.286 OA
ATOM      4  C   UNL     1       2.135   4.925  -6.233  0.00  0.00    +0.057 A 
ATOM      5  C   UNL     1       3.124   5.856  -6.035  0.00  0.00    +0.064 A 
ATOM      6  C   UNL     1       4.017   6.171  -7.051  0.00  0.00    +0.034 A 
ATOM      7  C   UNL     1       3.881   5.601  -8.311  0.00  0.00    +0.077 A 
ATOM      8  C   UNL     1       2.911   4.637  -8.498  0.00  0.00    +0.154 A 
ATOM      9  F   UNL     1       2.596   4.348  -9.795  0.00  0.00    -0.203 F 
ATOM     10  N   UNL     1       3.115   6.652  -4.940  0.00  0.00    -0.328 N 
ATOM     11  C   UNL     1       2.082   4.285  -7.464  0.00  0.00    +0.036 A 
ATOM     12  C   UNL     1       2.181   6.436  -3.984  0.00  0.00    +0.086 A 
ENDROOT
BRANCH   7  13
ATOM     13  N   UNL     1       4.855   5.805  -9.328  0.00  0.00    -0.303 N 
ATOM     14  C   UNL     1       4.683   6.867 -10.292  0.00  0.00    +0.110 C 
ATOM     15  C   UNL     1       5.615   6.726 -11.459  0.00  0.00    +0.110 C 
ATOM     16  N   UNL     1       6.964   6.386 -11.091  0.00  0.00    -0.214 NA
ATOM     17  C   UNL     1       7.161   6.322  -9.654  0.00  0.00    +0.110 C 
ATOM     18  C   UNL     1       6.190   5.266  -9.139  0.00  0.00    +0.110 C 
ENDBRANCH   7  13
BRANCH   1  20
ATOM     19  O   UNL     1       0.285   4.809  -2.347  0.00  0.00    -0.240 OA
ATOM     20  C   UNL     1      -0.041   5.534  -3.332  0.00  0.00    +0.392 C 
ATOM     21  O   UNL     1      -0.874   6.613  -3.031  0.00  0.00    -0.240 OA
ENDBRANCH   1  20
BRANCH  10  22
ATOM     22  C   UNL     1       4.325   7.405  -4.659  0.00  0.00    +0.086 C 
ATOM     23  C   UNL     1       5.393   6.828  -3.798  0.00  0.00    +0.024 C 
ATOM     24  C   UNL     1       4.457   7.943  -3.255  0.00  0.00    +0.024 C 
ENDBRANCH  10  22
TORSDOF 3
ENDMDL
MODEL 9
REMARK VINA RESULT:      -7.6      3.680      5.539
REMARK  Name = 
REMARK  3 active torsions:
REMARK  status: ('A' for Active; 'I' for Inactive)
REMARK    1  A    between atoms: C_2  and  C_4
REMARK    2  A    between atoms: N_6  and  C_7
REMARK    3  A    between atoms: C_12  and  N_13
REMARK                            x       y       z     vdW  Elec       q    Type
REMARK                         _______ _______ _______ _____ _____    ______ ____
ROOT
ATOM      1  C   UNL     1       3.832   6.265  -6.529  0.00  0.00    +0.136 A 
ATOM      2  C   UNL     1       2.485   6.118  -6.840  0.00  0.00    +0.205 A 
ATOM      3  O   UNL     1       1.692   6.803  -6.131  0.00  0.00    -0.286 OA
ATOM      4  C   UNL     1       2.162   5.739  -8.138  0.00  0.00    +0.057 A 
ATOM      5  C   UNL     1       3.145   5.689  -9.095  0.00  0.00    +0.064 A 
ATOM      6  C   UNL     1       2.825   5.754 -10.446  0.00  0.00    +0.034 A 
ATOM      7  C   UNL     1       1.509   5.942 -10.849  0.00  0.00    +0.077 A 
ATOM      8  C   UNL     1       0.518   5.953  -9.888  0.00  0.00    +0.154 A 
ATOM      9  F   UNL     1      -0.689   6.457 -10.279  0.00  0.00    -0.203 F 
ATOM     10  N   UNL     1       4.449   5.810  -8.754  0.00  0.00    -0.328 N 
ATOM     11  C   UNL     1       0.844   5.815  -8.563  0.00  0.00    +0.036 A 
ATOM     12  C   UNL     1       4.779   5.862  -7.442  0.00  0.00    +0.086 A 
ENDROOT
BRANCH   7  13
ATOM     13  N   UNL     1       1.137   5.882 -12.221  0.00  0.00    -0.303 N 
ATOM     14  C   UNL     1       1.704   6.815 -13.167  0.00  0.00    +0.110 C 
ATOM     15  C   UNL     1       0.965   6.815 -14.473  0.00  0.00    +0.110 C 
ATOM     16  N   UNL     1       0.643   5.501 -14.961  0.00  0.00    -0.214 NA
ATOM     17  C   UNL     1       1.168   4.439 -14.121  0.00  0.00    +0.110 C 
ATOM     18  C   UNL     1       0.562   4.652 -12.739  0.00  0.00    +0.110 C 
ENDBRANCH   7  13
BRANCH   1  20
ATOM     19  O   UNL     1       4.676   5.335  -4.578  0.00  0.00    -0.240 OA
ATOM     20  C   UNL     1       4.131   6.355  -5.094  0.00  0.00    +0.392 C 
ATOM     21  O   UNL     1       4.613   7.584  -4.640  0.00  0.00    -0.240 OA
ENDBRANCH   1  20
BRANCH  10  22
ATOM     22  C   UNL     1       5.433   5.471  -9.769  0.00  0.00    +0.086 C 
ATOM     23  C   UNL     1       6.888   5.569  -9.473  0.00  0.00    +0.024 C 
ATOM     24  C   UNL     1       6.190   6.631 -10.368  0.00  0.00    +0.024 C 
ENDBRANCH  10  22
TORSDOF 3
ENDMDL
