MODEL 1
REMARK VINA RESULT:      -7.2      0.000      0.000
REMARK  Name = 
REMARK  10 active torsions:
REMARK  status: ('A' for Active; 'I' for Inactive)
REMARK    1  A    between atoms: C_2  and  C_3
REMARK    2  A    between atoms: C_3  and  C_4
REMARK    3  A    between atoms: C_4  and  O_6
REMARK    4  A    between atoms: O_6  and  C_7
REMARK    5  A    between atoms: C_7  and  O_8
REMARK    6  A    between atoms: O_8  and  C_9
REMARK    7  A    between atoms: C_9  and  C_11
REMARK    8  A    between atoms: C_17  and  C_18
REMARK    9  A    between atoms: C_18  and  O_20
REMARK   10  A    between atoms: C_22  and  C_23
REMARK                            x       y       z     vdW  Elec       q    Type
REMARK                         _______ _______ _______ _____ _____    ______ ____
ROOT
ATOM      1  C   UNL     1       2.578   5.868  -2.634  0.00  0.00    +0.073 C 
ATOM      2  C   UNL     1       1.301   6.815  -3.059  0.00  0.00    +0.082 C 
ATOM      3  C   UNL     1       0.468   6.376  -1.717  0.00  0.00    +0.073 C 
ATOM      4  C   UNL     1       0.990   7.036  -0.676  0.00  0.00    +0.051 C 
ATOM      5  C   UNL     1       0.094   6.975   0.523  0.00  0.00    +0.049 C 
ATOM      6  N   UNL     1       2.419   7.152  -0.568  0.00  0.00    -0.221 NA
ATOM      7  C   UNL     1       3.107   6.264  -1.466  0.00  0.00    +0.051 C 
ATOM      8  C   UNL     1       4.466   5.723  -1.138  0.00  0.00    +0.049 C 
ENDROOT
BRANCH   2   9
ATOM      9  C   UNL     1       0.597   5.668  -4.007  0.00  0.00    -0.002 A 
ATOM     10  C   UNL     1      -0.486   6.200  -4.705  0.00  0.00    +0.065 A 
ATOM     11 CL   UNL     1      -1.081   7.835  -4.416  0.00  0.00    -0.082 Cl
ATOM     12  C   UNL     1      -0.837   5.661  -5.938  0.00  0.00    +0.068 A 
ATOM     13 CL   UNL     1      -2.457   6.001  -6.536  0.00  0.00    -0.081 Cl
ATOM     14  C   UNL     1      -0.017   4.762  -6.608  0.00  0.00    +0.012 A 
ATOM     15  C   UNL     1       1.148   4.361  -5.968  0.00  0.00    +0.001 A 
ATOM     16  C   UNL     1       1.478   4.952  -4.770  0.00  0.00    -0.003 A 
ENDBRANCH   2   9
BRANCH   3  17
ATOM     17  C   UNL     1      -0.110   5.083  -1.632  0.00  0.00    +0.339 C 
ATOM     18  O   UNL     1       0.509   4.005  -1.370  0.00  0.00    -0.245 OA
BRANCH  17  19
ATOM     19  O   UNL     1      -1.434   4.880  -2.037  0.00  0.00    -0.442 OA
ATOM     20  C   UNL     1      -2.420   5.810  -1.595  0.00  0.00    +0.256 C 
ENDBRANCH  17  19
ENDBRANCH   3  17
BRANCH   1  21
ATOM     21  C   UNL     1       3.596   5.890  -3.706  0.00  0.00    +0.341 C 
ATOM     22  O   UNL     1       4.024   4.817  -4.231  0.00  0.00    -0.245 OA
BRANCH  21  23
ATOM     23  O   UNL     1       3.599   7.002  -4.517  0.00  0.00    -0.405 OA
BRANCH  23  24
ATOM     24  C   UNL     1       3.971   6.960  -5.892  0.00  0.00    +0.433 C 
BRANCH  24  25
ATOM     25  O   UNL     1       2.942   7.534  -6.688  0.00  0.00    -0.408 OA
BRANCH  25  26
ATOM     26  C   UNL     1       2.705   7.144  -8.005  0.00  0.00    +0.320 C 
ATOM     27  O   UNL     1       1.656   7.553  -8.576  0.00  0.00    -0.250 OA
BRANCH  26  28
ATOM     28  C   UNL     1       3.740   6.340  -8.728  0.00  0.00    +0.110 C 
BRANCH  28  30
ATOM     29  C   UNL     1       3.465   4.210  -8.836  0.00  0.00    +0.001 C 
ATOM     30  C   UNL     1       3.051   5.050  -9.158  0.00  0.00    +0.012 C 
ENDBRANCH  28  30
ENDBRANCH  26  28
ENDBRANCH  25  26
ENDBRANCH  24  25
ENDBRANCH  23  24
ENDBRANCH  21  23
ENDBRANCH   1  21
TORSDOF 10
ENDMDL
MODEL 2
REMARK VINA RESULT:      -7.2      1.839      2.827
REMARK  Name = 
REMARK  10 active torsions:
REMARK  status: ('A' for Active; 'I' for Inactive)
REMARK    1  A    between atoms: C_2  and  C_3
REMARK    2  A    between atoms: C_3  and  C_4
REMARK    3  A    between atoms: C_4  and  O_6
REMARK    4  A    between atoms: O_6  and  C_7
REMARK    5  A    between atoms: C_7  and  O_8
REMARK    6  A    between atoms: O_8  and  C_9
REMARK    7  A    between atoms: C_9  and  C_11
REMARK    8  A    between atoms: C_17  and  C_18
REMARK    9  A    between atoms: C_18  and  O_20
REMARK   10  A    between atoms: C_22  and  C_23
REMARK                            x       y       z     vdW  Elec       q    Type
REMARK                         _______ _______ _______ _____ _____    ______ ____
ROOT
ATOM      1  C   UNL     1       3.568   6.729  -4.434  0.00  0.00    +0.073 C 
ATOM      2  C   UNL     1       2.061   7.247  -4.024  0.00  0.00    +0.082 C 
ATOM      3  C   UNL     1       2.273   6.777  -2.468  0.00  0.00    +0.073 C 
ATOM      4  C   UNL     1       3.065   7.677  -1.871  0.00  0.00    +0.051 C 
ATOM      5  C   UNL     1       3.040   7.535  -0.381  0.00  0.00    +0.049 C 
ATOM      6  N   UNL     1       4.211   8.177  -2.582  0.00  0.00    -0.221 NA
ATOM      7  C   UNL     1       4.512   7.395  -3.751  0.00  0.00    +0.051 C 
ATOM      8  C   UNL     1       5.912   7.275  -4.269  0.00  0.00    +0.049 C 
ENDROOT
BRANCH   2   9
ATOM      9  C   UNL     1       1.317   5.845  -4.463  0.00  0.00    -0.002 A 
ATOM     10  C   UNL     1       0.064   6.102  -5.018  0.00  0.00    +0.065 A 
ATOM     11 CL   UNL     1      -0.642   7.718  -5.039  0.00  0.00    -0.082 Cl
ATOM     12  C   UNL     1      -0.460   5.224  -5.960  0.00  0.00    +0.068 A 
ATOM     13 CL   UNL     1      -2.194   5.295  -6.253  0.00  0.00    -0.081 Cl
ATOM     14  C   UNL     1       0.308   4.220  -6.537  0.00  0.00    +0.012 A 
ATOM     15  C   UNL     1       1.614   4.077  -6.088  0.00  0.00    +0.001 A 
ATOM     16  C   UNL     1       2.106   4.994  -5.189  0.00  0.00    -0.003 A 
ENDBRANCH   2   9
BRANCH   3  17
ATOM     17  C   UNL     1       2.238   5.399  -2.131  0.00  0.00    +0.339 C 
ATOM     18  O   UNL     1       1.270   4.792  -1.576  0.00  0.00    -0.245 OA
BRANCH  17  19
ATOM     19  O   UNL     1       3.401   4.626  -2.223  0.00  0.00    -0.442 OA
ATOM     20  C   UNL     1       4.068   4.273  -1.014  0.00  0.00    +0.256 C 
ENDBRANCH  17  19
ENDBRANCH   3  17
BRANCH   1  21
ATOM     21  C   UNL     1       3.769   6.882  -5.891  0.00  0.00    +0.341 C 
ATOM     22  O   UNL     1       4.352   5.986  -6.575  0.00  0.00    -0.245 OA
BRANCH  21  23
ATOM     23  O   UNL     1       2.828   7.633  -6.558  0.00  0.00    -0.405 OA
BRANCH  23  24
ATOM     24  C   UNL     1       2.693   7.626  -7.977  0.00  0.00    +0.433 C 
BRANCH  24  25
ATOM     25  O   UNL     1       1.457   7.022  -8.341  0.00  0.00    -0.408 OA
BRANCH  25  26
ATOM     26  C   UNL     1       1.353   6.083  -9.366  0.00  0.00    +0.320 C 
ATOM     27  O   UNL     1       2.399   5.487  -9.746  0.00  0.00    -0.250 OA
BRANCH  26  28
ATOM     28  C   UNL     1       0.003   5.743  -9.913  0.00  0.00    +0.110 C 
BRANCH  28  30
ATOM     29  C   UNL     1      -0.336   7.307 -11.350  0.00  0.00    +0.001 C 
ATOM     30  C   UNL     1      -0.057   6.357 -11.307  0.00  0.00    +0.012 C 
ENDBRANCH  28  30
ENDBRANCH  26  28
ENDBRANCH  25  26
ENDBRANCH  24  25
ENDBRANCH  23  24
ENDBRANCH  21  23
ENDBRANCH   1  21
TORSDOF 10
ENDMDL
MODEL 3
REMARK VINA RESULT:      -7.1      2.718      4.974
REMARK  Name = 
REMARK  10 active torsions:
REMARK  status: ('A' for Active; 'I' for Inactive)
REMARK    1  A    between atoms: C_2  and  C_3
REMARK    2  A    between atoms: C_3  and  C_4
REMARK    3  A    between atoms: C_4  and  O_6
REMARK    4  A    between atoms: O_6  and  C_7
REMARK    5  A    between atoms: C_7  and  O_8
REMARK    6  A    between atoms: O_8  and  C_9
REMARK    7  A    between atoms: C_9  and  C_11
REMARK    8  A    between atoms: C_17  and  C_18
REMARK    9  A    between atoms: C_18  and  O_20
REMARK   10  A    between atoms: C_22  and  C_23
REMARK                            x       y       z     vdW  Elec       q    Type
REMARK                         _______ _______ _______ _____ _____    ______ ____
ROOT
ATOM      1  C   UNL     1       1.522   6.507  -1.684  0.00  0.00    +0.073 C 
ATOM      2  C   UNL     1       2.730   5.642  -2.389  0.00  0.00    +0.082 C 
ATOM      3  C   UNL     1       3.870   6.656  -1.789  0.00  0.00    +0.073 C 
ATOM      4  C   UNL     1       4.027   6.374  -0.489  0.00  0.00    +0.051 C 
ATOM      5  C   UNL     1       5.271   6.996   0.066  0.00  0.00    +0.049 C 
ATOM      6  N   UNL     1       2.862   6.125   0.316  0.00  0.00    -0.221 NA
ATOM      7  C   UNL     1       1.647   6.515  -0.348  0.00  0.00    +0.051 C 
ATOM      8  C   UNL     1       0.444   6.960   0.427  0.00  0.00    +0.049 C 
ENDROOT
BRANCH   2   9
ATOM      9  C   UNL     1       2.630   6.429  -3.832  0.00  0.00    -0.002 A 
ATOM     10  C   UNL     1       3.475   5.844  -4.774  0.00  0.00    +0.065 A 
ATOM     11 CL   UNL     1       4.609   4.560  -4.353  0.00  0.00    -0.082 Cl
ATOM     12  C   UNL     1       3.147   5.913  -6.123  0.00  0.00    +0.068 A 
ATOM     13 CL   UNL     1       4.438   5.624  -7.284  0.00  0.00    -0.081 Cl
ATOM     14  C   UNL     1       1.900   6.346  -6.556  0.00  0.00    +0.012 A 
ATOM     15  C   UNL     1       1.003   6.777  -5.588  0.00  0.00    +0.001 A 
ATOM     16  C   UNL     1       1.351   6.650  -4.263  0.00  0.00    -0.003 A 
ENDBRANCH   2   9
BRANCH   3  17
ATOM     17  C   UNL     1       4.036   7.949  -2.349  0.00  0.00    +0.339 C 
ATOM     18  O   UNL     1       4.987   8.316  -3.108  0.00  0.00    -0.245 OA
BRANCH  17  19
ATOM     19  O   UNL     1       3.222   9.006  -1.926  0.00  0.00    -0.442 OA
ATOM     20  C   UNL     1       3.695   9.833  -0.866  0.00  0.00    +0.256 C 
ENDBRANCH  17  19
ENDBRANCH   3  17
BRANCH   1  21
ATOM     21  C   UNL     1       0.211   5.954  -2.085  0.00  0.00    +0.341 C 
ATOM     22  O   UNL     1      -0.067   4.727  -1.917  0.00  0.00    -0.245 OA
BRANCH  21  23
ATOM     23  O   UNL     1      -0.854   6.825  -2.045  0.00  0.00    -0.405 OA
BRANCH  23  24
ATOM     24  C   UNL     1      -2.207   6.392  -1.932  0.00  0.00    +0.433 C 
BRANCH  24  25
ATOM     25  O   UNL     1      -2.981   6.949  -2.988  0.00  0.00    -0.408 OA
BRANCH  25  26
ATOM     26  C   UNL     1      -2.599   6.862  -4.325  0.00  0.00    +0.320 C 
ATOM     27  O   UNL     1      -2.318   7.927  -4.943  0.00  0.00    -0.250 OA
BRANCH  26  28
ATOM     28  C   UNL     1      -2.440   5.514  -4.956  0.00  0.00    +0.110 C 
BRANCH  28  30
ATOM     29  C   UNL     1      -1.708   5.234  -6.959  0.00  0.00    +0.001 C 
ATOM     30  C   UNL     1      -2.389   5.753  -6.460  0.00  0.00    +0.012 C 
ENDBRANCH  28  30
ENDBRANCH  26  28
ENDBRANCH  25  26
ENDBRANCH  24  25
ENDBRANCH  23  24
ENDBRANCH  21  23
ENDBRANCH   1  21
TORSDOF 10
ENDMDL
MODEL 4
REMARK VINA RESULT:      -7.0      2.762      6.652
REMARK  Name = 
REMARK  10 active torsions:
REMARK  status: ('A' for Active; 'I' for Inactive)
REMARK    1  A    between atoms: C_2  and  C_3
REMARK    2  A    between atoms: C_3  and  C_4
REMARK    3  A    between atoms: C_4  and  O_6
REMARK    4  A    between atoms: O_6  and  C_7
REMARK    5  A    between atoms: C_7  and  O_8
REMARK    6  A    between atoms: O_8  and  C_9
REMARK    7  A    between atoms: C_9  and  C_11
REMARK    8  A    between atoms: C_17  and  C_18
REMARK    9  A    between atoms: C_18  and  O_20
REMARK   10  A    between atoms: C_22  and  C_23
REMARK                            x       y       z     vdW  Elec       q    Type
REMARK                         _______ _______ _______ _____ _____    ______ ____
ROOT
ATOM      1  C   UNL     1       0.683   6.036  -5.559  0.00  0.00    +0.073 C 
ATOM      2  C   UNL     1       1.970   6.842  -4.925  0.00  0.00    +0.082 C 
ATOM      3  C   UNL     1       3.026   5.913  -5.767  0.00  0.00    +0.073 C 
ATOM      4  C   UNL     1       3.016   6.330  -7.040  0.00  0.00    +0.051 C 
ATOM      5  C   UNL     1       4.181   5.788  -7.809  0.00  0.00    +0.049 C 
ATOM      6  N   UNL     1       1.758   6.643  -7.661  0.00  0.00    -0.221 NA
ATOM      7  C   UNL     1       0.638   6.169  -6.894  0.00  0.00    +0.051 C 
ATOM      8  C   UNL     1      -0.653   5.787  -7.553  0.00  0.00    +0.049 C 
ENDROOT
BRANCH   2   9
ATOM      9  C   UNL     1       2.056   5.909  -3.572  0.00  0.00    -0.002 A 
ATOM     10  C   UNL     1       2.789   6.550  -2.574  0.00  0.00    +0.065 A 
ATOM     11 CL   UNL     1       3.641   8.068  -2.861  0.00  0.00    -0.082 Cl
ATOM     12  C   UNL     1       2.508   6.282  -1.239  0.00  0.00    +0.068 A 
ATOM     13 CL   UNL     1       3.743   6.700  -0.056  0.00  0.00    -0.081 Cl
ATOM     14  C   UNL     1       1.379   5.571  -0.853  0.00  0.00    +0.012 A 
ATOM     15  C   UNL     1       0.564   5.072  -1.860  0.00  0.00    +0.001 A 
ATOM     16  C   UNL     1       0.853   5.399  -3.165  0.00  0.00    -0.003 A 
ENDBRANCH   2   9
BRANCH   3  17
ATOM     17  C   UNL     1       3.265   4.572  -5.370  0.00  0.00    +0.339 C 
ATOM     18  O   UNL     1       2.588   3.558  -5.725  0.00  0.00    -0.245 OA
BRANCH  17  19
ATOM     19  O   UNL     1       4.195   4.295  -4.362  0.00  0.00    -0.442 OA
ATOM     20  C   UNL     1       5.376   5.090  -4.304  0.00  0.00    +0.256 C 
ENDBRANCH  17  19
ENDBRANCH   3  17
BRANCH   1  21
ATOM     21  C   UNL     1      -0.567   6.525  -4.940  0.00  0.00    +0.341 C 
ATOM     22  O   UNL     1      -0.910   7.745  -5.020  0.00  0.00    -0.245 OA
BRANCH  21  23
ATOM     23  O   UNL     1      -1.595   5.615  -4.846  0.00  0.00    -0.405 OA
BRANCH  23  24
ATOM     24  C   UNL     1      -2.968   5.993  -4.821  0.00  0.00    +0.433 C 
BRANCH  24  25
ATOM     25  O   UNL     1      -3.547   5.628  -3.574  0.00  0.00    -0.408 OA
BRANCH  25  26
ATOM     26  C   UNL     1      -2.912   5.861  -2.355  0.00  0.00    +0.320 C 
ATOM     27  O   UNL     1      -2.582   4.869  -1.647  0.00  0.00    -0.250 OA
BRANCH  26  28
ATOM     28  C   UNL     1      -2.558   7.263  -1.970  0.00  0.00    +0.110 C 
BRANCH  28  30
ATOM     29  C   UNL     1      -1.537   7.899  -0.187  0.00  0.00    +0.001 C 
ATOM     30  C   UNL     1      -2.187   7.216  -0.492  0.00  0.00    +0.012 C 
ENDBRANCH  28  30
ENDBRANCH  26  28
ENDBRANCH  25  26
ENDBRANCH  24  25
ENDBRANCH  23  24
ENDBRANCH  21  23
ENDBRANCH   1  21
TORSDOF 10
ENDMDL
MODEL 5
REMARK VINA RESULT:      -6.8      2.315      2.901
REMARK  Name = 
REMARK  10 active torsions:
REMARK  status: ('A' for Active; 'I' for Inactive)
REMARK    1  A    between atoms: C_2  and  C_3
REMARK    2  A    between atoms: C_3  and  C_4
REMARK    3  A    between atoms: C_4  and  O_6
REMARK    4  A    between atoms: O_6  and  C_7
REMARK    5  A    between atoms: C_7  and  O_8
REMARK    6  A    between atoms: O_8  and  C_9
REMARK    7  A    between atoms: C_9  and  C_11
REMARK    8  A    between atoms: C_17  and  C_18
REMARK    9  A    between atoms: C_18  and  O_20
REMARK   10  A    between atoms: C_22  and  C_23
REMARK                            x       y       z     vdW  Elec       q    Type
REMARK                         _______ _______ _______ _____ _____    ______ ____
ROOT
ATOM      1  C   UNL     1       3.460   6.600  -4.526  0.00  0.00    +0.073 C 
ATOM      2  C   UNL     1       1.998   7.229  -4.108  0.00  0.00    +0.082 C 
ATOM      3  C   UNL     1       2.211   6.804  -2.539  0.00  0.00    +0.073 C 
ATOM      4  C   UNL     1       3.072   7.671  -1.992  0.00  0.00    +0.051 C 
ATOM      5  C   UNL     1       3.069   7.586  -0.497  0.00  0.00    +0.049 C 
ATOM      6  N   UNL     1       4.233   8.069  -2.742  0.00  0.00    -0.221 NA
ATOM      7  C   UNL     1       4.458   7.226  -3.885  0.00  0.00    +0.051 C 
ATOM      8  C   UNL     1       5.838   6.997  -4.425  0.00  0.00    +0.049 C 
ENDROOT
BRANCH   2   9
ATOM      9  C   UNL     1       1.157   5.864  -4.480  0.00  0.00    -0.002 A 
ATOM     10  C   UNL     1      -0.123   6.179  -4.934  0.00  0.00    +0.065 A 
ATOM     11 CL   UNL     1      -0.752   7.828  -4.906  0.00  0.00    -0.082 Cl
ATOM     12  C   UNL     1      -0.762   5.327  -5.828  0.00  0.00    +0.068 A 
ATOM     13 CL   UNL     1      -2.509   5.480  -5.981  0.00  0.00    -0.081 Cl
ATOM     14  C   UNL     1      -0.091   4.287  -6.460  0.00  0.00    +0.012 A 
ATOM     15  C   UNL     1       1.238   4.083  -6.116  0.00  0.00    +0.001 A 
ATOM     16  C   UNL     1       1.843   4.976  -5.263  0.00  0.00    -0.003 A 
ENDBRANCH   2   9
BRANCH   3  17
ATOM     17  C   UNL     1       2.095   5.444  -2.150  0.00  0.00    +0.339 C 
ATOM     18  O   UNL     1       3.032   4.587  -2.146  0.00  0.00    -0.245 OA
BRANCH  17  19
ATOM     19  O   UNL     1       0.833   4.889  -1.912  0.00  0.00    -0.442 OA
ATOM     20  C   UNL     1      -0.058   5.596  -1.052  0.00  0.00    +0.256 C 
ENDBRANCH  17  19
ENDBRANCH   3  17
BRANCH   1  21
ATOM     21  C   UNL     1       3.640   6.686  -5.991  0.00  0.00    +0.341 C 
ATOM     22  O   UNL     1       3.342   7.740  -6.632  0.00  0.00    -0.245 OA
BRANCH  21  23
ATOM     23  O   UNL     1       4.654   5.923  -6.524  0.00  0.00    -0.405 OA
BRANCH  23  24
ATOM     24  C   UNL     1       4.623   5.408  -7.852  0.00  0.00    +0.433 C 
BRANCH  24  25
ATOM     25  O   UNL     1       5.894   5.585  -8.468  0.00  0.00    -0.408 OA
BRANCH  25  26
ATOM     26  C   UNL     1       6.043   5.790  -9.838  0.00  0.00    +0.320 C 
ATOM     27  O   UNL     1       5.110   5.426 -10.607  0.00  0.00    -0.250 OA
BRANCH  26  28
ATOM     28  C   UNL     1       7.250   6.515 -10.344  0.00  0.00    +0.110 C 
BRANCH  28  30
ATOM     29  C   UNL     1       8.423   5.740 -11.972  0.00  0.00    +0.001 C 
ATOM     30  C   UNL     1       8.093   5.477 -11.076  0.00  0.00    +0.012 C 
ENDBRANCH  28  30
ENDBRANCH  26  28
ENDBRANCH  25  26
ENDBRANCH  24  25
ENDBRANCH  23  24
ENDBRANCH  21  23
ENDBRANCH   1  21
TORSDOF 10
ENDMDL
MODEL 6
REMARK VINA RESULT:      -6.8      2.311      3.812
REMARK  Name = 
REMARK  10 active torsions:
REMARK  status: ('A' for Active; 'I' for Inactive)
REMARK    1  A    between atoms: C_2  and  C_3
REMARK    2  A    between atoms: C_3  and  C_4
REMARK    3  A    between atoms: C_4  and  O_6
REMARK    4  A    between atoms: O_6  and  C_7
REMARK    5  A    between atoms: C_7  and  O_8
REMARK    6  A    between atoms: O_8  and  C_9
REMARK    7  A    between atoms: C_9  and  C_11
REMARK    8  A    between atoms: C_17  and  C_18
REMARK    9  A    between atoms: C_18  and  O_20
REMARK   10  A    between atoms: C_22  and  C_23
REMARK                            x       y       z     vdW  Elec       q    Type
REMARK                         _______ _______ _______ _____ _____    ______ ____
ROOT
ATOM      1  C   UNL     1       2.212   6.340  -6.444  0.00  0.00    +0.073 C 
ATOM      2  C   UNL     1       1.187   7.245  -5.529  0.00  0.00    +0.082 C 
ATOM      3  C   UNL     1       1.886   6.719  -4.142  0.00  0.00    +0.073 C 
ATOM      4  C   UNL     1       3.052   7.361  -4.000  0.00  0.00    +0.051 C 
ATOM      5  C   UNL     1       3.600   7.215  -2.615  0.00  0.00    +0.049 C 
ATOM      6  N   UNL     1       3.897   7.536  -5.151  0.00  0.00    -0.221 NA
ATOM      7  C   UNL     1       3.487   6.714  -6.258  0.00  0.00    +0.051 C 
ATOM      8  C   UNL     1       4.475   6.222  -7.271  0.00  0.00    +0.049 C 
ENDROOT
BRANCH   2   9
ATOM      9  C   UNL     1       0.000   6.105  -5.494  0.00  0.00    -0.002 A 
ATOM     10  C   UNL     1      -1.109   6.566  -4.787  0.00  0.00    +0.065 A 
ATOM     11 CL   UNL     1      -1.097   8.099  -3.913  0.00  0.00    -0.082 Cl
ATOM     12  C   UNL     1      -2.374   6.090  -5.112  0.00  0.00    +0.068 A 
ATOM     13 CL   UNL     1      -3.646   6.295  -3.913  0.00  0.00    -0.081 Cl
ATOM     14  C   UNL     1      -2.607   5.342  -6.259  0.00  0.00    +0.012 A 
ATOM     15  C   UNL     1      -1.509   5.023  -7.047  0.00  0.00    +0.001 A 
ATOM     16  C   UNL     1      -0.283   5.552  -6.713  0.00  0.00    -0.003 A 
ENDBRANCH   2   9
BRANCH   3  17
ATOM     17  C   UNL     1       1.643   5.399  -3.681  0.00  0.00    +0.339 C 
ATOM     18  O   UNL     1       2.122   4.334  -4.181  0.00  0.00    -0.245 OA
BRANCH  17  19
ATOM     19  O   UNL     1       0.660   5.166  -2.712  0.00  0.00    -0.442 OA
ATOM     20  C   UNL     1       1.083   4.945  -1.369  0.00  0.00    +0.256 C 
ENDBRANCH  17  19
ENDBRANCH   3  17
BRANCH   1  21
ATOM     21  C   UNL     1       1.835   6.448  -7.870  0.00  0.00    +0.341 C 
ATOM     22  O   UNL     1       1.852   7.564  -8.474  0.00  0.00    -0.245 OA
BRANCH  21  23
ATOM     23  O   UNL     1       2.076   5.337  -8.647  0.00  0.00    -0.405 OA
BRANCH  23  24
ATOM     24  C   UNL     1       2.183   5.392 -10.067  0.00  0.00    +0.433 C 
BRANCH  24  25
ATOM     25  O   UNL     1       3.543   5.229 -10.454  0.00  0.00    -0.408 OA
BRANCH  25  26
ATOM     26  C   UNL     1       4.199   6.131 -11.289  0.00  0.00    +0.320 C 
ATOM     27  O   UNL     1       4.118   5.965 -12.538  0.00  0.00    -0.250 OA
BRANCH  26  28
ATOM     28  C   UNL     1       4.893   7.313 -10.689  0.00  0.00    +0.110 C 
BRANCH  28  30
ATOM     29  C   UNL     1       7.006   7.613 -10.966  0.00  0.00    +0.001 C 
ATOM     30  C   UNL     1       6.174   7.506 -11.494  0.00  0.00    +0.012 C 
ENDBRANCH  28  30
ENDBRANCH  26  28
ENDBRANCH  25  26
ENDBRANCH  24  25
ENDBRANCH  23  24
ENDBRANCH  21  23
ENDBRANCH   1  21
TORSDOF 10
ENDMDL
MODEL 7
REMARK VINA RESULT:      -6.6      3.029      4.700
REMARK  Name = 
REMARK  10 active torsions:
REMARK  status: ('A' for Active; 'I' for Inactive)
REMARK    1  A    between atoms: C_2  and  C_3
REMARK    2  A    between atoms: C_3  and  C_4
REMARK    3  A    between atoms: C_4  and  O_6
REMARK    4  A    between atoms: O_6  and  C_7
REMARK    5  A    between atoms: C_7  and  O_8
REMARK    6  A    between atoms: O_8  and  C_9
REMARK    7  A    between atoms: C_9  and  C_11
REMARK    8  A    between atoms: C_17  and  C_18
REMARK    9  A    between atoms: C_18  and  O_20
REMARK   10  A    between atoms: C_22  and  C_23
REMARK                            x       y       z     vdW  Elec       q    Type
REMARK                         _______ _______ _______ _____ _____    ______ ____
ROOT
ATOM      1  C   UNL     1      -0.577   5.704  -5.236  0.00  0.00    +0.073 C 
ATOM      2  C   UNL     1      -0.416   5.214  -3.674  0.00  0.00    +0.082 C 
ATOM      3  C   UNL     1      -1.716   6.100  -3.214  0.00  0.00    +0.073 C 
ATOM      4  C   UNL     1      -2.817   5.452  -3.613  0.00  0.00    +0.051 C 
ATOM      5  C   UNL     1      -4.048   5.990  -2.950  0.00  0.00    +0.049 C 
ATOM      6  N   UNL     1      -2.841   4.859  -4.923  0.00  0.00    -0.221 NA
ATOM      7  C   UNL     1      -1.755   5.315  -5.748  0.00  0.00    +0.051 C 
ATOM      8  C   UNL     1      -1.885   5.386  -7.239  0.00  0.00    +0.049 C 
ENDROOT
BRANCH   2   9
ATOM      9  C   UNL     1       0.666   6.390  -3.278  0.00  0.00    -0.002 A 
ATOM     10  C   UNL     1       1.327   6.076  -2.092  0.00  0.00    +0.065 A 
ATOM     11 CL   UNL     1       0.878   4.685  -1.104  0.00  0.00    -0.082 Cl
ATOM     12  C   UNL     1       2.619   6.546  -1.883  0.00  0.00    +0.068 A 
ATOM     13 CL   UNL     1       3.214   6.563  -0.227  0.00  0.00    -0.081 Cl
ATOM     14  C   UNL     1       3.363   7.131  -2.901  0.00  0.00    +0.012 A 
ATOM     15  C   UNL     1       2.743   7.293  -4.132  0.00  0.00    +0.001 A 
ATOM     16  C   UNL     1       1.481   6.773  -4.309  0.00  0.00    -0.003 A 
ENDBRANCH   2   9
BRANCH   3  17
ATOM     17  C   UNL     1      -1.614   7.512  -3.116  0.00  0.00    +0.339 C 
ATOM     18  O   UNL     1      -1.561   8.325  -4.091  0.00  0.00    -0.245 OA
BRANCH  17  19
ATOM     19  O   UNL     1      -1.365   8.113  -1.877  0.00  0.00    -0.442 OA
ATOM     20  C   UNL     1      -1.822   7.443  -0.704  0.00  0.00    +0.256 C 
ENDBRANCH  17  19
ENDBRANCH   3  17
BRANCH   1  21
ATOM     21  C   UNL     1       0.545   5.176  -6.043  0.00  0.00    +0.341 C 
ATOM     22  O   UNL     1       0.883   3.955  -5.984  0.00  0.00    -0.245 OA
BRANCH  21  23
ATOM     23  O   UNL     1       0.782   5.811  -7.241  0.00  0.00    -0.405 OA
BRANCH  23  24
ATOM     24  C   UNL     1       1.949   5.579  -8.025  0.00  0.00    +0.433 C 
BRANCH  24  25
ATOM     25  O   UNL     1       1.626   4.755  -9.139  0.00  0.00    -0.408 OA
BRANCH  25  26
ATOM     26  C   UNL     1       1.480   5.261 -10.429  0.00  0.00    +0.320 C 
ATOM     27  O   UNL     1       2.519   5.517 -11.099  0.00  0.00    -0.250 OA
BRANCH  26  28
ATOM     28  C   UNL     1       0.108   5.392 -11.013  0.00  0.00    +0.110 C 
BRANCH  28  30
ATOM     29  C   UNL     1      -0.430   7.386 -11.615  0.00  0.00    +0.001 C 
ATOM     30  C   UNL     1      -0.309   6.842 -10.795  0.00  0.00    +0.012 C 
ENDBRANCH  28  30
ENDBRANCH  26  28
ENDBRANCH  25  26
ENDBRANCH  24  25
ENDBRANCH  23  24
ENDBRANCH  21  23
ENDBRANCH   1  21
TORSDOF 10
ENDMDL
MODEL 8
REMARK VINA RESULT:      -6.6      2.097      6.225
REMARK  Name = 
REMARK  10 active torsions:
REMARK  status: ('A' for Active; 'I' for Inactive)
REMARK    1  A    between atoms: C_2  and  C_3
REMARK    2  A    between atoms: C_3  and  C_4
REMARK    3  A    between atoms: C_4  and  O_6
REMARK    4  A    between atoms: O_6  and  C_7
REMARK    5  A    between atoms: C_7  and  O_8
REMARK    6  A    between atoms: O_8  and  C_9
REMARK    7  A    between atoms: C_9  and  C_11
REMARK    8  A    between atoms: C_17  and  C_18
REMARK    9  A    between atoms: C_18  and  O_20
REMARK   10  A    between atoms: C_22  and  C_23
REMARK                            x       y       z     vdW  Elec       q    Type
REMARK                         _______ _______ _______ _____ _____    ______ ____
ROOT
ATOM      1  C   UNL     1       2.828   6.619  -5.360  0.00  0.00    +0.073 C 
ATOM      2  C   UNL     1       1.920   5.522  -6.186  0.00  0.00    +0.082 C 
ATOM      3  C   UNL     1       2.487   6.067  -7.624  0.00  0.00    +0.073 C 
ATOM      4  C   UNL     1       3.731   5.596  -7.781  0.00  0.00    +0.051 C 
ATOM      5  C   UNL     1       4.206   5.744  -9.193  0.00  0.00    +0.049 C 
ATOM      6  N   UNL     1       4.629   5.613  -6.658  0.00  0.00    -0.221 NA
ATOM      7  C   UNL     1       4.137   6.426  -5.578  0.00  0.00    +0.051 C 
ATOM      8  C   UNL     1       5.074   7.115  -4.632  0.00  0.00    +0.049 C 
ENDROOT
BRANCH   2   9
ATOM      9  C   UNL     1       0.576   6.471  -6.230  0.00  0.00    -0.002 A 
ATOM     10  C   UNL     1      -0.569   5.699  -6.424  0.00  0.00    +0.065 A 
ATOM     11 CL   UNL     1      -0.491   3.969  -6.760  0.00  0.00    -0.082 Cl
ATOM     12  C   UNL     1      -1.786   6.140  -5.918  0.00  0.00    +0.068 A 
ATOM     13 CL   UNL     1      -3.247   5.427  -6.593  0.00  0.00    -0.081 Cl
ATOM     14  C   UNL     1      -1.872   7.209  -5.034  0.00  0.00    +0.012 A 
ATOM     15  C   UNL     1      -0.694   7.873  -4.720  0.00  0.00    +0.001 A 
ATOM     16  C   UNL     1       0.493   7.376  -5.207  0.00  0.00    -0.003 A 
ENDBRANCH   2   9
BRANCH   3  17
ATOM     17  C   UNL     1       2.035   7.308  -8.142  0.00  0.00    +0.339 C 
ATOM     18  O   UNL     1       2.429   8.458  -7.774  0.00  0.00    -0.245 OA
BRANCH  17  19
ATOM     19  O   UNL     1       0.932   7.348  -9.003  0.00  0.00    -0.442 OA
ATOM     20  C   UNL     1       0.982   6.562 -10.191  0.00  0.00    +0.256 C 
ENDBRANCH  17  19
ENDBRANCH   3  17
BRANCH   1  21
ATOM     21  C   UNL     1       2.518   6.537  -3.916  0.00  0.00    +0.341 C 
ATOM     22  O   UNL     1       2.394   7.582  -3.207  0.00  0.00    -0.245 OA
BRANCH  21  23
ATOM     23  O   UNL     1       1.783   5.444  -3.514  0.00  0.00    -0.405 OA
BRANCH  23  24
ATOM     24  C   UNL     1       1.130   5.371  -2.250  0.00  0.00    +0.433 C 
BRANCH  24  25
ATOM     25  O   UNL     1      -0.173   4.822  -2.412  0.00  0.00    -0.408 OA
BRANCH  25  26
ATOM     26  C   UNL     1      -1.321   5.468  -1.957  0.00  0.00    +0.320 C 
ATOM     27  O   UNL     1      -2.437   4.898  -2.114  0.00  0.00    -0.250 OA
BRANCH  26  28
ATOM     28  C   UNL     1      -1.189   6.762  -1.217  0.00  0.00    +0.110 C 
BRANCH  28  30
ATOM     29  C   UNL     1      -1.876   7.300   0.749  0.00  0.00    +0.001 C 
ATOM     30  C   UNL     1      -1.703   6.498   0.194  0.00  0.00    +0.012 C 
ENDBRANCH  28  30
ENDBRANCH  26  28
ENDBRANCH  25  26
ENDBRANCH  24  25
ENDBRANCH  23  24
ENDBRANCH  21  23
ENDBRANCH   1  21
TORSDOF 10
ENDMDL
MODEL 9
REMARK VINA RESULT:      -6.4      3.323      5.024
REMARK  Name = 
REMARK  10 active torsions:
REMARK  status: ('A' for Active; 'I' for Inactive)
REMARK    1  A    between atoms: C_2  and  C_3
REMARK    2  A    between atoms: C_3  and  C_4
REMARK    3  A    between atoms: C_4  and  O_6
REMARK    4  A    between atoms: O_6  and  C_7
REMARK    5  A    between atoms: C_7  and  O_8
REMARK    6  A    between atoms: O_8  and  C_9
REMARK    7  A    between atoms: C_9  and  C_11
REMARK    8  A    between atoms: C_17  and  C_18
REMARK    9  A    between atoms: C_18  and  O_20
REMARK   10  A    between atoms: C_22  and  C_23
REMARK                            x       y       z     vdW  Elec       q    Type
REMARK                         _______ _______ _______ _____ _____    ______ ____
ROOT
ATOM      1  C   UNL     1       2.283   6.593  -6.046  0.00  0.00    +0.073 C 
ATOM      2  C   UNL     1       1.986   5.129  -5.356  0.00  0.00    +0.082 C 
ATOM      3  C   UNL     1       0.369   5.400  -5.369  0.00  0.00    +0.073 C 
ATOM      4  C   UNL     1      -0.067   5.227  -6.623  0.00  0.00    +0.051 C 
ATOM      5  C   UNL     1      -1.559   5.111  -6.680  0.00  0.00    +0.049 C 
ATOM      6  N   UNL     1       0.710   5.759  -7.711  0.00  0.00    -0.221 NA
ATOM      7  C   UNL     1       1.719   6.680  -7.260  0.00  0.00    +0.051 C 
ATOM      8  C   UNL     1       2.195   7.802  -8.132  0.00  0.00    +0.049 C 
ENDROOT
BRANCH   2   9
ATOM      9  C   UNL     1       2.177   5.671  -3.813  0.00  0.00    -0.002 A 
ATOM     10  C   UNL     1       3.215   4.993  -3.176  0.00  0.00    +0.065 A 
ATOM     11 CL   UNL     1       4.041   3.623  -3.919  0.00  0.00    -0.082 Cl
ATOM     12  C   UNL     1       3.933   5.632  -2.171  0.00  0.00    +0.068 A 
ATOM     13 CL   UNL     1       4.866   4.617  -1.076  0.00  0.00    -0.081 Cl
ATOM     14  C   UNL     1       3.806   6.993  -1.926  0.00  0.00    +0.012 A 
ATOM     15  C   UNL     1       2.877   7.694  -2.684  0.00  0.00    +0.001 A 
ATOM     16  C   UNL     1       2.221   7.033  -3.697  0.00  0.00    -0.003 A 
ENDBRANCH   2   9
BRANCH   3  17
ATOM     17  C   UNL     1      -0.206   6.310  -4.444  0.00  0.00    +0.339 C 
ATOM     18  O   UNL     1      -0.634   6.023  -3.283  0.00  0.00    -0.245 OA
BRANCH  17  19
ATOM     19  O   UNL     1      -0.525   7.611  -4.848  0.00  0.00    -0.442 OA
ATOM     20  C   UNL     1      -1.811   8.122  -4.507  0.00  0.00    +0.256 C 
ENDBRANCH  17  19
ENDBRANCH   3  17
BRANCH   1  21
ATOM     21  C   UNL     1       3.742   6.819  -6.128  0.00  0.00    +0.341 C 
ATOM     22  O   UNL     1       4.315   7.700  -5.416  0.00  0.00    -0.245 OA
BRANCH  21  23
ATOM     23  O   UNL     1       4.508   5.726  -6.466  0.00  0.00    -0.405 OA
BRANCH  23  24
ATOM     24  C   UNL     1       4.647   5.260  -7.806  0.00  0.00    +0.433 C 
BRANCH  24  25
ATOM     25  O   UNL     1       5.923   5.632  -8.315  0.00  0.00    -0.408 OA
BRANCH  25  26
ATOM     26  C   UNL     1       6.207   5.663  -9.679  0.00  0.00    +0.320 C 
ATOM     27  O   UNL     1       5.270   5.443 -10.496  0.00  0.00    -0.250 OA
BRANCH  26  28
ATOM     28  C   UNL     1       7.580   6.048 -10.133  0.00  0.00    +0.110 C 
BRANCH  28  30
ATOM     29  C   UNL     1       8.539   5.742 -12.034  0.00  0.00    +0.001 C 
ATOM     30  C   UNL     1       7.765   5.416 -11.508  0.00  0.00    +0.012 C 
ENDBRANCH  28  30
ENDBRANCH  26  28
ENDBRANCH  25  26
ENDBRANCH  24  25
ENDBRANCH  23  24
ENDBRANCH  21  23
ENDBRANCH   1  21
TORSDOF 10
ENDMDL
