MODEL 1
REMARK VINA RESULT:      -9.7      0.000      0.000
REMARK  Name = 
REMARK  1 active torsions:
REMARK  status: ('A' for Active; 'I' for Inactive)
REMARK    1  A    between atoms: C_2  and  C_3
REMARK                            x       y       z     vdW  Elec       q    Type
REMARK                         _______ _______ _______ _____ _____    ______ ____
ROOT
ATOM      1  C   UNL     1      -0.164   6.228  -4.635  0.00  0.00    +0.180 C 
ATOM      2  C   UNL     1       0.174   5.671  -5.966  0.00  0.00    +0.037 C 
ATOM      3  C   UNL     1       1.127   6.930  -6.407  0.00  0.00    +0.003 C 
ATOM      4  C   UNL     1       1.947   5.992  -7.575  0.00  0.00    +0.001 C 
ATOM      5  C   UNL     1       0.792   6.439  -8.749  0.00  0.00    +0.004 C 
ATOM      6  C   UNL     1      -0.182   5.184  -8.316  0.00  0.00    +0.000 C 
ATOM      7  C   UNL     1       1.534   5.585  -9.936  0.00  0.00    +0.019 C 
ATOM      8  C   UNL     1       2.816   6.281 -10.190  0.00  0.00    -0.041 C 
ATOM      9  C   UNL     1       3.427   5.882 -11.306  0.00  0.00    +0.031 C 
ATOM     10  C   UNL     1       2.671   5.757 -12.556  0.00  0.00    +0.172 A 
ATOM     11  C   UNL     1       1.301   5.569 -12.407  0.00  0.00    +0.038 A 
ATOM     12  C   UNL     1       0.858   5.262 -13.679  0.00  0.00    +0.139 A 
ATOM     13  N   UNL     1       1.961   5.041 -14.393  0.00  0.00    -0.076 NA
ATOM     14  O   UNL     1       3.032   5.407 -13.767  0.00  0.00    -0.354 OA
ATOM     15  C   UNL     1       3.739   6.676  -9.084  0.00  0.00    +0.022 C 
ATOM     16  C   UNL     1       1.806   4.226  -9.456  0.00  0.00    +0.004 C 
ATOM     17  C   UNL     1       0.607   5.703 -11.107  0.00  0.00    +0.035 C 
ATOM     18  C   UNL     1       2.912   7.224  -7.965  0.00  0.00    +0.004 C 
ATOM     19  C   UNL     1       2.184   6.529  -5.216  0.00  0.00    +0.004 C 
ATOM     20  C   UNL     1       1.045   4.497  -5.766  0.00  0.00    +0.003 C 
ATOM     21  C   UNL     1      -0.839   5.634  -7.012  0.00  0.00    +0.003 C 
ATOM     22  C   UNL     1       1.173   6.721  -4.088  0.00  0.00    +0.043 C 
ATOM     23  O   UNL     1      -0.580   5.242  -3.723  0.00  0.00    -0.212 OA
ENDROOT
BRANCH   1  25
ATOM     24  C   UNL     1      -1.922   8.198  -4.574  0.00  0.00    -0.012 C 
ATOM     25  C   UNL     1      -1.134   7.307  -4.653  0.00  0.00    -0.049 C 
ENDBRANCH   1  25
TORSDOF 1
ENDMDL
MODEL 2
REMARK VINA RESULT:      -9.3      3.390      7.643
REMARK  Name = 
REMARK  1 active torsions:
REMARK  status: ('A' for Active; 'I' for Inactive)
REMARK    1  A    between atoms: C_2  and  C_3
REMARK                            x       y       z     vdW  Elec       q    Type
REMARK                         _______ _______ _______ _____ _____    ______ ____
ROOT
ATOM      1  C   UNL     1       4.375   6.009 -10.678  0.00  0.00    +0.180 C 
ATOM      2  C   UNL     1       4.148   5.574  -9.280  0.00  0.00    +0.037 C 
ATOM      3  C   UNL     1       3.244   6.880  -8.871  0.00  0.00    +0.003 C 
ATOM      4  C   UNL     1       2.521   6.058  -7.561  0.00  0.00    +0.001 C 
ATOM      5  C   UNL     1       3.775   6.589  -6.532  0.00  0.00    +0.004 C 
ATOM      6  C   UNL     1       4.700   5.288  -6.934  0.00  0.00    +0.000 C 
ATOM      7  C   UNL     1       3.131   5.851  -5.217  0.00  0.00    +0.019 C 
ATOM      8  C   UNL     1       1.880   6.584  -4.917  0.00  0.00    -0.041 C 
ATOM      9  C   UNL     1       1.364   6.292  -3.722  0.00  0.00    +0.031 C 
ATOM     10  C   UNL     1       2.223   6.266  -2.535  0.00  0.00    +0.172 A 
ATOM     11  C   UNL     1       3.574   6.047  -2.782  0.00  0.00    +0.038 A 
ATOM     12  C   UNL     1       4.122   5.846  -1.530  0.00  0.00    +0.139 A 
ATOM     13  N   UNL     1       3.083   5.702  -0.709  0.00  0.00    -0.076 NA
ATOM     14  O   UNL     1       1.964   6.027  -1.271  0.00  0.00    -0.354 OA
ATOM     15  C   UNL     1       0.868   6.895  -5.971  0.00  0.00    +0.022 C 
ATOM     16  C   UNL     1       2.811   4.459  -5.550  0.00  0.00    +0.004 C 
ATOM     17  C   UNL     1       4.156   6.058  -4.143  0.00  0.00    +0.035 C 
ATOM     18  C   UNL     1       1.600   7.332  -7.200  0.00  0.00    +0.004 C 
ATOM     19  C   UNL     1       2.087   6.391  -9.930  0.00  0.00    +0.004 C 
ATOM     20  C   UNL     1       3.256   4.399  -9.302  0.00  0.00    +0.003 C 
ATOM     21  C   UNL     1       5.246   5.614  -8.323  0.00  0.00    +0.003 C 
ATOM     22  C   UNL     1       2.999   6.471 -11.151  0.00  0.00    +0.043 C 
ATOM     23  O   UNL     1       4.705   4.942 -11.532  0.00  0.00    -0.212 OA
ENDROOT
BRANCH   1  25
ATOM     24  C   UNL     1       6.167   7.912 -11.053  0.00  0.00    -0.012 C 
ATOM     25  C   UNL     1       5.350   7.072 -10.836  0.00  0.00    -0.049 C 
ENDBRANCH   1  25
TORSDOF 1
ENDMDL
MODEL 3
REMARK VINA RESULT:      -8.1      1.968      3.587
REMARK  Name = 
REMARK  1 active torsions:
REMARK  status: ('A' for Active; 'I' for Inactive)
REMARK    1  A    between atoms: C_2  and  C_3
REMARK                            x       y       z     vdW  Elec       q    Type
REMARK                         _______ _______ _______ _____ _____    ______ ____
ROOT
ATOM      1  C   UNL     1      -0.962   6.479  -3.375  0.00  0.00    +0.180 C 
ATOM      2  C   UNL     1      -0.022   6.774  -4.482  0.00  0.00    +0.037 C 
ATOM      3  C   UNL     1      -0.364   5.409  -5.325  0.00  0.00    +0.003 C 
ATOM      4  C   UNL     1       0.209   6.083  -6.785  0.00  0.00    +0.001 C 
ATOM      5  C   UNL     1       1.775   5.495  -6.445  0.00  0.00    +0.004 C 
ATOM      6  C   UNL     1       2.135   6.854  -5.589  0.00  0.00    +0.000 C 
ATOM      7  C   UNL     1       2.399   6.086  -7.841  0.00  0.00    +0.019 C 
ATOM      8  C   UNL     1       1.780   5.292  -8.926  0.00  0.00    -0.041 C 
ATOM      9  C   UNL     1       2.371   5.455 -10.110  0.00  0.00    +0.031 C 
ATOM     10  C   UNL     1       3.832   5.395 -10.220  0.00  0.00    +0.172 A 
ATOM     11  C   UNL     1       4.528   5.676  -9.049  0.00  0.00    +0.038 A 
ATOM     12  C   UNL     1       5.846   5.775  -9.451  0.00  0.00    +0.139 A 
ATOM     13  N   UNL     1       5.807   5.810 -10.782  0.00  0.00    -0.076 NA
ATOM     14  O   UNL     1       4.639   5.506 -11.248  0.00  0.00    -0.354 OA
ATOM     15  C   UNL     1       0.307   5.052  -8.995  0.00  0.00    +0.022 C 
ATOM     16  C   UNL     1       2.011   7.493  -7.986  0.00  0.00    +0.004 C 
ATOM     17  C   UNL     1       3.868   5.810  -7.731  0.00  0.00    +0.035 C 
ATOM     18  C   UNL     1      -0.178   4.754  -7.612  0.00  0.00    +0.004 C 
ATOM     19  C   UNL     1      -1.892   5.961  -5.568  0.00  0.00    +0.004 C 
ATOM     20  C   UNL     1      -0.554   7.918  -5.245  0.00  0.00    +0.003 C 
ATOM     21  C   UNL     1       1.414   6.676  -4.255  0.00  0.00    +0.003 C 
ATOM     22  C   UNL     1      -2.236   6.023  -4.082  0.00  0.00    +0.043 C 
ATOM     23  O   UNL     1      -1.343   7.630  -2.664  0.00  0.00    -0.212 OA
ENDROOT
BRANCH   1  25
ATOM     24  C   UNL     1      -0.071   4.693  -1.646  0.00  0.00    -0.012 C 
ATOM     25  C   UNL     1      -0.509   5.465  -2.442  0.00  0.00    -0.049 C 
ENDBRANCH   1  25
TORSDOF 1
ENDMDL
MODEL 4
REMARK VINA RESULT:      -8.1      2.585      4.218
REMARK  Name = 
REMARK  1 active torsions:
REMARK  status: ('A' for Active; 'I' for Inactive)
REMARK    1  A    between atoms: C_2  and  C_3
REMARK                            x       y       z     vdW  Elec       q    Type
REMARK                         _______ _______ _______ _____ _____    ______ ____
ROOT
ATOM      1  C   UNL     1       2.413   5.926  -2.382  0.00  0.00    +0.180 C 
ATOM      2  C   UNL     1       2.816   6.283  -3.762  0.00  0.00    +0.037 C 
ATOM      3  C   UNL     1       2.435   4.823  -4.403  0.00  0.00    +0.003 C 
ATOM      4  C   UNL     1       2.307   5.468  -5.978  0.00  0.00    +0.001 C 
ATOM      5  C   UNL     1       3.966   5.164  -6.241  0.00  0.00    +0.004 C 
ATOM      6  C   UNL     1       4.370   6.623  -5.595  0.00  0.00    +0.000 C 
ATOM      7  C   UNL     1       3.922   5.742  -7.775  0.00  0.00    +0.019 C 
ATOM      8  C   UNL     1       3.099   4.781  -8.543  0.00  0.00    -0.041 C 
ATOM      9  C   UNL     1       3.178   4.948  -9.864  0.00  0.00    +0.031 C 
ATOM     10  C   UNL     1       4.483   5.113 -10.509  0.00  0.00    +0.172 A 
ATOM     11  C   UNL     1       5.498   5.587  -9.686  0.00  0.00    +0.038 A 
ATOM     12  C   UNL     1       6.539   5.864 -10.551  0.00  0.00    +0.139 A 
ATOM     13  N   UNL     1       6.011   5.793 -11.772  0.00  0.00    -0.076 NA
ATOM     14  O   UNL     1       4.826   5.274 -11.765  0.00  0.00    -0.354 OA
ATOM     15  C   UNL     1       1.769   4.305  -8.055  0.00  0.00    +0.022 C 
ATOM     16  C   UNL     1       3.268   7.054  -7.779  0.00  0.00    +0.004 C 
ATOM     17  C   UNL     1       5.353   5.711  -8.218  0.00  0.00    +0.035 C 
ATOM     18  C   UNL     1       1.883   4.037  -6.588  0.00  0.00    +0.004 C 
ATOM     19  C   UNL     1       0.853   5.105  -4.064  0.00  0.00    +0.004 C 
ATOM     20  C   UNL     1       1.851   7.269  -4.283  0.00  0.00    +0.003 C 
ATOM     21  C   UNL     1       4.229   6.433  -4.086  0.00  0.00    +0.003 C 
ATOM     22  C   UNL     1       1.070   5.222  -2.558  0.00  0.00    +0.043 C 
ATOM     23  O   UNL     1       2.123   7.052  -1.591  0.00  0.00    -0.212 OA
ENDROOT
BRANCH   1  25
ATOM     24  C   UNL     1       4.039   4.313  -1.067  0.00  0.00    -0.012 C 
ATOM     25  C   UNL     1       3.347   5.069  -1.675  0.00  0.00    -0.049 C 
ENDBRANCH   1  25
TORSDOF 1
ENDMDL
MODEL 5
REMARK VINA RESULT:      -8.0      2.644      4.522
REMARK  Name = 
REMARK  1 active torsions:
REMARK  status: ('A' for Active; 'I' for Inactive)
REMARK    1  A    between atoms: C_2  and  C_3
REMARK                            x       y       z     vdW  Elec       q    Type
REMARK                         _______ _______ _______ _____ _____    ______ ____
ROOT
ATOM      1  C   UNL     1       3.452   5.878  -1.559  0.00  0.00    +0.180 C 
ATOM      2  C   UNL     1       3.533   6.224  -2.997  0.00  0.00    +0.037 C 
ATOM      3  C   UNL     1       2.403   5.132  -3.468  0.00  0.00    +0.003 C 
ATOM      4  C   UNL     1       2.090   5.976  -4.919  0.00  0.00    +0.001 C 
ATOM      5  C   UNL     1       3.307   5.075  -5.708  0.00  0.00    +0.004 C 
ATOM      6  C   UNL     1       4.457   6.155  -5.240  0.00  0.00    +0.000 C 
ATOM      7  C   UNL     1       3.051   5.817  -7.147  0.00  0.00    +0.019 C 
ATOM      8  C   UNL     1       1.713   5.372  -7.597  0.00  0.00    -0.041 C 
ATOM      9  C   UNL     1       1.454   5.665  -8.872  0.00  0.00    +0.031 C 
ATOM     10  C   UNL     1       2.449   5.381  -9.910  0.00  0.00    +0.172 A 
ATOM     11  C   UNL     1       3.764   5.301  -9.467  0.00  0.00    +0.038 A 
ATOM     12  C   UNL     1       4.513   5.252 -10.628  0.00  0.00    +0.139 A 
ATOM     13  N   UNL     1       3.664   5.557 -11.608  0.00  0.00    -0.076 NA
ATOM     14  O   UNL     1       2.433   5.555 -11.210  0.00  0.00    -0.354 OA
ATOM     15  C   UNL     1       0.520   5.405  -6.698  0.00  0.00    +0.022 C 
ATOM     16  C   UNL     1       3.038   7.270  -6.946  0.00  0.00    +0.004 C 
ATOM     17  C   UNL     1       4.132   5.279  -8.034  0.00  0.00    +0.035 C 
ATOM     18  C   UNL     1       0.946   4.924  -5.347  0.00  0.00    +0.004 C 
ATOM     19  C   UNL     1       1.266   5.973  -2.632  0.00  0.00    +0.004 C 
ATOM     20  C   UNL     1       2.961   7.571  -3.181  0.00  0.00    +0.003 C 
ATOM     21  C   UNL     1       4.709   5.841  -3.766  0.00  0.00    +0.003 C 
ATOM     22  C   UNL     1       1.953   5.796  -1.281  0.00  0.00    +0.043 C 
ATOM     23  O   UNL     1       3.911   6.913  -0.725  0.00  0.00    -0.212 OA
ENDROOT
BRANCH   1  25
ATOM     24  C   UNL     1       4.563   3.593  -0.842  0.00  0.00    -0.012 C 
ATOM     25  C   UNL     1       4.105   4.637  -1.190  0.00  0.00    -0.049 C 
ENDBRANCH   1  25
TORSDOF 1
ENDMDL
MODEL 6
REMARK VINA RESULT:      -8.0      2.863      6.924
REMARK  Name = 
REMARK  1 active torsions:
REMARK  status: ('A' for Active; 'I' for Inactive)
REMARK    1  A    between atoms: C_2  and  C_3
REMARK                            x       y       z     vdW  Elec       q    Type
REMARK                         _______ _______ _______ _____ _____    ______ ____
ROOT
ATOM      1  C   UNL     1       5.694   6.160 -10.989  0.00  0.00    +0.180 C 
ATOM      2  C   UNL     1       4.795   5.821  -9.861  0.00  0.00    +0.037 C 
ATOM      3  C   UNL     1       3.441   6.404 -10.581  0.00  0.00    +0.003 C 
ATOM      4  C   UNL     1       2.422   5.457  -9.590  0.00  0.00    +0.001 C 
ATOM      5  C   UNL     1       2.367   6.716  -8.439  0.00  0.00    +0.004 C 
ATOM      6  C   UNL     1       3.729   6.151  -7.707  0.00  0.00    +0.000 C 
ATOM      7  C   UNL     1       1.365   5.884  -7.443  0.00  0.00    +0.019 C 
ATOM      8  C   UNL     1       0.073   5.790  -8.159  0.00  0.00    -0.041 C 
ATOM      9  C   UNL     1      -0.936   5.381  -7.389  0.00  0.00    +0.031 C 
ATOM     10  C   UNL     1      -1.142   5.977  -6.066  0.00  0.00    +0.172 A 
ATOM     11  C   UNL     1      -0.014   6.551  -5.490  0.00  0.00    +0.038 A 
ATOM     12  C   UNL     1      -0.399   6.833  -4.193  0.00  0.00    +0.139 A 
ATOM     13  N   UNL     1      -1.562   6.205  -4.026  0.00  0.00    -0.076 NA
ATOM     14  O   UNL     1      -2.048   5.766  -5.141  0.00  0.00    -0.354 OA
ATOM     15  C   UNL     1      -0.016   5.351  -9.585  0.00  0.00    +0.022 C 
ATOM     16  C   UNL     1       1.902   4.536  -7.231  0.00  0.00    +0.004 C 
ATOM     17  C   UNL     1       1.253   6.753  -6.227  0.00  0.00    +0.035 C 
ATOM     18  C   UNL     1       1.101   5.999 -10.339  0.00  0.00    +0.004 C 
ATOM     19  C   UNL     1       3.563   5.232 -11.725  0.00  0.00    +0.004 C 
ATOM     20  C   UNL     1       4.672   4.353  -9.794  0.00  0.00    +0.003 C 
ATOM     21  C   UNL     1       4.871   6.585  -8.623  0.00  0.00    +0.003 C 
ATOM     22  C   UNL     1       4.929   5.694 -12.226  0.00  0.00    +0.043 C 
ATOM     23  O   UNL     1       6.874   5.395 -10.992  0.00  0.00    -0.212 OA
ENDROOT
BRANCH   1  25
ATOM     24  C   UNL     1       6.395   8.695 -11.221  0.00  0.00    -0.012 C 
ATOM     25  C   UNL     1       6.031   7.566 -11.101  0.00  0.00    -0.049 C 
ENDBRANCH   1  25
TORSDOF 1
ENDMDL
MODEL 7
REMARK VINA RESULT:      -7.9      2.619      6.850
REMARK  Name = 
REMARK  1 active torsions:
REMARK  status: ('A' for Active; 'I' for Inactive)
REMARK    1  A    between atoms: C_2  and  C_3
REMARK                            x       y       z     vdW  Elec       q    Type
REMARK                         _______ _______ _______ _____ _____    ______ ____
ROOT
ATOM      1  C   UNL     1       4.836   6.066 -12.017  0.00  0.00    +0.180 C 
ATOM      2  C   UNL     1       3.844   6.416 -10.974  0.00  0.00    +0.037 C 
ATOM      3  C   UNL     1       4.070   5.047 -10.100  0.00  0.00    +0.003 C 
ATOM      4  C   UNL     1       3.438   5.762  -8.684  0.00  0.00    +0.001 C 
ATOM      5  C   UNL     1       1.871   5.242  -9.117  0.00  0.00    +0.004 C 
ATOM      6  C   UNL     1       1.627   6.607 -10.005  0.00  0.00    +0.000 C 
ATOM      7  C   UNL     1       1.189   5.877  -7.768  0.00  0.00    +0.019 C 
ATOM      8  C   UNL     1       1.701   5.068  -6.639  0.00  0.00    -0.041 C 
ATOM      9  C   UNL     1       1.046   5.271  -5.496  0.00  0.00    +0.031 C 
ATOM     10  C   UNL     1      -0.420   5.278  -5.478  0.00  0.00    +0.172 A 
ATOM     11  C   UNL     1      -1.028   5.577  -6.692  0.00  0.00    +0.038 A 
ATOM     12  C   UNL     1      -2.363   5.740  -6.375  0.00  0.00    +0.139 A 
ATOM     13  N   UNL     1      -2.405   5.788  -5.044  0.00  0.00    -0.076 NA
ATOM     14  O   UNL     1      -1.284   5.437  -4.504  0.00  0.00    -0.354 OA
ATOM     15  C   UNL     1       3.155   4.762  -6.476  0.00  0.00    +0.022 C 
ATOM     16  C   UNL     1       1.631   7.266  -7.610  0.00  0.00    +0.004 C 
ATOM     17  C   UNL     1      -0.281   5.666  -7.967  0.00  0.00    +0.035 C 
ATOM     18  C   UNL     1       3.711   4.427  -7.823  0.00  0.00    +0.004 C 
ATOM     19  C   UNL     1       5.603   5.531  -9.766  0.00  0.00    +0.004 C 
ATOM     20  C   UNL     1       4.378   7.544 -10.188  0.00  0.00    +0.003 C 
ATOM     21  C   UNL     1       2.422   6.381 -11.290  0.00  0.00    +0.003 C 
ATOM     22  C   UNL     1       6.042   5.561 -11.227  0.00  0.00    +0.043 C 
ATOM     23  O   UNL     1       5.313   7.191 -12.712  0.00  0.00    -0.212 OA
ENDROOT
BRANCH   1  25
ATOM     24  C   UNL     1       4.002   4.309 -13.803  0.00  0.00    -0.012 C 
ATOM     25  C   UNL     1       4.396   5.063 -12.968  0.00  0.00    -0.049 C 
ENDBRANCH   1  25
TORSDOF 1
ENDMDL
MODEL 8
REMARK VINA RESULT:      -7.9      3.558      7.372
REMARK  Name = 
REMARK  1 active torsions:
REMARK  status: ('A' for Active; 'I' for Inactive)
REMARK    1  A    between atoms: C_2  and  C_3
REMARK                            x       y       z     vdW  Elec       q    Type
REMARK                         _______ _______ _______ _____ _____    ______ ____
ROOT
ATOM      1  C   UNL     1       1.756   5.898 -10.033  0.00  0.00    +0.180 C 
ATOM      2  C   UNL     1       1.720   6.283  -8.603  0.00  0.00    +0.037 C 
ATOM      3  C   UNL     1       2.626   5.013  -8.093  0.00  0.00    +0.003 C 
ATOM      4  C   UNL     1       3.068   5.816  -6.653  0.00  0.00    +0.001 C 
ATOM      5  C   UNL     1       1.696   5.169  -5.868  0.00  0.00    +0.004 C 
ATOM      6  C   UNL     1       0.769   6.432  -6.375  0.00  0.00    +0.000 C 
ATOM      7  C   UNL     1       2.064   5.883  -4.439  0.00  0.00    +0.019 C 
ATOM      8  C   UNL     1       3.293   5.210  -3.958  0.00  0.00    -0.041 C 
ATOM      9  C   UNL     1       3.584   5.478  -2.685  0.00  0.00    +0.031 C 
ATOM     10  C   UNL     1       2.540   5.402  -1.658  0.00  0.00    +0.172 A 
ATOM     11  C   UNL     1       1.238   5.554  -2.122  0.00  0.00    +0.038 A 
ATOM     12  C   UNL     1       0.478   5.667  -0.974  0.00  0.00    +0.139 A 
ATOM     13  N   UNL     1       1.355   5.833   0.015  0.00  0.00    -0.076 NA
ATOM     14  O   UNL     1       2.570   5.598  -0.362  0.00  0.00    -0.354 OA
ATOM     15  C   UNL     1       4.483   5.005  -4.838  0.00  0.00    +0.022 C 
ATOM     16  C   UNL     1       2.346   7.304  -4.666  0.00  0.00    +0.004 C 
ATOM     17  C   UNL     1       0.892   5.570  -3.561  0.00  0.00    +0.035 C 
ATOM     18  C   UNL     1       3.995   4.582  -6.186  0.00  0.00    +0.004 C 
ATOM     19  C   UNL     1       3.908   5.615  -8.925  0.00  0.00    +0.004 C 
ATOM     20  C   UNL     1       2.526   7.506  -8.434  0.00  0.00    +0.003 C 
ATOM     21  C   UNL     1       0.483   6.137  -7.847  0.00  0.00    +0.003 C 
ATOM     22  C   UNL     1       3.218   5.537 -10.284  0.00  0.00    +0.043 C 
ATOM     23  O   UNL     1       1.505   6.982 -10.894  0.00  0.00    -0.212 OA
ENDROOT
BRANCH   1  25
ATOM     24  C   UNL     1       0.153   3.929 -10.758  0.00  0.00    -0.012 C 
ATOM     25  C   UNL     1       0.891   4.790 -10.390  0.00  0.00    -0.049 C 
ENDBRANCH   1  25
TORSDOF 1
ENDMDL
MODEL 9
REMARK VINA RESULT:      -7.9      2.051      2.918
REMARK  Name = 
REMARK  1 active torsions:
REMARK  status: ('A' for Active; 'I' for Inactive)
REMARK    1  A    between atoms: C_2  and  C_3
REMARK                            x       y       z     vdW  Elec       q    Type
REMARK                         _______ _______ _______ _____ _____    ______ ____
ROOT
ATOM      1  C   UNL     1       3.465   5.939  -3.268  0.00  0.00    +0.180 C 
ATOM      2  C   UNL     1       2.809   5.714  -4.577  0.00  0.00    +0.037 C 
ATOM      3  C   UNL     1       4.113   6.157  -5.467  0.00  0.00    +0.003 C 
ATOM      4  C   UNL     1       3.555   5.308  -6.839  0.00  0.00    +0.001 C 
ATOM      5  C   UNL     1       2.712   6.698  -7.359  0.00  0.00    +0.004 C 
ATOM      6  C   UNL     1       1.394   6.274  -6.468  0.00  0.00    +0.000 C 
ATOM      7  C   UNL     1       2.155   5.964  -8.716  0.00  0.00    +0.019 C 
ATOM      8  C   UNL     1       3.345   5.739  -9.568  0.00  0.00    -0.041 C 
ATOM      9  C   UNL     1       3.046   5.395 -10.821  0.00  0.00    +0.031 C 
ATOM     10  C   UNL     1       2.032   6.144 -11.569  0.00  0.00    +0.172 A 
ATOM     11  C   UNL     1       1.100   6.822 -10.792  0.00  0.00    +0.038 A 
ATOM     12  C   UNL     1       0.148   7.251 -11.697  0.00  0.00    +0.139 A 
ATOM     13  N   UNL     1       0.425   6.610 -12.831  0.00  0.00    -0.076 NA
ATOM     14  O   UNL     1       1.576   6.020 -12.793  0.00  0.00    -0.354 OA
ATOM     15  C   UNL     1       4.598   5.123  -9.037  0.00  0.00    +0.022 C 
ATOM     16  C   UNL     1       1.562   4.671  -8.358  0.00  0.00    +0.004 C 
ATOM     17  C   UNL     1       1.231   6.973  -9.325  0.00  0.00    +0.035 C 
ATOM     18  C   UNL     1       4.866   5.708  -7.687  0.00  0.00    +0.004 C 
ATOM     19  C   UNL     1       4.931   4.857  -4.887  0.00  0.00    +0.004 C 
ATOM     20  C   UNL     1       2.617   4.263  -4.753  0.00  0.00    +0.003 C 
ATOM     21  C   UNL     1       1.768   6.628  -5.030  0.00  0.00    +0.003 C 
ATOM     22  C   UNL     1       4.842   5.298  -3.428  0.00  0.00    +0.043 C 
ATOM     23  O   UNL     1       2.857   5.220  -2.224  0.00  0.00    -0.212 OA
ENDROOT
BRANCH   1  25
ATOM     24  C   UNL     1       3.740   8.445  -2.482  0.00  0.00    -0.012 C 
ATOM     25  C   UNL     1       3.596   7.331  -2.881  0.00  0.00    -0.049 C 
ENDBRANCH   1  25
TORSDOF 1
ENDMDL
