MODEL 1
REMARK VINA RESULT:      -6.7      0.000      0.000
REMARK  Name = 
REMARK  1 active torsions:
REMARK  status: ('A' for Active; 'I' for Inactive)
REMARK    1  A    between atoms: O_2  and  C_3
REMARK                            x       y       z     vdW  Elec       q    Type
REMARK                         _______ _______ _______ _____ _____    ______ ____
ROOT
ATOM      1  C   UNL     1       1.222   4.934  -6.224  0.00  0.00    +0.207 A 
ATOM      2  C   UNL     1      -0.020   5.209  -5.673  0.00  0.00    +0.185 A 
ATOM      3  C   UNL     1      -1.082   5.451  -6.529  0.00  0.00    +0.038 A 
ATOM      4  C   UNL     1      -2.356   5.578  -6.001  0.00  0.00    +0.010 A 
ATOM      5  C   UNL     1      -2.435   5.514  -4.622  0.00  0.00    +0.082 A 
ATOM      6  C   UNL     1      -1.296   5.477  -3.834  0.00  0.00    +0.346 A 
ATOM      7  O   UNL     1      -1.465   5.240  -2.610  0.00  0.00    -0.244 OA
ATOM      8  C   UNL     1      -0.834   5.534  -7.890  0.00  0.00    +0.006 A 
ATOM      9  C   UNL     1       0.469   5.645  -8.365  0.00  0.00    +0.041 A 
ATOM     10  C   UNL     1       1.042   6.402  -9.379  0.00  0.00    +0.044 A 
ATOM     11  C   UNL     1       2.384   6.596  -9.072  0.00  0.00    +0.180 A 
ATOM     12  O   UNL     1       2.639   5.705  -8.130  0.00  0.00    -0.447 OA
ATOM     13  O   UNL     1      -0.101   5.338  -4.379  0.00  0.00    -0.418 OA
ATOM     14  C   UNL     1       1.525   5.380  -7.504  0.00  0.00    +0.182 A 
ENDROOT
BRANCH   1  16
ATOM     15  C   UNL     1       3.298   4.773  -4.902  0.00  0.00    +0.253 C 
ATOM     16  O   UNL     1       2.173   4.206  -5.544  0.00  0.00    -0.465 OA
ENDBRANCH   1  16
TORSDOF 1
ENDMDL
MODEL 2
REMARK VINA RESULT:      -6.5      4.731      7.379
REMARK  Name = 
REMARK  1 active torsions:
REMARK  status: ('A' for Active; 'I' for Inactive)
REMARK    1  A    between atoms: O_2  and  C_3
REMARK                            x       y       z     vdW  Elec       q    Type
REMARK                         _______ _______ _______ _____ _____    ______ ____
ROOT
ATOM      1  C   UNL     1       5.080   5.829 -11.666  0.00  0.00    +0.207 A 
ATOM      2  C   UNL     1       4.793   5.393 -10.382  0.00  0.00    +0.185 A 
ATOM      3  C   UNL     1       5.723   5.629  -9.382  0.00  0.00    +0.038 A 
ATOM      4  C   UNL     1       5.391   5.336  -8.071  0.00  0.00    +0.010 A 
ATOM      5  C   UNL     1       4.148   4.757  -7.890  0.00  0.00    +0.082 A 
ATOM      6  C   UNL     1       3.369   4.366  -8.968  0.00  0.00    +0.346 A 
ATOM      7  O   UNL     1       2.188   4.017  -8.711  0.00  0.00    -0.244 OA
ATOM      8  C   UNL     1       6.949   6.174  -9.731  0.00  0.00    +0.006 A 
ATOM      9  C   UNL     1       7.345   6.232 -11.063  0.00  0.00    +0.041 A 
ATOM     10  C   UNL     1       8.560   6.004 -11.697  0.00  0.00    +0.044 A 
ATOM     11  C   UNL     1       8.301   5.622 -13.008  0.00  0.00    +0.180 A 
ATOM     12  O   UNL     1       7.039   5.960 -13.208  0.00  0.00    -0.447 OA
ATOM     13  O   UNL     1       3.716   4.683 -10.202  0.00  0.00    -0.418 OA
ATOM     14  C   UNL     1       6.400   6.013 -12.056  0.00  0.00    +0.182 A 
ENDROOT
BRANCH   1  16
ATOM     15  C   UNL     1       3.738   5.268 -13.659  0.00  0.00    +0.253 C 
ATOM     16  O   UNL     1       4.085   6.110 -12.576  0.00  0.00    -0.465 OA
ENDBRANCH   1  16
TORSDOF 1
ENDMDL
MODEL 3
REMARK VINA RESULT:      -6.5      3.848      7.615
REMARK  Name = 
REMARK  1 active torsions:
REMARK  status: ('A' for Active; 'I' for Inactive)
REMARK    1  A    between atoms: O_2  and  C_3
REMARK                            x       y       z     vdW  Elec       q    Type
REMARK                         _______ _______ _______ _____ _____    ______ ____
ROOT
ATOM      1  C   UNL     1       3.778   6.357  -9.628  0.00  0.00    +0.207 A 
ATOM      2  C   UNL     1       5.055   6.435 -10.163  0.00  0.00    +0.185 A 
ATOM      3  C   UNL     1       6.087   5.788  -9.502  0.00  0.00    +0.038 A 
ATOM      4  C   UNL     1       7.335   5.730 -10.098  0.00  0.00    +0.010 A 
ATOM      5  C   UNL     1       7.449   6.400 -11.303  0.00  0.00    +0.082 A 
ATOM      6  C   UNL     1       6.421   7.193 -11.787  0.00  0.00    +0.346 A 
ATOM      7  O   UNL     1       6.544   7.615 -12.966  0.00  0.00    -0.244 OA
ATOM      8  C   UNL     1       5.826   5.203  -8.273  0.00  0.00    +0.006 A 
ATOM      9  C   UNL     1       4.645   5.481  -7.593  0.00  0.00    +0.041 A 
ATOM     10  C   UNL     1       4.359   5.711  -6.253  0.00  0.00    +0.044 A 
ATOM     11  C   UNL     1       3.211   6.492  -6.181  0.00  0.00    +0.180 A 
ATOM     12  O   UNL     1       2.678   6.407  -7.387  0.00  0.00    -0.447 OA
ATOM     13  O   UNL     1       5.240   7.206 -11.196  0.00  0.00    -0.418 OA
ATOM     14  C   UNL     1       3.610   6.111  -8.271  0.00  0.00    +0.182 A 
ENDROOT
BRANCH   1  16
ATOM     15  C   UNL     1       1.726   5.459 -10.660  0.00  0.00    +0.253 C 
ATOM     16  O   UNL     1       2.654   6.497 -10.411  0.00  0.00    -0.465 OA
ENDBRANCH   1  16
TORSDOF 1
ENDMDL
MODEL 4
REMARK VINA RESULT:      -6.4      3.334      7.276
REMARK  Name = 
REMARK  1 active torsions:
REMARK  status: ('A' for Active; 'I' for Inactive)
REMARK    1  A    between atoms: O_2  and  C_3
REMARK                            x       y       z     vdW  Elec       q    Type
REMARK                         _______ _______ _______ _____ _____    ______ ____
ROOT
ATOM      1  C   UNL     1       3.094   6.099 -10.397  0.00  0.00    +0.207 A 
ATOM      2  C   UNL     1       4.446   6.404 -10.361  0.00  0.00    +0.185 A 
ATOM      3  C   UNL     1       5.280   5.613  -9.588  0.00  0.00    +0.038 A 
ATOM      4  C   UNL     1       6.649   5.809  -9.658  0.00  0.00    +0.010 A 
ATOM      5  C   UNL     1       7.058   6.852 -10.469  0.00  0.00    +0.082 A 
ATOM      6  C   UNL     1       6.143   7.722 -11.042  0.00  0.00    +0.346 A 
ATOM      7  O   UNL     1       6.592   8.524 -11.902  0.00  0.00    -0.244 OA
ATOM      8  C   UNL     1       4.713   4.635  -8.786  0.00  0.00    +0.006 A 
ATOM      9  C   UNL     1       3.342   4.619  -8.551  0.00  0.00    +0.041 A 
ATOM     10  C   UNL     1       2.582   4.369  -7.416  0.00  0.00    +0.044 A 
ATOM     11  C   UNL     1       1.368   5.033  -7.550  0.00  0.00    +0.180 A 
ATOM     12  O   UNL     1       1.301   5.342  -8.833  0.00  0.00    -0.447 OA
ATOM     13  O   UNL     1       4.846   7.487 -10.965  0.00  0.00    -0.418 OA
ATOM     14  C   UNL     1       2.514   5.401  -9.346  0.00  0.00    +0.182 A 
ENDROOT
BRANCH   1  16
ATOM     15  C   UNL     1       1.795   5.536 -12.416  0.00  0.00    +0.253 C 
ATOM     16  O   UNL     1       2.299   6.452 -11.464  0.00  0.00    -0.465 OA
ENDBRANCH   1  16
TORSDOF 1
ENDMDL
MODEL 5
REMARK VINA RESULT:      -6.4      2.109      3.376
REMARK  Name = 
REMARK  1 active torsions:
REMARK  status: ('A' for Active; 'I' for Inactive)
REMARK    1  A    between atoms: O_2  and  C_3
REMARK                            x       y       z     vdW  Elec       q    Type
REMARK                         _______ _______ _______ _____ _____    ______ ____
ROOT
ATOM      1  C   UNL     1       0.941   5.489  -8.837  0.00  0.00    +0.207 A 
ATOM      2  C   UNL     1       0.295   5.756  -7.640  0.00  0.00    +0.185 A 
ATOM      3  C   UNL     1       0.978   6.469  -6.667  0.00  0.00    +0.038 A 
ATOM      4  C   UNL     1       0.300   6.873  -5.529  0.00  0.00    +0.010 A 
ATOM      5  C   UNL     1      -1.016   6.456  -5.443  0.00  0.00    +0.082 A 
ATOM      6  C   UNL     1      -1.555   5.572  -6.365  0.00  0.00    +0.346 A 
ATOM      7  O   UNL     1      -2.799   5.392  -6.311  0.00  0.00    -0.244 OA
ATOM      8  C   UNL     1       2.313   6.772  -6.879  0.00  0.00    +0.006 A 
ATOM      9  C   UNL     1       3.025   6.154  -7.902  0.00  0.00    +0.041 A 
ATOM     10  C   UNL     1       4.315   5.645  -7.981  0.00  0.00    +0.044 A 
ATOM     11  C   UNL     1       4.334   4.654  -8.955  0.00  0.00    +0.180 A 
ATOM     12  O   UNL     1       3.215   4.839  -9.635  0.00  0.00    -0.447 OA
ATOM     13  O   UNL     1      -0.880   5.227  -7.446  0.00  0.00    -0.418 OA
ATOM     14  C   UNL     1       2.329   5.460  -8.883  0.00  0.00    +0.182 A 
ENDROOT
BRANCH   1  16
ATOM     15  C   UNL     1      -0.096   6.283 -10.929  0.00  0.00    +0.253 C 
ATOM     16  O   UNL     1       0.244   5.269 -10.004  0.00  0.00    -0.465 OA
ENDBRANCH   1  16
TORSDOF 1
ENDMDL
MODEL 6
REMARK VINA RESULT:      -6.3      2.333      3.554
REMARK  Name = 
REMARK  1 active torsions:
REMARK  status: ('A' for Active; 'I' for Inactive)
REMARK    1  A    between atoms: O_2  and  C_3
REMARK                            x       y       z     vdW  Elec       q    Type
REMARK                         _______ _______ _______ _____ _____    ______ ____
ROOT
ATOM      1  C   UNL     1       1.325   5.811  -3.507  0.00  0.00    +0.207 A 
ATOM      2  C   UNL     1       0.369   5.852  -4.510  0.00  0.00    +0.185 A 
ATOM      3  C   UNL     1       0.608   5.144  -5.677  0.00  0.00    +0.038 A 
ATOM      4  C   UNL     1      -0.396   5.051  -6.625  0.00  0.00    +0.010 A 
ATOM      5  C   UNL     1      -1.554   5.749  -6.334  0.00  0.00    +0.082 A 
ATOM      6  C   UNL     1      -1.629   6.598  -5.240  0.00  0.00    +0.346 A 
ATOM      7  O   UNL     1      -2.769   7.048  -4.954  0.00  0.00    -0.244 OA
ATOM      8  C   UNL     1       1.842   4.535  -5.844  0.00  0.00    +0.006 A 
ATOM      9  C   UNL     1       2.903   4.843  -5.000  0.00  0.00    +0.041 A 
ATOM     10  C   UNL     1       4.259   5.047  -5.223  0.00  0.00    +0.044 A 
ATOM     11  C   UNL     1       4.747   5.872  -4.217  0.00  0.00    +0.180 A 
ATOM     12  O   UNL     1       3.811   5.844  -3.284  0.00  0.00    -0.447 OA
ATOM     13  O   UNL     1      -0.654   6.643  -4.351  0.00  0.00    -0.418 OA
ATOM     14  C   UNL     1       2.648   5.535  -3.823  0.00  0.00    +0.182 A 
ENDROOT
BRANCH   1  16
ATOM     15  C   UNL     1       0.959   4.999  -1.207  0.00  0.00    +0.253 C 
ATOM     16  O   UNL     1       0.998   6.020  -2.185  0.00  0.00    -0.465 OA
ENDBRANCH   1  16
TORSDOF 1
ENDMDL
MODEL 7
REMARK VINA RESULT:      -6.2      2.286      4.944
REMARK  Name = 
REMARK  1 active torsions:
REMARK  status: ('A' for Active; 'I' for Inactive)
REMARK    1  A    between atoms: O_2  and  C_3
REMARK                            x       y       z     vdW  Elec       q    Type
REMARK                         _______ _______ _______ _____ _____    ______ ____
ROOT
ATOM      1  C   UNL     1       0.499   5.438  -3.120  0.00  0.00    +0.207 A 
ATOM      2  C   UNL     1       1.332   5.721  -4.191  0.00  0.00    +0.185 A 
ATOM      3  C   UNL     1       0.895   6.627  -5.145  0.00  0.00    +0.038 A 
ATOM      4  C   UNL     1       1.771   7.034  -6.137  0.00  0.00    +0.010 A 
ATOM      5  C   UNL     1       3.014   6.428  -6.116  0.00  0.00    +0.082 A 
ATOM      6  C   UNL     1       3.293   5.381  -5.250  0.00  0.00    +0.346 A 
ATOM      7  O   UNL     1       4.495   5.016  -5.178  0.00  0.00    -0.244 OA
ATOM      8  C   UNL     1      -0.400   7.111  -5.057  0.00  0.00    +0.006 A 
ATOM      9  C   UNL     1      -1.324   6.511  -4.208  0.00  0.00    +0.041 A 
ATOM     10  C   UNL     1      -2.672   6.205  -4.345  0.00  0.00    +0.044 A 
ATOM     11  C   UNL     1      -2.963   5.135  -3.507  0.00  0.00    +0.180 A 
ATOM     12  O   UNL     1      -1.931   5.072  -2.682  0.00  0.00    -0.447 OA
ATOM     13  O   UNL     1       2.435   5.038  -4.307  0.00  0.00    -0.418 OA
ATOM     14  C   UNL     1      -0.872   5.621  -3.243  0.00  0.00    +0.182 A 
ENDROOT
BRANCH   1  16
ATOM     15  C   UNL     1       1.175   5.817  -0.779  0.00  0.00    +0.253 C 
ATOM     16  O   UNL     1       0.993   4.994  -1.914  0.00  0.00    -0.465 OA
ENDBRANCH   1  16
TORSDOF 1
ENDMDL
MODEL 8
REMARK VINA RESULT:      -6.2      5.053      6.642
REMARK  Name = 
REMARK  1 active torsions:
REMARK  status: ('A' for Active; 'I' for Inactive)
REMARK    1  A    between atoms: O_2  and  C_3
REMARK                            x       y       z     vdW  Elec       q    Type
REMARK                         _______ _______ _______ _____ _____    ______ ____
ROOT
ATOM      1  C   UNL     1       3.161   5.984 -11.709  0.00  0.00    +0.207 A 
ATOM      2  C   UNL     1       3.886   5.728 -10.555  0.00  0.00    +0.185 A 
ATOM      3  C   UNL     1       3.222   5.189  -9.464  0.00  0.00    +0.038 A 
ATOM      4  C   UNL     1       3.955   4.789  -8.360  0.00  0.00    +0.010 A 
ATOM      5  C   UNL     1       5.315   5.035  -8.431  0.00  0.00    +0.082 A 
ATOM      6  C   UNL     1       5.863   5.766  -9.473  0.00  0.00    +0.346 A 
ATOM      7  O   UNL     1       7.120   5.784  -9.547  0.00  0.00    -0.244 OA
ATOM      8  C   UNL     1       1.845   5.049  -9.528  0.00  0.00    +0.006 A 
ATOM      9  C   UNL     1       1.116   5.674 -10.535  0.00  0.00    +0.041 A 
ATOM     10  C   UNL     1      -0.103   6.340 -10.543  0.00  0.00    +0.044 A 
ATOM     11  C   UNL     1      -0.097   7.246 -11.597  0.00  0.00    +0.180 A 
ATOM     12  O   UNL     1       0.916   6.863 -12.355  0.00  0.00    -0.447 OA
ATOM     13  O   UNL     1       5.131   6.112 -10.516  0.00  0.00    -0.418 OA
ATOM     14  C   UNL     1       1.790   6.192 -11.632  0.00  0.00    +0.182 A 
ENDROOT
BRANCH   1  16
ATOM     15  C   UNL     1       3.652   4.988 -13.911  0.00  0.00    +0.253 C 
ATOM     16  O   UNL     1       3.759   6.019 -12.948  0.00  0.00    -0.465 OA
ENDBRANCH   1  16
TORSDOF 1
ENDMDL
MODEL 9
REMARK VINA RESULT:      -6.1      1.771      3.860
REMARK  Name = 
REMARK  1 active torsions:
REMARK  status: ('A' for Active; 'I' for Inactive)
REMARK    1  A    between atoms: O_2  and  C_3
REMARK                            x       y       z     vdW  Elec       q    Type
REMARK                         _______ _______ _______ _____ _____    ______ ____
ROOT
ATOM      1  C   UNL     1       0.937   5.570  -6.096  0.00  0.00    +0.207 A 
ATOM      2  C   UNL     1       2.182   5.783  -5.524  0.00  0.00    +0.185 A 
ATOM      3  C   UNL     1       3.006   6.749  -6.080  0.00  0.00    +0.038 A 
ATOM      4  C   UNL     1       4.186   7.079  -5.435  0.00  0.00    +0.010 A 
ATOM      5  C   UNL     1       4.467   6.342  -4.299  0.00  0.00    +0.082 A 
ATOM      6  C   UNL     1       3.688   5.255  -3.933  0.00  0.00    +0.346 A 
ATOM      7  O   UNL     1       3.911   4.761  -2.797  0.00  0.00    -0.244 OA
ATOM      8  C   UNL     1       2.606   7.368  -7.254  0.00  0.00    +0.006 A 
ATOM      9  C   UNL     1       1.551   6.854  -8.001  0.00  0.00    +0.041 A 
ATOM     10  C   UNL     1       1.351   6.697  -9.367  0.00  0.00    +0.044 A 
ATOM     11  C   UNL     1       0.459   5.649  -9.558  0.00  0.00    +0.180 A 
ATOM     12  O   UNL     1      -0.088   5.460  -8.369  0.00  0.00    -0.447 OA
ATOM     13  O   UNL     1       2.560   4.987  -4.565  0.00  0.00    -0.418 OA
ATOM     14  C   UNL     1       0.720   5.902  -7.427  0.00  0.00    +0.182 A 
ENDROOT
BRANCH   1  16
ATOM     15  C   UNL     1      -1.176   5.825  -4.849  0.00  0.00    +0.253 C 
ATOM     16  O   UNL     1      -0.114   5.052  -5.372  0.00  0.00    -0.465 OA
ENDBRANCH   1  16
TORSDOF 1
ENDMDL
