MODEL 1
REMARK VINA RESULT:      -6.7      0.000      0.000
REMARK  Name = 
REMARK  6 active torsions:
REMARK  status: ('A' for Active; 'I' for Inactive)
REMARK    1  A    between atoms: C_2  and  O_3
REMARK    2  A    between atoms: O_3  and  C_4
REMARK    3  A    between atoms: C_4  and  C_6
REMARK    4  A    between atoms: C_12  and  C_13
REMARK    5  A    between atoms: C_13  and  O_15
REMARK    6  A    between atoms: C_17  and  C_18
REMARK                            x       y       z     vdW  Elec       q    Type
REMARK                         _______ _______ _______ _____ _____    ______ ____
ROOT
ATOM      1  C   UNL     1       1.969   6.026  -5.934  0.00  0.00    +0.073 C 
ATOM      2  C   UNL     1       1.828   7.022  -4.647  0.00  0.00    +0.082 C 
ATOM      3  C   UNL     1       3.245   6.571  -3.982  0.00  0.00    +0.073 C 
ATOM      4  C   UNL     1       3.510   5.344  -3.821  0.00  0.00    +0.051 C 
ATOM      5  C   UNL     1       4.660   5.012  -2.920  0.00  0.00    +0.049 C 
ATOM      6  N   UNL     1       2.955   4.384  -4.667  0.00  0.00    -0.221 NA
ATOM      7  C   UNL     1       2.093   4.762  -5.705  0.00  0.00    +0.051 C 
ATOM      8  C   UNL     1       2.008   3.858  -6.897  0.00  0.00    +0.049 C 
ENDROOT
BRANCH   2   9
ATOM      9  C   UNL     1       0.882   6.002  -3.782  0.00  0.00    -0.002 A 
ATOM     10  C   UNL     1      -0.451   6.365  -3.980  0.00  0.00    +0.065 A 
ATOM     11 CL   UNL     1      -0.962   7.803  -4.861  0.00  0.00    -0.082 Cl
ATOM     12  C   UNL     1      -1.402   5.899  -3.076  0.00  0.00    +0.068 A 
ATOM     13 CL   UNL     1      -3.114   6.211  -3.339  0.00  0.00    -0.081 Cl
ATOM     14  C   UNL     1      -0.969   5.161  -1.981  0.00  0.00    +0.012 A 
ATOM     15  C   UNL     1       0.392   5.029  -1.733  0.00  0.00    +0.001 A 
ATOM     16  C   UNL     1       1.199   5.928  -2.426  0.00  0.00    -0.003 A 
ENDBRANCH   2   9
BRANCH   1  17
ATOM     17  C   UNL     1       1.060   6.403  -7.034  0.00  0.00    +0.339 C 
ATOM     18  O   UNL     1       0.055   5.681  -7.318  0.00  0.00    -0.245 OA
BRANCH  17  19
ATOM     19  O   UNL     1       1.610   7.074  -8.130  0.00  0.00    -0.446 OA
BRANCH  19  21
ATOM     20  C   UNL     1       3.430   6.751  -9.174  0.00  0.00    +0.051 C 
ATOM     21  C   UNL     1       3.004   7.081  -8.398  0.00  0.00    +0.209 C 
ENDBRANCH  19  21
ENDBRANCH  17  19
ENDBRANCH   1  17
BRANCH   3  22
ATOM     22  C   UNL     1       4.069   7.716  -3.640  0.00  0.00    +0.339 C 
ATOM     23  O   UNL     1       5.053   8.083  -4.322  0.00  0.00    -0.245 OA
BRANCH  22  24
ATOM     24  O   UNL     1       3.719   8.505  -2.566  0.00  0.00    -0.442 OA
ATOM     25  C   UNL     1       4.001   8.089  -1.231  0.00  0.00    +0.256 C 
ENDBRANCH  22  24
ENDBRANCH   3  22
TORSDOF 6
ENDMDL
MODEL 2
REMARK VINA RESULT:      -5.9      2.085      5.117
REMARK  Name = 
REMARK  6 active torsions:
REMARK  status: ('A' for Active; 'I' for Inactive)
REMARK    1  A    between atoms: C_2  and  O_3
REMARK    2  A    between atoms: O_3  and  C_4
REMARK    3  A    between atoms: C_4  and  C_6
REMARK    4  A    between atoms: C_12  and  C_13
REMARK    5  A    between atoms: C_13  and  O_15
REMARK    6  A    between atoms: C_17  and  C_18
REMARK                            x       y       z     vdW  Elec       q    Type
REMARK                         _______ _______ _______ _____ _____    ______ ____
ROOT
ATOM      1  C   UNL     1       3.254   6.043  -3.508  0.00  0.00    +0.073 C 
ATOM      2  C   UNL     1       2.001   5.160  -4.073  0.00  0.00    +0.082 C 
ATOM      3  C   UNL     1       2.300   5.501  -5.637  0.00  0.00    +0.073 C 
ATOM      4  C   UNL     1       2.462   6.702  -6.007  0.00  0.00    +0.051 C 
ATOM      5  C   UNL     1       2.404   6.970  -7.480  0.00  0.00    +0.049 C 
ATOM      6  N   UNL     1       2.959   7.654  -5.118  0.00  0.00    -0.221 NA
ATOM      7  C   UNL     1       3.284   7.299  -3.802  0.00  0.00    +0.051 C 
ATOM      8  C   UNL     1       4.322   8.122  -3.101  0.00  0.00    +0.049 C 
ENDROOT
BRANCH   2   9
ATOM      9  C   UNL     1       0.883   6.334  -3.836  0.00  0.00    -0.002 A 
ATOM     10  C   UNL     1       0.215   6.069  -2.639  0.00  0.00    +0.065 A 
ATOM     11 CL   UNL     1       0.440   4.603  -1.687  0.00  0.00    -0.082 Cl
ATOM     12  C   UNL     1      -1.008   6.697  -2.414  0.00  0.00    +0.068 A 
ATOM     13 CL   UNL     1      -1.839   6.508  -0.875  0.00  0.00    -0.081 Cl
ATOM     14  C   UNL     1      -1.538   7.494  -3.421  0.00  0.00    +0.012 A 
ATOM     15  C   UNL     1      -0.922   7.533  -4.666  0.00  0.00    +0.001 A 
ATOM     16  C   UNL     1      -0.008   6.507  -4.895  0.00  0.00    -0.003 A 
ENDBRANCH   2   9
BRANCH   1  17
ATOM     17  C   UNL     1       3.604   5.690  -2.119  0.00  0.00    +0.339 C 
ATOM     18  O   UNL     1       3.762   4.477  -1.780  0.00  0.00    -0.245 OA
BRANCH  17  19
ATOM     19  O   UNL     1       3.112   6.509  -1.097  0.00  0.00    -0.446 OA
BRANCH  19  21
ATOM     20  C   UNL     1       4.707   6.941   0.237  0.00  0.00    +0.051 C 
ATOM     21  C   UNL     1       3.802   6.691   0.130  0.00  0.00    +0.209 C 
ENDBRANCH  19  21
ENDBRANCH  17  19
ENDBRANCH   1  17
BRANCH   3  22
ATOM     22  C   UNL     1       2.345   4.302  -6.452  0.00  0.00    +0.339 C 
ATOM     23  O   UNL     1       1.583   3.324  -6.280  0.00  0.00    -0.245 OA
BRANCH  22  24
ATOM     24  O   UNL     1       3.201   4.248  -7.531  0.00  0.00    -0.442 OA
ATOM     25  C   UNL     1       2.770   3.708  -8.780  0.00  0.00    +0.256 C 
ENDBRANCH  22  24
ENDBRANCH   3  22
TORSDOF 6
ENDMDL
MODEL 3
REMARK VINA RESULT:      -5.5      2.374      5.189
REMARK  Name = 
REMARK  6 active torsions:
REMARK  status: ('A' for Active; 'I' for Inactive)
REMARK    1  A    between atoms: C_2  and  O_3
REMARK    2  A    between atoms: O_3  and  C_4
REMARK    3  A    between atoms: C_4  and  C_6
REMARK    4  A    between atoms: C_12  and  C_13
REMARK    5  A    between atoms: C_13  and  O_15
REMARK    6  A    between atoms: C_17  and  C_18
REMARK                            x       y       z     vdW  Elec       q    Type
REMARK                         _______ _______ _______ _____ _____    ______ ____
ROOT
ATOM      1  C   UNL     1       2.915   6.388  -2.399  0.00  0.00    +0.073 C 
ATOM      2  C   UNL     1       1.926   5.406  -3.250  0.00  0.00    +0.082 C 
ATOM      3  C   UNL     1       2.712   5.624  -4.660  0.00  0.00    +0.073 C 
ATOM      4  C   UNL     1       2.970   6.794  -5.070  0.00  0.00    +0.051 C 
ATOM      5  C   UNL     1       3.391   6.931  -6.502  0.00  0.00    +0.049 C 
ATOM      6  N   UNL     1       3.138   7.840  -4.164  0.00  0.00    -0.221 NA
ATOM      7  C   UNL     1       3.022   7.614  -2.786  0.00  0.00    +0.051 C 
ATOM      8  C   UNL     1       3.765   8.540  -1.870  0.00  0.00    +0.049 C 
ENDROOT
BRANCH   2   9
ATOM      9  C   UNL     1       0.776   6.546  -3.500  0.00  0.00    -0.002 A 
ATOM     10  C   UNL     1      -0.279   6.307  -2.617  0.00  0.00    +0.065 A 
ATOM     11 CL   UNL     1      -0.389   4.892  -1.572  0.00  0.00    -0.082 Cl
ATOM     12  C   UNL     1      -1.511   6.897  -2.887  0.00  0.00    +0.068 A 
ATOM     13 CL   UNL     1      -2.844   6.743  -1.749  0.00  0.00    -0.081 Cl
ATOM     14  C   UNL     1      -1.651   7.631  -4.058  0.00  0.00    +0.012 A 
ATOM     15  C   UNL     1      -0.623   7.641  -4.994  0.00  0.00    +0.001 A 
ATOM     16  C   UNL     1       0.331   6.641  -4.818  0.00  0.00    -0.003 A 
ENDBRANCH   2   9
BRANCH   1  17
ATOM     17  C   UNL     1       2.798   6.172  -0.944  0.00  0.00    +0.339 C 
ATOM     18  O   UNL     1       3.470   5.260  -0.370  0.00  0.00    -0.245 OA
BRANCH  17  19
ATOM     19  O   UNL     1       1.562   6.435  -0.345  0.00  0.00    -0.446 OA
BRANCH  19  21
ATOM     20  C   UNL     1       0.532   7.839   0.871  0.00  0.00    +0.051 C 
ATOM     21  C   UNL     1       1.360   7.532   0.534  0.00  0.00    +0.209 C 
ENDBRANCH  19  21
ENDBRANCH  17  19
ENDBRANCH   1  17
BRANCH   3  22
ATOM     22  C   UNL     1       3.036   4.362  -5.298  0.00  0.00    +0.339 C 
ATOM     23  O   UNL     1       4.076   3.711  -5.047  0.00  0.00    -0.245 OA
BRANCH  22  24
ATOM     24  O   UNL     1       2.128   3.787  -6.161  0.00  0.00    -0.442 OA
ATOM     25  C   UNL     1       2.344   3.811  -7.571  0.00  0.00    +0.256 C 
ENDBRANCH  22  24
ENDBRANCH   3  22
TORSDOF 6
ENDMDL
MODEL 4
REMARK VINA RESULT:      -5.3      3.010      4.903
REMARK  Name = 
REMARK  6 active torsions:
REMARK  status: ('A' for Active; 'I' for Inactive)
REMARK    1  A    between atoms: C_2  and  O_3
REMARK    2  A    between atoms: O_3  and  C_4
REMARK    3  A    between atoms: C_4  and  C_6
REMARK    4  A    between atoms: C_12  and  C_13
REMARK    5  A    between atoms: C_13  and  O_15
REMARK    6  A    between atoms: C_17  and  C_18
REMARK                            x       y       z     vdW  Elec       q    Type
REMARK                         _______ _______ _______ _____ _____    ______ ____
ROOT
ATOM      1  C   UNL     1       0.973   6.018  -6.986  0.00  0.00    +0.073 C 
ATOM      2  C   UNL     1       0.450   5.135  -5.715  0.00  0.00    +0.082 C 
ATOM      3  C   UNL     1      -0.751   6.166  -5.330  0.00  0.00    +0.073 C 
ATOM      4  C   UNL     1      -0.511   7.403  -5.202  0.00  0.00    +0.051 C 
ATOM      5  C   UNL     1      -1.567   8.232  -4.536  0.00  0.00    +0.049 C 
ATOM      6  N   UNL     1       0.536   7.996  -5.906  0.00  0.00    -0.221 NA
ATOM      7  C   UNL     1       1.341   7.234  -6.762  0.00  0.00    +0.051 C 
ATOM      8  C   UNL     1       2.011   7.947  -7.898  0.00  0.00    +0.049 C 
ENDROOT
BRANCH   2   9
ATOM      9  C   UNL     1       1.555   5.734  -4.663  0.00  0.00    -0.002 A 
ATOM     10  C   UNL     1       2.732   4.997  -4.796  0.00  0.00    +0.065 A 
ATOM     11 CL   UNL     1       2.886   3.556  -5.797  0.00  0.00    -0.082 Cl
ATOM     12  C   UNL     1       3.672   5.066  -3.771  0.00  0.00    +0.068 A 
ATOM     13 CL   UNL     1       5.231   4.266  -3.933  0.00  0.00    -0.081 Cl
ATOM     14  C   UNL     1       3.360   5.802  -2.634  0.00  0.00    +0.012 A 
ATOM     15  C   UNL     1       2.081   6.325  -2.481  0.00  0.00    +0.001 A 
ATOM     16  C   UNL     1       1.125   5.782  -3.337  0.00  0.00    -0.003 A 
ENDBRANCH   2   9
BRANCH   1  17
ATOM     17  C   UNL     1       1.832   5.233  -7.894  0.00  0.00    +0.339 C 
ATOM     18  O   UNL     1       3.046   5.558  -8.076  0.00  0.00    -0.245 OA
BRANCH  17  19
ATOM     19  O   UNL     1       1.228   4.633  -9.003  0.00  0.00    -0.446 OA
BRANCH  19  21
ATOM     20  C   UNL     1       0.161   5.518 -10.612  0.00  0.00    +0.051 C 
ATOM     21  C   UNL     1       0.156   5.241  -9.708  0.00  0.00    +0.209 C 
ENDBRANCH  19  21
ENDBRANCH  17  19
ENDBRANCH   1  17
BRANCH   3  22
ATOM     22  C   UNL     1      -2.021   5.482  -5.177  0.00  0.00    +0.339 C 
ATOM     23  O   UNL     1      -2.796   5.247  -6.132  0.00  0.00    -0.245 OA
BRANCH  22  24
ATOM     24  O   UNL     1      -2.374   4.979  -3.943  0.00  0.00    -0.442 OA
ATOM     25  C   UNL     1      -3.409   5.590  -3.174  0.00  0.00    +0.256 C 
ENDBRANCH  22  24
ENDBRANCH   3  22
TORSDOF 6
ENDMDL
MODEL 5
REMARK VINA RESULT:      -4.9      2.660      4.941
REMARK  Name = 
REMARK  6 active torsions:
REMARK  status: ('A' for Active; 'I' for Inactive)
REMARK    1  A    between atoms: C_2  and  O_3
REMARK    2  A    between atoms: O_3  and  C_4
REMARK    3  A    between atoms: C_4  and  C_6
REMARK    4  A    between atoms: C_12  and  C_13
REMARK    5  A    between atoms: C_13  and  O_15
REMARK    6  A    between atoms: C_17  and  C_18
REMARK                            x       y       z     vdW  Elec       q    Type
REMARK                         _______ _______ _______ _____ _____    ______ ____
ROOT
ATOM      1  C   UNL     1       0.830   6.324  -5.478  0.00  0.00    +0.073 C 
ATOM      2  C   UNL     1       2.349   6.852  -5.763  0.00  0.00    +0.082 C 
ATOM      3  C   UNL     1       2.505   6.040  -7.166  0.00  0.00    +0.073 C 
ATOM      4  C   UNL     1       2.230   4.805  -7.221  0.00  0.00    +0.051 C 
ATOM      5  C   UNL     1       2.702   4.060  -8.432  0.00  0.00    +0.049 C 
ATOM      6  N   UNL     1       1.292   4.251  -6.351  0.00  0.00    -0.221 NA
ATOM      7  C   UNL     1       0.641   5.050  -5.402  0.00  0.00    +0.051 C 
ATOM      8  C   UNL     1      -0.711   4.604  -4.934  0.00  0.00    +0.049 C 
ENDROOT
BRANCH   2   9
ATOM      9  C   UNL     1       3.069   5.726  -4.815  0.00  0.00    -0.002 A 
ATOM     10  C   UNL     1       3.287   6.287  -3.555  0.00  0.00    +0.065 A 
ATOM     11 CL   UNL     1       2.997   7.981  -3.166  0.00  0.00    -0.082 Cl
ATOM     12  C   UNL     1       4.205   5.671  -2.709  0.00  0.00    +0.068 A 
ATOM     13 CL   UNL     1       4.431   6.249  -1.063  0.00  0.00    -0.081 Cl
ATOM     14  C   UNL     1       4.915   4.575  -3.187  0.00  0.00    +0.012 A 
ATOM     15  C   UNL     1       4.804   4.212  -4.524  0.00  0.00    +0.001 A 
ATOM     16  C   UNL     1       4.241   5.185  -5.346  0.00  0.00    -0.003 A 
ENDBRANCH   2   9
BRANCH   1  17
ATOM     17  C   UNL     1       0.132   7.148  -4.472  0.00  0.00    +0.339 C 
ATOM     18  O   UNL     1      -0.094   6.693  -3.309  0.00  0.00    -0.245 OA
BRANCH  17  19
ATOM     19  O   UNL     1      -0.829   8.055  -4.928  0.00  0.00    -0.446 OA
BRANCH  19  21
ATOM     20  C   UNL     1      -2.831   7.461  -5.314  0.00  0.00    +0.051 C 
ATOM     21  C   UNL     1      -2.219   7.861  -4.715  0.00  0.00    +0.209 C 
ENDBRANCH  19  21
ENDBRANCH  17  19
ENDBRANCH   1  17
BRANCH   3  22
ATOM     22  C   UNL     1       2.969   6.900  -8.239  0.00  0.00    +0.339 C 
ATOM     23  O   UNL     1       2.355   7.926  -8.612  0.00  0.00    -0.245 OA
BRANCH  22  24
ATOM     24  O   UNL     1       4.186   6.646  -8.832  0.00  0.00    -0.442 OA
ATOM     25  C   UNL     1       4.373   6.848 -10.232  0.00  0.00    +0.256 C 
ENDBRANCH  22  24
ENDBRANCH   3  22
TORSDOF 6
ENDMDL
MODEL 6
REMARK VINA RESULT:      -4.9      3.281      5.495
REMARK  Name = 
REMARK  6 active torsions:
REMARK  status: ('A' for Active; 'I' for Inactive)
REMARK    1  A    between atoms: C_2  and  O_3
REMARK    2  A    between atoms: O_3  and  C_4
REMARK    3  A    between atoms: C_4  and  C_6
REMARK    4  A    between atoms: C_12  and  C_13
REMARK    5  A    between atoms: C_13  and  O_15
REMARK    6  A    between atoms: C_17  and  C_18
REMARK                            x       y       z     vdW  Elec       q    Type
REMARK                         _______ _______ _______ _____ _____    ______ ____
ROOT
ATOM      1  C   UNL     1       2.045   5.874  -6.552  0.00  0.00    +0.073 C 
ATOM      2  C   UNL     1       3.281   4.807  -6.527  0.00  0.00    +0.082 C 
ATOM      3  C   UNL     1       4.061   5.544  -5.302  0.00  0.00    +0.073 C 
ATOM      4  C   UNL     1       4.285   6.790  -5.347  0.00  0.00    +0.051 C 
ATOM      5  C   UNL     1       5.276   7.336  -4.366  0.00  0.00    +0.049 C 
ATOM      6  N   UNL     1       3.438   7.634  -6.065  0.00  0.00    -0.221 NA
ATOM      7  C   UNL     1       2.329   7.118  -6.748  0.00  0.00    +0.051 C 
ATOM      8  C   UNL     1       1.167   8.038  -6.975  0.00  0.00    +0.049 C 
ENDROOT
BRANCH   2   9
ATOM      9  C   UNL     1       4.114   5.528  -7.740  0.00  0.00    -0.002 A 
ATOM     10  C   UNL     1       3.620   5.053  -8.956  0.00  0.00    +0.065 A 
ATOM     11 CL   UNL     1       2.437   3.756  -9.100  0.00  0.00    -0.082 Cl
ATOM     12  C   UNL     1       4.399   5.226 -10.097  0.00  0.00    +0.068 A 
ATOM     13 CL   UNL     1       3.780   4.768 -11.679  0.00  0.00    -0.081 Cl
ATOM     14  C   UNL     1       5.661   5.792  -9.958  0.00  0.00    +0.012 A 
ATOM     15  C   UNL     1       6.171   6.036  -8.688  0.00  0.00    +0.001 A 
ATOM     16  C   UNL     1       5.499   5.384  -7.657  0.00  0.00    -0.003 A 
ENDBRANCH   2   9
BRANCH   1  17
ATOM     17  C   UNL     1       0.871   5.352  -7.277  0.00  0.00    +0.339 C 
ATOM     18  O   UNL     1       0.524   5.852  -8.391  0.00  0.00    -0.245 OA
BRANCH  17  19
ATOM     19  O   UNL     1      -0.193   4.853  -6.519  0.00  0.00    -0.446 OA
BRANCH  19  21
ATOM     20  C   UNL     1      -2.082   5.736  -6.113  0.00  0.00    +0.051 C 
ATOM     21  C   UNL     1      -1.535   5.268  -6.726  0.00  0.00    +0.209 C 
ENDBRANCH  19  21
ENDBRANCH  17  19
ENDBRANCH   1  17
BRANCH   3  22
ATOM     22  C   UNL     1       4.417   4.611  -4.250  0.00  0.00    +0.339 C 
ATOM     23  O   UNL     1       5.483   3.954  -4.245  0.00  0.00    -0.245 OA
BRANCH  22  24
ATOM     24  O   UNL     1       3.601   4.490  -3.146  0.00  0.00    -0.442 OA
ATOM     25  C   UNL     1       4.043   4.920  -1.859  0.00  0.00    +0.256 C 
ENDBRANCH  22  24
ENDBRANCH   3  22
TORSDOF 6
ENDMDL
MODEL 7
REMARK VINA RESULT:      -4.5      5.719      7.740
REMARK  Name = 
REMARK  6 active torsions:
REMARK  status: ('A' for Active; 'I' for Inactive)
REMARK    1  A    between atoms: C_2  and  O_3
REMARK    2  A    between atoms: O_3  and  C_4
REMARK    3  A    between atoms: C_4  and  C_6
REMARK    4  A    between atoms: C_12  and  C_13
REMARK    5  A    between atoms: C_13  and  O_15
REMARK    6  A    between atoms: C_17  and  C_18
REMARK                            x       y       z     vdW  Elec       q    Type
REMARK                         _______ _______ _______ _____ _____    ______ ____
ROOT
ATOM      1  C   UNL     1       3.095   6.081 -13.021  0.00  0.00    +0.073 C 
ATOM      2  C   UNL     1       3.767   6.789 -11.711  0.00  0.00    +0.082 C 
ATOM      3  C   UNL     1       5.295   6.414 -12.133  0.00  0.00    +0.073 C 
ATOM      4  C   UNL     1       5.594   5.224 -12.447  0.00  0.00    +0.051 C 
ATOM      5  C   UNL     1       7.052   4.885 -12.501  0.00  0.00    +0.049 C 
ATOM      6  N   UNL     1       4.633   4.376 -12.997  0.00  0.00    -0.221 NA
ATOM      7  C   UNL     1       3.323   4.824 -13.207  0.00  0.00    +0.051 C 
ATOM      8  C   UNL     1       2.529   4.157 -14.289  0.00  0.00    +0.049 C 
ENDROOT
BRANCH   2   9
ATOM      9  C   UNL     1       3.526   5.508 -10.719  0.00  0.00    -0.002 A 
ATOM     10  C   UNL     1       2.318   5.695 -10.044  0.00  0.00    +0.065 A 
ATOM     11 CL   UNL     1       1.355   7.167 -10.137  0.00  0.00    -0.082 Cl
ATOM     12  C   UNL     1       2.083   4.947  -8.894  0.00  0.00    +0.068 A 
ATOM     13 CL   UNL     1       0.530   5.038  -8.071  0.00  0.00    -0.081 Cl
ATOM     14  C   UNL     1       3.090   4.109  -8.431  0.00  0.00    +0.012 A 
ATOM     15  C   UNL     1       4.344   4.142  -9.030  0.00  0.00    +0.001 A 
ATOM     16  C   UNL     1       4.575   5.256  -9.834  0.00  0.00    -0.003 A 
ENDBRANCH   2   9
BRANCH   1  17
ATOM     17  C   UNL     1       1.710   6.533 -13.252  0.00  0.00    +0.339 C 
ATOM     18  O   UNL     1       0.727   5.820 -12.883  0.00  0.00    -0.245 OA
BRANCH  17  19
ATOM     19  O   UNL     1       1.459   7.306 -14.390  0.00  0.00    -0.446 OA
BRANCH  19  21
ATOM     20  C   UNL     1       0.090   7.427 -16.008  0.00  0.00    +0.051 C 
ATOM     21  C   UNL     1       0.225   7.253 -15.089  0.00  0.00    +0.209 C 
ENDBRANCH  19  21
ENDBRANCH  17  19
ENDBRANCH   1  17
BRANCH   3  22
ATOM     22  C   UNL     1       6.167   7.573 -12.089  0.00  0.00    +0.339 C 
ATOM     23  O   UNL     1       6.477   8.238 -13.103  0.00  0.00    -0.245 OA
BRANCH  22  24
ATOM     24  O   UNL     1       6.617   8.036 -10.872  0.00  0.00    -0.442 OA
ATOM     25  C   UNL     1       7.662   7.360 -10.174  0.00  0.00    +0.256 C 
ENDBRANCH  22  24
ENDBRANCH   3  22
TORSDOF 6
ENDMDL
MODEL 8
REMARK VINA RESULT:      -4.5      2.768      4.960
REMARK  Name = 
REMARK  6 active torsions:
REMARK  status: ('A' for Active; 'I' for Inactive)
REMARK    1  A    between atoms: C_2  and  O_3
REMARK    2  A    between atoms: O_3  and  C_4
REMARK    3  A    between atoms: C_4  and  C_6
REMARK    4  A    between atoms: C_12  and  C_13
REMARK    5  A    between atoms: C_13  and  O_15
REMARK    6  A    between atoms: C_17  and  C_18
REMARK                            x       y       z     vdW  Elec       q    Type
REMARK                         _______ _______ _______ _____ _____    ______ ____
ROOT
ATOM      1  C   UNL     1       0.611   5.826  -4.352  0.00  0.00    +0.073 C 
ATOM      2  C   UNL     1       1.893   4.841  -4.120  0.00  0.00    +0.082 C 
ATOM      3  C   UNL     1       2.506   5.717  -2.891  0.00  0.00    +0.073 C 
ATOM      4  C   UNL     1       2.667   6.967  -3.018  0.00  0.00    +0.051 C 
ATOM      5  C   UNL     1       3.525   7.647  -1.995  0.00  0.00    +0.049 C 
ATOM      6  N   UNL     1       1.853   7.699  -3.882  0.00  0.00    -0.221 NA
ATOM      7  C   UNL     1       0.847   7.065  -4.622  0.00  0.00    +0.051 C 
ATOM      8  C   UNL     1      -0.332   7.893  -5.036  0.00  0.00    +0.049 C 
ENDROOT
BRANCH   2   9
ATOM      9  C   UNL     1       2.805   5.515  -5.302  0.00  0.00    -0.002 A 
ATOM     10  C   UNL     1       2.699   4.721  -6.445  0.00  0.00    +0.065 A 
ATOM     11 CL   UNL     1       1.871   3.166  -6.493  0.00  0.00    -0.082 Cl
ATOM     12  C   UNL     1       3.657   4.872  -7.444  0.00  0.00    +0.068 A 
ATOM     13 CL   UNL     1       3.510   3.997  -8.964  0.00  0.00    -0.081 Cl
ATOM     14  C   UNL     1       4.712   5.749  -7.223  0.00  0.00    +0.012 A 
ATOM     15  C   UNL     1       4.869   6.337  -5.973  0.00  0.00    +0.001 A 
ATOM     16  C   UNL     1       4.137   5.736  -4.952  0.00  0.00    -0.003 A 
ENDBRANCH   2   9
BRANCH   1  17
ATOM     17  C   UNL     1      -0.455   5.178  -5.140  0.00  0.00    +0.339 C 
ATOM     18  O   UNL     1      -0.439   5.224  -6.409  0.00  0.00    -0.245 OA
BRANCH  17  19
ATOM     19  O   UNL     1      -1.738   5.134  -4.586  0.00  0.00    -0.446 OA
BRANCH  19  21
ATOM     20  C   UNL     1      -2.740   5.626  -2.779  0.00  0.00    +0.051 C 
ATOM     21  C   UNL     1      -1.969   5.266  -3.192  0.00  0.00    +0.209 C 
ENDBRANCH  19  21
ENDBRANCH  17  19
ENDBRANCH   1  17
BRANCH   3  22
ATOM     22  C   UNL     1       2.804   4.892  -1.735  0.00  0.00    +0.339 C 
ATOM     23  O   UNL     1       3.925   4.375  -1.530  0.00  0.00    -0.245 OA
BRANCH  22  24
ATOM     24  O   UNL     1       1.848   4.727  -0.757  0.00  0.00    -0.442 OA
ATOM     25  C   UNL     1       0.739   5.620  -0.661  0.00  0.00    +0.256 C 
ENDBRANCH  22  24
ENDBRANCH   3  22
TORSDOF 6
ENDMDL
MODEL 9
REMARK VINA RESULT:      -4.4      8.369     11.371
REMARK  Name = 
REMARK  6 active torsions:
REMARK  status: ('A' for Active; 'I' for Inactive)
REMARK    1  A    between atoms: C_2  and  O_3
REMARK    2  A    between atoms: O_3  and  C_4
REMARK    3  A    between atoms: C_4  and  C_6
REMARK    4  A    between atoms: C_12  and  C_13
REMARK    5  A    between atoms: C_13  and  O_15
REMARK    6  A    between atoms: C_17  and  C_18
REMARK                            x       y       z     vdW  Elec       q    Type
REMARK                         _______ _______ _______ _____ _____    ______ ____
ROOT
ATOM      1  C   UNL     1       5.247  14.703  -1.186  0.00  0.00    +0.073 C 
ATOM      2  C   UNL     1       6.223  13.642  -0.417  0.00  0.00    +0.082 C 
ATOM      3  C   UNL     1       5.285  13.546   0.911  0.00  0.00    +0.073 C 
ATOM      4  C   UNL     1       4.895  14.602   1.492  0.00  0.00    +0.051 C 
ATOM      5  C   UNL     1       4.324  14.445   2.869  0.00  0.00    +0.049 C 
ATOM      6  N   UNL     1       4.734  15.786   0.773  0.00  0.00    -0.221 NA
ATOM      7  C   UNL     1       5.003  15.827  -0.601  0.00  0.00    +0.051 C 
ATOM      8  C   UNL     1       4.283  16.859  -1.416  0.00  0.00    +0.049 C 
ENDROOT
BRANCH   2   9
ATOM      9  C   UNL     1       7.247  14.784   0.158  0.00  0.00    -0.002 A 
ATOM     10  C   UNL     1       8.378  14.811  -0.658  0.00  0.00    +0.065 A 
ATOM     11 CL   UNL     1       8.687  13.659  -1.955  0.00  0.00    -0.082 Cl
ATOM     12  C   UNL     1       9.531  15.418  -0.167  0.00  0.00    +0.068 A 
ATOM     13 CL   UNL     1      10.950  15.602  -1.192  0.00  0.00    -0.081 Cl
ATOM     14  C   UNL     1       9.523  15.899   1.137  0.00  0.00    +0.012 A 
ATOM     15  C   UNL     1       8.434  15.638   1.961  0.00  0.00    +0.001 A 
ATOM     16  C   UNL     1       7.587  14.632   1.503  0.00  0.00    -0.003 A 
ENDBRANCH   2   9
BRANCH   1  17
ATOM     17  C   UNL     1       5.524  14.768  -2.634  0.00  0.00    +0.339 C 
ATOM     18  O   UNL     1       5.537  13.712  -3.338  0.00  0.00    -0.245 OA
BRANCH  17  19
ATOM     19  O   UNL     1       6.394  15.766  -3.085  0.00  0.00    -0.446 OA
BRANCH  19  21
ATOM     20  C   UNL     1       6.658  16.665  -4.991  0.00  0.00    +0.051 C 
ATOM     21  C   UNL     1       6.760  15.896  -4.450  0.00  0.00    +0.209 C 
ENDBRANCH  19  21
ENDBRANCH  17  19
ENDBRANCH   1  17
BRANCH   3  22
ATOM     22  C   UNL     1       5.002  12.170   1.274  0.00  0.00    +0.339 C 
ATOM     23  O   UNL     1       5.796  11.453   1.924  0.00  0.00    -0.245 OA
BRANCH  22  24
ATOM     24  O   UNL     1       3.769  11.632   0.978  0.00  0.00    -0.442 OA
ATOM     25  C   UNL     1       3.399  11.350  -0.372  0.00  0.00    +0.256 C 
ENDBRANCH  22  24
ENDBRANCH   3  22
TORSDOF 6
ENDMDL
