MODEL 1
REMARK VINA RESULT:      -4.3      0.000      0.000
REMARK  Name = 
REMARK  4 active torsions:
REMARK  status: ('A' for Active; 'I' for Inactive)
REMARK    1  A    between atoms: O_2  and  C_3
REMARK    2  A    between atoms: C_3  and  C_5
REMARK    3  A    between atoms: C_6  and  C_7
REMARK    4  A    between atoms: C_7  and  O_9
REMARK                            x       y       z     vdW  Elec       q    Type
REMARK                         _______ _______ _______ _____ _____    ______ ____
ROOT
ATOM      1  C   UNL     1       6.930   6.799 -12.598  0.00  0.00    +0.089 C 
ATOM      2  C   UNL     1       7.081   7.005 -11.305  0.00  0.00    +0.089 C 
ENDROOT
BRANCH   1   3
ATOM      3  C   UNL     1       6.935   5.410 -13.073  0.00  0.00    +0.342 C 
ATOM      4  O   UNL     1       7.856   4.610 -12.730  0.00  0.00    -0.245 OA
BRANCH   3   6
ATOM      5  C   UNL     1       4.549   5.555 -13.697  0.00  0.00    +0.256 C 
ATOM      6  O   UNL     1       5.677   4.824 -13.251  0.00  0.00    -0.441 OA
ENDBRANCH   3   6
ENDBRANCH   1   3
BRANCH   2   7
ATOM      7  C   UNL     1       6.500   6.065 -10.335  0.00  0.00    +0.342 C 
ATOM      8  O   UNL     1       7.267   5.790  -9.361  0.00  0.00    -0.245 OA
BRANCH   7   9
ATOM      9  O   UNL     1       5.169   6.259  -9.953  0.00  0.00    -0.441 OA
ATOM     10  C   UNL     1       4.373   5.074  -9.934  0.00  0.00    +0.256 C 
ENDBRANCH   7   9
ENDBRANCH   2   7
TORSDOF 4
ENDMDL
MODEL 2
REMARK VINA RESULT:      -4.2      0.161      3.145
REMARK  Name = 
REMARK  4 active torsions:
REMARK  status: ('A' for Active; 'I' for Inactive)
REMARK    1  A    between atoms: O_2  and  C_3
REMARK    2  A    between atoms: C_3  and  C_5
REMARK    3  A    between atoms: C_6  and  C_7
REMARK    4  A    between atoms: C_7  and  O_9
REMARK                            x       y       z     vdW  Elec       q    Type
REMARK                         _______ _______ _______ _____ _____    ______ ____
ROOT
ATOM      1  C   UNL     1       7.257   6.946 -11.257  0.00  0.00    +0.089 C 
ATOM      2  C   UNL     1       7.068   6.768 -12.549  0.00  0.00    +0.089 C 
ENDROOT
BRANCH   1   3
ATOM      3  C   UNL     1       6.634   5.986 -10.337  0.00  0.00    +0.342 C 
ATOM      4  O   UNL     1       7.288   5.500  -9.366  0.00  0.00    -0.245 OA
BRANCH   3   6
ATOM      5  C   UNL     1       4.364   5.094  -9.948  0.00  0.00    +0.256 C 
ATOM      6  O   UNL     1       5.268   6.172 -10.098  0.00  0.00    -0.441 OA
ENDBRANCH   3   6
ENDBRANCH   1   3
BRANCH   2   7
ATOM      7  C   UNL     1       6.991   5.408 -13.103  0.00  0.00    +0.342 C 
ATOM      8  O   UNL     1       7.883   4.620 -12.660  0.00  0.00    -0.245 OA
BRANCH   7   9
ATOM      9  O   UNL     1       5.729   4.813 -13.204  0.00  0.00    -0.441 OA
ATOM     10  C   UNL     1       4.708   5.662 -13.726  0.00  0.00    +0.256 C 
ENDBRANCH   7   9
ENDBRANCH   2   7
TORSDOF 4
ENDMDL
MODEL 3
REMARK VINA RESULT:      -4.2      1.393      3.560
REMARK  Name = 
REMARK  4 active torsions:
REMARK  status: ('A' for Active; 'I' for Inactive)
REMARK    1  A    between atoms: O_2  and  C_3
REMARK    2  A    between atoms: C_3  and  C_5
REMARK    3  A    between atoms: C_6  and  C_7
REMARK    4  A    between atoms: C_7  and  O_9
REMARK                            x       y       z     vdW  Elec       q    Type
REMARK                         _______ _______ _______ _____ _____    ______ ____
ROOT
ATOM      1  C   UNL     1       5.966   7.183 -11.096  0.00  0.00    +0.089 C 
ATOM      2  C   UNL     1       6.441   6.759 -12.249  0.00  0.00    +0.089 C 
ENDROOT
BRANCH   1   3
ATOM      3  C   UNL     1       4.927   6.375 -10.445  0.00  0.00    +0.342 C 
ATOM      4  O   UNL     1       5.100   5.914  -9.278  0.00  0.00    -0.245 OA
BRANCH   3   6
ATOM      5  C   UNL     1       2.837   6.001 -11.708  0.00  0.00    +0.256 C 
ATOM      6  O   UNL     1       3.607   6.715 -10.758  0.00  0.00    -0.441 OA
ENDBRANCH   3   6
ENDBRANCH   1   3
BRANCH   2   7
ATOM      7  C   UNL     1       6.595   5.317 -12.498  0.00  0.00    +0.342 C 
ATOM      8  O   UNL     1       5.783   4.853 -13.357  0.00  0.00    -0.245 OA
BRANCH   7   9
ATOM      9  O   UNL     1       7.892   4.813 -12.635  0.00  0.00    -0.441 OA
ATOM     10  C   UNL     1       8.930   5.733 -12.301  0.00  0.00    +0.256 C 
ENDBRANCH   7   9
ENDBRANCH   2   7
TORSDOF 4
ENDMDL
MODEL 4
REMARK VINA RESULT:      -4.1      1.311      2.155
REMARK  Name = 
REMARK  4 active torsions:
REMARK  status: ('A' for Active; 'I' for Inactive)
REMARK    1  A    between atoms: O_2  and  C_3
REMARK    2  A    between atoms: C_3  and  C_5
REMARK    3  A    between atoms: C_6  and  C_7
REMARK    4  A    between atoms: C_7  and  O_9
REMARK                            x       y       z     vdW  Elec       q    Type
REMARK                         _______ _______ _______ _____ _____    ______ ____
ROOT
ATOM      1  C   UNL     1       6.303   6.777 -12.201  0.00  0.00    +0.089 C 
ATOM      2  C   UNL     1       5.940   7.070 -10.969  0.00  0.00    +0.089 C 
ENDROOT
BRANCH   1   3
ATOM      3  C   UNL     1       6.441   5.357 -12.553  0.00  0.00    +0.342 C 
ATOM      4  O   UNL     1       5.626   4.805 -13.350  0.00  0.00    -0.245 OA
BRANCH   3   6
ATOM      5  C   UNL     1       8.880   5.678 -12.332  0.00  0.00    +0.256 C 
ATOM      6  O   UNL     1       7.751   4.871 -12.614  0.00  0.00    -0.441 OA
ENDBRANCH   3   6
ENDBRANCH   1   3
BRANCH   2   7
ATOM      7  C   UNL     1       4.989   6.206 -10.254  0.00  0.00    +0.342 C 
ATOM      8  O   UNL     1       5.430   5.755  -9.151  0.00  0.00    -0.245 OA
BRANCH   7   9
ATOM      9  O   UNL     1       3.654   6.618 -10.188  0.00  0.00    -0.441 OA
ATOM     10  C   UNL     1       2.804   6.053 -11.185  0.00  0.00    +0.256 C 
ENDBRANCH   7   9
ENDBRANCH   2   7
TORSDOF 4
ENDMDL
MODEL 5
REMARK VINA RESULT:      -4.1      8.885     11.531
REMARK  Name = 
REMARK  4 active torsions:
REMARK  status: ('A' for Active; 'I' for Inactive)
REMARK    1  A    between atoms: O_2  and  C_3
REMARK    2  A    between atoms: C_3  and  C_5
REMARK    3  A    between atoms: C_6  and  C_7
REMARK    4  A    between atoms: C_7  and  O_9
REMARK                            x       y       z     vdW  Elec       q    Type
REMARK                         _______ _______ _______ _____ _____    ______ ____
ROOT
ATOM      1  C   UNL     1      -2.242   6.854  -3.192  0.00  0.00    +0.089 C 
ATOM      2  C   UNL     1      -2.400   6.933  -4.497  0.00  0.00    +0.089 C 
ENDROOT
BRANCH   1   3
ATOM      3  C   UNL     1      -2.155   5.515  -2.594  0.00  0.00    +0.342 C 
ATOM      4  O   UNL     1      -3.002   4.619  -2.883  0.00  0.00    -0.245 OA
BRANCH   3   6
ATOM      5  C   UNL     1      -0.002   5.654  -1.391  0.00  0.00    +0.256 C 
ATOM      6  O   UNL     1      -0.862   5.047  -2.338  0.00  0.00    -0.441 OA
ENDBRANCH   3   6
ENDBRANCH   1   3
BRANCH   2   7
ATOM      7  C   UNL     1      -1.752   5.951  -5.380  0.00  0.00    +0.342 C 
ATOM      8  O   UNL     1      -2.456   5.614  -6.381  0.00  0.00    -0.245 OA
BRANCH   7   9
ATOM      9  O   UNL     1      -0.402   6.145  -5.693  0.00  0.00    -0.441 OA
ATOM     10  C   UNL     1       0.398   4.964  -5.647  0.00  0.00    +0.256 C 
ENDBRANCH   7   9
ENDBRANCH   2   7
TORSDOF 4
ENDMDL
MODEL 6
REMARK VINA RESULT:      -4.0      7.616     10.220
REMARK  Name = 
REMARK  4 active torsions:
REMARK  status: ('A' for Active; 'I' for Inactive)
REMARK    1  A    between atoms: O_2  and  C_3
REMARK    2  A    between atoms: C_3  and  C_5
REMARK    3  A    between atoms: C_6  and  C_7
REMARK    4  A    between atoms: C_7  and  O_9
REMARK                            x       y       z     vdW  Elec       q    Type
REMARK                         _______ _______ _______ _____ _____    ______ ____
ROOT
ATOM      1  C   UNL     1      -2.378   5.792  -6.399  0.00  0.00    +0.089 C 
ATOM      2  C   UNL     1      -1.360   5.089  -6.853  0.00  0.00    +0.089 C 
ENDROOT
BRANCH   1   3
ATOM      3  C   UNL     1      -2.308   6.279  -5.016  0.00  0.00    +0.342 C 
ATOM      4  O   UNL     1      -2.452   7.511  -4.754  0.00  0.00    -0.245 OA
BRANCH   3   6
ATOM      5  C   UNL     1      -3.213   5.844  -2.759  0.00  0.00    +0.256 C 
ATOM      6  O   UNL     1      -2.795   5.405  -4.038  0.00  0.00    -0.441 OA
ENDBRANCH   3   6
ENDBRANCH   1   3
BRANCH   2   7
ATOM      7  C   UNL     1       0.010   5.414  -6.427  0.00  0.00    +0.342 C 
ATOM      8  O   UNL     1       0.634   4.437  -5.908  0.00  0.00    -0.245 OA
BRANCH   7   9
ATOM      9  O   UNL     1       0.800   6.177  -7.293  0.00  0.00    -0.441 OA
ATOM     10  C   UNL     1       0.715   5.803  -8.667  0.00  0.00    +0.256 C 
ENDBRANCH   7   9
ENDBRANCH   2   7
TORSDOF 4
ENDMDL
MODEL 7
REMARK VINA RESULT:      -4.0      7.704      9.876
REMARK  Name = 
REMARK  4 active torsions:
REMARK  status: ('A' for Active; 'I' for Inactive)
REMARK    1  A    between atoms: O_2  and  C_3
REMARK    2  A    between atoms: C_3  and  C_5
REMARK    3  A    between atoms: C_6  and  C_7
REMARK    4  A    between atoms: C_7  and  O_9
REMARK                            x       y       z     vdW  Elec       q    Type
REMARK                         _______ _______ _______ _____ _____    ______ ____
ROOT
ATOM      1  C   UNL     1      -1.367   5.093  -6.875  0.00  0.00    +0.089 C 
ATOM      2  C   UNL     1      -2.326   5.830  -6.351  0.00  0.00    +0.089 C 
ENDROOT
BRANCH   1   3
ATOM      3  C   UNL     1       0.001   5.302  -6.384  0.00  0.00    +0.342 C 
ATOM      4  O   UNL     1       0.710   4.323  -6.004  0.00  0.00    -0.245 OA
BRANCH   3   6
ATOM      5  C   UNL     1       1.889   6.893  -6.424  0.00  0.00    +0.256 C 
ATOM      6  O   UNL     1       0.709   6.348  -6.984  0.00  0.00    -0.441 OA
ENDBRANCH   3   6
ENDBRANCH   1   3
BRANCH   2   7
ATOM      7  C   UNL     1      -2.276   6.202  -4.929  0.00  0.00    +0.342 C 
ATOM      8  O   UNL     1      -2.494   7.434  -4.711  0.00  0.00    -0.245 OA
BRANCH   7   9
ATOM      9  O   UNL     1      -2.908   5.358  -4.010  0.00  0.00    -0.441 OA
ATOM     10  C   UNL     1      -3.431   6.016  -2.856  0.00  0.00    +0.256 C 
ENDBRANCH   7   9
ENDBRANCH   2   7
TORSDOF 4
ENDMDL
MODEL 8
REMARK VINA RESULT:      -4.0      8.454     10.564
REMARK  Name = 
REMARK  4 active torsions:
REMARK  status: ('A' for Active; 'I' for Inactive)
REMARK    1  A    between atoms: O_2  and  C_3
REMARK    2  A    between atoms: C_3  and  C_5
REMARK    3  A    between atoms: C_6  and  C_7
REMARK    4  A    between atoms: C_7  and  O_9
REMARK                            x       y       z     vdW  Elec       q    Type
REMARK                         _______ _______ _______ _____ _____    ______ ____
ROOT
ATOM      1  C   UNL     1      -1.429   6.737  -5.225  0.00  0.00    +0.089 C 
ATOM      2  C   UNL     1      -1.401   6.662  -3.910  0.00  0.00    +0.089 C 
ENDROOT
BRANCH   1   3
ATOM      3  C   UNL     1      -0.956   5.573  -5.986  0.00  0.00    +0.342 C 
ATOM      4  O   UNL     1      -1.665   5.069  -6.907  0.00  0.00    -0.245 OA
BRANCH   3   6
ATOM      5  C   UNL     1       1.249   4.540  -5.571  0.00  0.00    +0.256 C 
ATOM      6  O   UNL     1       0.425   5.506  -6.197  0.00  0.00    -0.441 OA
ENDBRANCH   3   6
ENDBRANCH   1   3
BRANCH   2   7
ATOM      7  C   UNL     1      -1.680   5.383  -3.238  0.00  0.00    +0.342 C 
ATOM      8  O   UNL     1      -0.758   5.002  -2.452  0.00  0.00    -0.245 OA
BRANCH   7   9
ATOM      9  O   UNL     1      -2.964   5.184  -2.720  0.00  0.00    -0.441 OA
ATOM     10  C   UNL     1      -3.733   6.374  -2.554  0.00  0.00    +0.256 C 
ENDBRANCH   7   9
ENDBRANCH   2   7
TORSDOF 4
ENDMDL
MODEL 9
REMARK VINA RESULT:      -3.9      2.028      4.089
REMARK  Name = 
REMARK  4 active torsions:
REMARK  status: ('A' for Active; 'I' for Inactive)
REMARK    1  A    between atoms: O_2  and  C_3
REMARK    2  A    between atoms: C_3  and  C_5
REMARK    3  A    between atoms: C_6  and  C_7
REMARK    4  A    between atoms: C_7  and  O_9
REMARK                            x       y       z     vdW  Elec       q    Type
REMARK                         _______ _______ _______ _____ _____    ______ ____
ROOT
ATOM      1  C   UNL     1       6.016   5.305  -8.817  0.00  0.00    +0.089 C 
ATOM      2  C   UNL     1       6.976   5.925  -9.473  0.00  0.00    +0.089 C 
ENDROOT
BRANCH   1   3
ATOM      3  C   UNL     1       4.667   5.327  -9.398  0.00  0.00    +0.342 C 
ATOM      4  O   UNL     1       3.927   4.300  -9.359  0.00  0.00    -0.245 OA
BRANCH   3   6
ATOM      5  C   UNL     1       3.083   6.853  -8.273  0.00  0.00    +0.256 C 
ATOM      6  O   UNL     1       3.990   6.549  -9.316  0.00  0.00    -0.441 OA
ENDBRANCH   3   6
ENDBRANCH   1   3
BRANCH   2   7
ATOM      7  C   UNL     1       6.984   5.926 -10.944  0.00  0.00    +0.342 C 
ATOM      8  O   UNL     1       6.893   7.084 -11.459  0.00  0.00    -0.245 OA
BRANCH   7   9
ATOM      9  O   UNL     1       7.910   5.103 -11.593  0.00  0.00    -0.441 OA
ATOM     10  C   UNL     1       8.900   5.799 -12.350  0.00  0.00    +0.256 C 
ENDBRANCH   7   9
ENDBRANCH   2   7
TORSDOF 4
ENDMDL
