MODEL 1
REMARK VINA RESULT:      -7.4      0.000      0.000
REMARK  Name = 
REMARK  14 active torsions:
REMARK  status: ('A' for Active; 'I' for Inactive)
REMARK    1  A    between atoms: C_2  and  C_3
REMARK    2  A    between atoms: C_4  and  C_5
REMARK    3  A    between atoms: C_5  and  C_6
REMARK    4  A    between atoms: C_7  and  C_8
REMARK    5  A    between atoms: C_8  and  C_9
REMARK    6  A    between atoms: C_10  and  C_11
REMARK    7  A    between atoms: C_11  and  C_12
REMARK    8  A    between atoms: C_13  and  C_14
REMARK    9  A    between atoms: C_14  and  C_15
REMARK   10  A    between atoms: C_16  and  C_17
REMARK   11  A    between atoms: C_17  and  C_18
REMARK   12  A    between atoms: C_19  and  C_20
REMARK   13  A    between atoms: C_20  and  C_21
REMARK   14  A    between atoms: C_21  and  C_22
REMARK                            x       y       z     vdW  Elec       q    Type
REMARK                         _______ _______ _______ _____ _____    ______ ____
ROOT
ATOM      1  C   UNL     1       1.537   4.844  -4.849  0.00  0.00    -0.026 C 
ATOM      2  C   UNL     1       0.816   4.536  -5.922  0.00  0.00    -0.026 C 
ENDROOT
BRANCH   1   3
ATOM      3  C   UNL     1       2.379   6.074  -4.953  0.00  0.00    +0.051 C 
BRANCH   3   5
ATOM      4  C   UNL     1       4.408   5.884  -6.297  0.00  0.00    -0.026 C 
ATOM      5  C   UNL     1       3.803   5.669  -5.136  0.00  0.00    -0.026 C 
BRANCH   4   6
ATOM      6  C   UNL     1       3.630   6.206  -7.536  0.00  0.00    +0.051 C 
BRANCH   6   8
ATOM      7  C   UNL     1       4.366   4.847  -9.469  0.00  0.00    -0.026 C 
ATOM      8  C   UNL     1       3.582   4.992  -8.402  0.00  0.00    -0.026 C 
BRANCH   7   9
ATOM      9  C   UNL     1       5.303   5.984  -9.750  0.00  0.00    +0.051 C 
BRANCH   9  11
ATOM     10  C   UNL     1       7.670   5.963 -10.162  0.00  0.00    -0.030 C 
ATOM     11  C   UNL     1       6.683   5.683  -9.318  0.00  0.00    -0.026 C 
BRANCH  10  13
ATOM     12  C   UNL     1       8.770   5.846 -12.397  0.00  0.00    +0.005 C 
ATOM     13  C   UNL     1       7.468   5.755 -11.623  0.00  0.00    +0.026 C 
ENDBRANCH  10  13
ENDBRANCH   9  11
ENDBRANCH   7   9
ENDBRANCH   6   8
ENDBRANCH   4   6
ENDBRANCH   3   5
ENDBRANCH   1   3
BRANCH   2  14
ATOM     14  C   UNL     1       0.034   5.610  -6.559  0.00  0.00    +0.051 C 
BRANCH  14  15
ATOM     15  C   UNL     1      -1.273   5.158  -7.094  0.00  0.00    -0.026 C 
ATOM     16  C   UNL     1      -2.386   5.711  -6.601  0.00  0.00    -0.026 C 
BRANCH  16  17
ATOM     17  C   UNL     1      -2.384   6.097  -5.152  0.00  0.00    +0.051 C 
BRANCH  17  18
ATOM     18  C   UNL     1      -2.438   7.561  -4.976  0.00  0.00    -0.026 C 
ATOM     19  C   UNL     1      -2.054   8.041  -3.788  0.00  0.00    -0.030 C 
BRANCH  19  20
ATOM     20  C   UNL     1      -2.458   7.314  -2.545  0.00  0.00    +0.038 C 
BRANCH  20  21
ATOM     21  C   UNL     1      -1.188   6.906  -1.824  0.00  0.00    +0.119 C 
BRANCH  21  22
ATOM     22  C   UNL     1      -1.311   5.439  -1.557  0.00  0.00    +0.365 C 
ATOM     23  O   UNL     1      -0.121   4.714  -1.660  0.00  0.00    -0.246 OA
ATOM     24  O   UNL     1      -2.410   4.918  -1.913  0.00  0.00    -0.246 OA
ENDBRANCH  21  22
ENDBRANCH  20  21
ENDBRANCH  19  20
ENDBRANCH  17  18
ENDBRANCH  16  17
ENDBRANCH  14  15
ENDBRANCH   2  14
TORSDOF 14
ENDMDL
MODEL 2
REMARK VINA RESULT:      -7.3      1.263      2.645
REMARK  Name = 
REMARK  14 active torsions:
REMARK  status: ('A' for Active; 'I' for Inactive)
REMARK    1  A    between atoms: C_2  and  C_3
REMARK    2  A    between atoms: C_4  and  C_5
REMARK    3  A    between atoms: C_5  and  C_6
REMARK    4  A    between atoms: C_7  and  C_8
REMARK    5  A    between atoms: C_8  and  C_9
REMARK    6  A    between atoms: C_10  and  C_11
REMARK    7  A    between atoms: C_11  and  C_12
REMARK    8  A    between atoms: C_13  and  C_14
REMARK    9  A    between atoms: C_14  and  C_15
REMARK   10  A    between atoms: C_16  and  C_17
REMARK   11  A    between atoms: C_17  and  C_18
REMARK   12  A    between atoms: C_19  and  C_20
REMARK   13  A    between atoms: C_20  and  C_21
REMARK   14  A    between atoms: C_21  and  C_22
REMARK                            x       y       z     vdW  Elec       q    Type
REMARK                         _______ _______ _______ _____ _____    ______ ____
ROOT
ATOM      1  C   UNL     1       4.088   7.324  -4.382  0.00  0.00    -0.026 C 
ATOM      2  C   UNL     1       3.283   6.596  -3.615  0.00  0.00    -0.026 C 
ENDROOT
BRANCH   1   3
ATOM      3  C   UNL     1       3.921   7.156  -5.858  0.00  0.00    +0.051 C 
BRANCH   3   5
ATOM      4  C   UNL     1       4.452   5.461  -7.532  0.00  0.00    -0.026 C 
ATOM      5  C   UNL     1       4.459   5.823  -6.256  0.00  0.00    -0.026 C 
BRANCH   4   6
ATOM      6  C   UNL     1       3.625   6.189  -8.547  0.00  0.00    +0.051 C 
BRANCH   6   8
ATOM      7  C   UNL     1       4.375   6.007 -10.898  0.00  0.00    -0.026 C 
ATOM      8  C   UNL     1       3.736   5.480  -9.855  0.00  0.00    -0.026 C 
BRANCH   7   9
ATOM      9  C   UNL     1       4.978   7.362 -10.677  0.00  0.00    +0.051 C 
BRANCH   9  11
ATOM     10  C   UNL     1       7.274   6.974 -11.273  0.00  0.00    -0.030 C 
ATOM     11  C   UNL     1       6.138   7.602 -11.560  0.00  0.00    -0.026 C 
BRANCH  10  13
ATOM     12  C   UNL     1       7.622   5.321  -9.440  0.00  0.00    +0.005 C 
ATOM     13  C   UNL     1       7.667   6.781  -9.849  0.00  0.00    +0.026 C 
ENDBRANCH  10  13
ENDBRANCH   9  11
ENDBRANCH   7   9
ENDBRANCH   6   8
ENDBRANCH   4   6
ENDBRANCH   3   5
ENDBRANCH   1   3
BRANCH   2  14
ATOM     14  C   UNL     1       1.847   6.580  -3.944  0.00  0.00    +0.051 C 
BRANCH  14  15
ATOM     15  C   UNL     1       1.270   5.216  -4.020  0.00  0.00    -0.026 C 
ATOM     16  C   UNL     1       0.814   4.786  -5.201  0.00  0.00    -0.026 C 
BRANCH  16  17
ATOM     17  C   UNL     1       0.193   5.799  -6.115  0.00  0.00    +0.051 C 
BRANCH  17  18
ATOM     18  C   UNL     1      -1.076   5.314  -6.690  0.00  0.00    -0.026 C 
ATOM     19  C   UNL     1      -2.172   6.036  -6.431  0.00  0.00    -0.030 C 
BRANCH  19  20
ATOM     20  C   UNL     1      -2.361   6.606  -5.060  0.00  0.00    +0.038 C 
BRANCH  20  21
ATOM     21  C   UNL     1      -2.847   5.482  -4.165  0.00  0.00    +0.119 C 
BRANCH  21  22
ATOM     22  C   UNL     1      -2.374   5.812  -2.784  0.00  0.00    +0.365 C 
ATOM     23  O   UNL     1      -1.452   6.859  -2.706  0.00  0.00    -0.246 OA
ATOM     24  O   UNL     1      -2.287   4.823  -1.997  0.00  0.00    -0.246 OA
ENDBRANCH  21  22
ENDBRANCH  20  21
ENDBRANCH  19  20
ENDBRANCH  17  18
ENDBRANCH  16  17
ENDBRANCH  14  15
ENDBRANCH   2  14
TORSDOF 14
ENDMDL
MODEL 3
REMARK VINA RESULT:      -7.2      1.665      2.519
REMARK  Name = 
REMARK  14 active torsions:
REMARK  status: ('A' for Active; 'I' for Inactive)
REMARK    1  A    between atoms: C_2  and  C_3
REMARK    2  A    between atoms: C_4  and  C_5
REMARK    3  A    between atoms: C_5  and  C_6
REMARK    4  A    between atoms: C_7  and  C_8
REMARK    5  A    between atoms: C_8  and  C_9
REMARK    6  A    between atoms: C_10  and  C_11
REMARK    7  A    between atoms: C_11  and  C_12
REMARK    8  A    between atoms: C_13  and  C_14
REMARK    9  A    between atoms: C_14  and  C_15
REMARK   10  A    between atoms: C_16  and  C_17
REMARK   11  A    between atoms: C_17  and  C_18
REMARK   12  A    between atoms: C_19  and  C_20
REMARK   13  A    between atoms: C_20  and  C_21
REMARK   14  A    between atoms: C_21  and  C_22
REMARK                            x       y       z     vdW  Elec       q    Type
REMARK                         _______ _______ _______ _____ _____    ______ ____
ROOT
ATOM      1  C   UNL     1       1.353   4.742  -9.452  0.00  0.00    -0.026 C 
ATOM      2  C   UNL     1       0.346   5.520  -9.071  0.00  0.00    -0.026 C 
ENDROOT
BRANCH   1   3
ATOM      3  C   UNL     1       2.659   4.972  -8.764  0.00  0.00    +0.051 C 
BRANCH   3   5
ATOM      4  C   UNL     1       4.162   6.575  -9.826  0.00  0.00    -0.026 C 
ATOM      5  C   UNL     1       3.113   6.365  -9.042  0.00  0.00    -0.026 C 
BRANCH   4   6
ATOM      6  C   UNL     1       5.113   5.471 -10.172  0.00  0.00    +0.051 C 
BRANCH   6   8
ATOM      7  C   UNL     1       7.414   5.993  -9.425  0.00  0.00    -0.026 C 
ATOM      8  C   UNL     1       6.220   5.459  -9.172  0.00  0.00    -0.026 C 
BRANCH   7   9
ATOM      9  C   UNL     1       7.579   6.608 -10.784  0.00  0.00    +0.051 C 
BRANCH   9  11
ATOM     10  C   UNL     1       8.279   5.805 -12.938  0.00  0.00    -0.030 C 
ATOM     11  C   UNL     1       8.513   5.838 -11.630  0.00  0.00    -0.026 C 
BRANCH  10  13
ATOM     12  C   UNL     1       6.580   6.839 -14.442  0.00  0.00    +0.005 C 
ATOM     13  C   UNL     1       6.875   5.746 -13.431  0.00  0.00    +0.026 C 
ENDBRANCH  10  13
ENDBRANCH   9  11
ENDBRANCH   7   9
ENDBRANCH   6   8
ENDBRANCH   4   6
ENDBRANCH   3   5
ENDBRANCH   1   3
BRANCH   2  14
ATOM     14  C   UNL     1       0.112   5.688  -7.626  0.00  0.00    +0.051 C 
BRANCH  14  15
ATOM     15  C   UNL     1      -1.174   5.115  -7.160  0.00  0.00    -0.026 C 
ATOM     16  C   UNL     1      -1.817   5.729  -6.161  0.00  0.00    -0.026 C 
BRANCH  16  17
ATOM     17  C   UNL     1      -0.983   6.386  -5.102  0.00  0.00    +0.051 C 
BRANCH  17  18
ATOM     18  C   UNL     1      -1.382   7.790  -4.884  0.00  0.00    -0.026 C 
ATOM     19  C   UNL     1      -1.984   8.073  -3.724  0.00  0.00    -0.030 C 
BRANCH  19  20
ATOM     20  C   UNL     1      -2.993   7.115  -3.175  0.00  0.00    +0.038 C 
BRANCH  20  21
ATOM     21  C   UNL     1      -2.616   6.836  -1.733  0.00  0.00    +0.119 C 
BRANCH  21  22
ATOM     22  C   UNL     1      -2.141   5.418  -1.690  0.00  0.00    +0.365 C 
ATOM     23  O   UNL     1      -0.799   5.251  -1.340  0.00  0.00    -0.246 OA
ATOM     24  O   UNL     1      -2.683   4.645  -2.535  0.00  0.00    -0.246 OA
ENDBRANCH  21  22
ENDBRANCH  20  21
ENDBRANCH  19  20
ENDBRANCH  17  18
ENDBRANCH  16  17
ENDBRANCH  14  15
ENDBRANCH   2  14
TORSDOF 14
ENDMDL
MODEL 4
REMARK VINA RESULT:      -7.2      3.234      8.190
REMARK  Name = 
REMARK  14 active torsions:
REMARK  status: ('A' for Active; 'I' for Inactive)
REMARK    1  A    between atoms: C_2  and  C_3
REMARK    2  A    between atoms: C_4  and  C_5
REMARK    3  A    between atoms: C_5  and  C_6
REMARK    4  A    between atoms: C_7  and  C_8
REMARK    5  A    between atoms: C_8  and  C_9
REMARK    6  A    between atoms: C_10  and  C_11
REMARK    7  A    between atoms: C_11  and  C_12
REMARK    8  A    between atoms: C_13  and  C_14
REMARK    9  A    between atoms: C_14  and  C_15
REMARK   10  A    between atoms: C_16  and  C_17
REMARK   11  A    between atoms: C_17  and  C_18
REMARK   12  A    between atoms: C_19  and  C_20
REMARK   13  A    between atoms: C_20  and  C_21
REMARK   14  A    between atoms: C_21  and  C_22
REMARK                            x       y       z     vdW  Elec       q    Type
REMARK                         _______ _______ _______ _____ _____    ______ ____
ROOT
ATOM      1  C   UNL     1       1.968   5.700  -2.515  0.00  0.00    -0.026 C 
ATOM      2  C   UNL     1       2.588   6.760  -2.005  0.00  0.00    -0.026 C 
ENDROOT
BRANCH   1   3
ATOM      3  C   UNL     1       1.120   5.950  -3.719  0.00  0.00    +0.051 C 
BRANCH   3   5
ATOM      4  C   UNL     1       0.863   4.936  -5.924  0.00  0.00    -0.026 C 
ATOM      5  C   UNL     1       1.292   4.818  -4.674  0.00  0.00    -0.026 C 
BRANCH   4   6
ATOM      6  C   UNL     1      -0.084   6.024  -6.327  0.00  0.00    +0.051 C 
BRANCH   6   8
ATOM      7  C   UNL     1      -2.505   5.516  -6.253  0.00  0.00    -0.026 C 
ATOM      8  C   UNL     1      -1.328   5.404  -6.867  0.00  0.00    -0.026 C 
BRANCH   7   9
ATOM      9  C   UNL     1      -2.502   6.309  -4.979  0.00  0.00    +0.051 C 
BRANCH   9  11
ATOM     10  C   UNL     1      -3.039   6.090  -2.647  0.00  0.00    -0.030 C 
ATOM     11  C   UNL     1      -2.842   5.474  -3.808  0.00  0.00    -0.026 C 
BRANCH  10  13
ATOM     12  C   UNL     1      -1.320   6.995  -1.084  0.00  0.00    +0.005 C 
ATOM     13  C   UNL     1      -2.202   7.268  -2.289  0.00  0.00    +0.026 C 
ENDBRANCH  10  13
ENDBRANCH   9  11
ENDBRANCH   7   9
ENDBRANCH   6   8
ENDBRANCH   4   6
ENDBRANCH   3   5
ENDBRANCH   1   3
BRANCH   2  14
ATOM     14  C   UNL     1       3.307   7.650  -2.932  0.00  0.00    +0.051 C 
BRANCH  14  15
ATOM     15  C   UNL     1       4.711   7.242  -3.181  0.00  0.00    -0.026 C 
ATOM     16  C   UNL     1       5.162   7.258  -4.440  0.00  0.00    -0.026 C 
BRANCH  16  17
ATOM     17  C   UNL     1       4.190   6.915  -5.529  0.00  0.00    +0.051 C 
BRANCH  17  18
ATOM     18  C   UNL     1       4.448   5.575  -6.091  0.00  0.00    -0.026 C 
ATOM     19  C   UNL     1       4.532   5.486  -7.423  0.00  0.00    -0.030 C 
BRANCH  19  20
ATOM     20  C   UNL     1       3.578   6.272  -8.267  0.00  0.00    +0.038 C 
BRANCH  20  21
ATOM     21  C   UNL     1       3.026   5.333  -9.321  0.00  0.00    +0.119 C 
BRANCH  21  22
ATOM     22  C   UNL     1       1.675   5.862  -9.688  0.00  0.00    +0.365 C 
ATOM     23  O   UNL     1       1.428   7.181  -9.300  0.00  0.00    -0.246 OA
ATOM     24  O   UNL     1       0.741   5.006  -9.673  0.00  0.00    -0.246 OA
ENDBRANCH  21  22
ENDBRANCH  20  21
ENDBRANCH  19  20
ENDBRANCH  17  18
ENDBRANCH  16  17
ENDBRANCH  14  15
ENDBRANCH   2  14
TORSDOF 14
ENDMDL
MODEL 5
REMARK VINA RESULT:      -7.1      2.800      3.854
REMARK  Name = 
REMARK  14 active torsions:
REMARK  status: ('A' for Active; 'I' for Inactive)
REMARK    1  A    between atoms: C_2  and  C_3
REMARK    2  A    between atoms: C_4  and  C_5
REMARK    3  A    between atoms: C_5  and  C_6
REMARK    4  A    between atoms: C_7  and  C_8
REMARK    5  A    between atoms: C_8  and  C_9
REMARK    6  A    between atoms: C_10  and  C_11
REMARK    7  A    between atoms: C_11  and  C_12
REMARK    8  A    between atoms: C_13  and  C_14
REMARK    9  A    between atoms: C_14  and  C_15
REMARK   10  A    between atoms: C_16  and  C_17
REMARK   11  A    between atoms: C_17  and  C_18
REMARK   12  A    between atoms: C_19  and  C_20
REMARK   13  A    between atoms: C_20  and  C_21
REMARK   14  A    between atoms: C_21  and  C_22
REMARK                            x       y       z     vdW  Elec       q    Type
REMARK                         _______ _______ _______ _____ _____    ______ ____
ROOT
ATOM      1  C   UNL     1       0.916   4.808  -4.864  0.00  0.00    -0.026 C 
ATOM      2  C   UNL     1       0.678   4.883  -6.169  0.00  0.00    -0.026 C 
ENDROOT
BRANCH   1   3
ATOM      3  C   UNL     1       1.085   6.109  -4.150  0.00  0.00    +0.051 C 
BRANCH   3   5
ATOM      4  C   UNL     1       2.224   6.583  -2.043  0.00  0.00    -0.026 C 
ATOM      5  C   UNL     1       1.350   5.837  -2.707  0.00  0.00    -0.026 C 
BRANCH   4   6
ATOM      6  C   UNL     1       3.201   7.465  -2.757  0.00  0.00    +0.051 C 
BRANCH   6   8
ATOM      7  C   UNL     1       5.270   6.587  -3.792  0.00  0.00    -0.026 C 
ATOM      8  C   UNL     1       4.551   6.833  -2.698  0.00  0.00    -0.026 C 
BRANCH   7   9
ATOM      9  C   UNL     1       4.637   6.985  -5.092  0.00  0.00    +0.051 C 
BRANCH   9  11
ATOM     10  C   UNL     1       3.934   6.051  -7.192  0.00  0.00    -0.030 C 
ATOM     11  C   UNL     1       4.375   5.818  -5.960  0.00  0.00    -0.026 C 
BRANCH  10  13
ATOM     12  C   UNL     1       2.381   7.118  -8.824  0.00  0.00    +0.005 C 
ATOM     13  C   UNL     1       2.981   7.170  -7.431  0.00  0.00    +0.026 C 
ENDBRANCH  10  13
ENDBRANCH   9  11
ENDBRANCH   7   9
ENDBRANCH   6   8
ENDBRANCH   4   6
ENDBRANCH   3   5
ENDBRANCH   1   3
BRANCH   2  14
ATOM     14  C   UNL     1      -0.354   5.829  -6.628  0.00  0.00    +0.051 C 
BRANCH  14  15
ATOM     15  C   UNL     1      -1.695   5.216  -6.786  0.00  0.00    -0.026 C 
ATOM     16  C   UNL     1      -2.729   5.779  -6.150  0.00  0.00    -0.026 C 
BRANCH  16  17
ATOM     17  C   UNL     1      -2.462   6.407  -4.815  0.00  0.00    +0.051 C 
BRANCH  17  18
ATOM     18  C   UNL     1      -2.815   5.502  -3.704  0.00  0.00    -0.026 C 
ATOM     19  C   UNL     1      -3.160   6.075  -2.546  0.00  0.00    -0.030 C 
BRANCH  19  20
ATOM     20  C   UNL     1      -2.398   7.272  -2.071  0.00  0.00    +0.038 C 
BRANCH  20  21
ATOM     21  C   UNL     1      -1.626   6.857  -0.833  0.00  0.00    +0.119 C 
BRANCH  21  22
ATOM     22  C   UNL     1      -1.919   7.889   0.209  0.00  0.00    +0.365 C 
ATOM     23  O   UNL     1      -0.968   8.906   0.324  0.00  0.00    -0.246 OA
ATOM     24  O   UNL     1      -2.521   7.457   1.238  0.00  0.00    -0.246 OA
ENDBRANCH  21  22
ENDBRANCH  20  21
ENDBRANCH  19  20
ENDBRANCH  17  18
ENDBRANCH  16  17
ENDBRANCH  14  15
ENDBRANCH   2  14
TORSDOF 14
ENDMDL
MODEL 6
REMARK VINA RESULT:      -7.0      2.256      3.678
REMARK  Name = 
REMARK  14 active torsions:
REMARK  status: ('A' for Active; 'I' for Inactive)
REMARK    1  A    between atoms: C_2  and  C_3
REMARK    2  A    between atoms: C_4  and  C_5
REMARK    3  A    between atoms: C_5  and  C_6
REMARK    4  A    between atoms: C_7  and  C_8
REMARK    5  A    between atoms: C_8  and  C_9
REMARK    6  A    between atoms: C_10  and  C_11
REMARK    7  A    between atoms: C_11  and  C_12
REMARK    8  A    between atoms: C_13  and  C_14
REMARK    9  A    between atoms: C_14  and  C_15
REMARK   10  A    between atoms: C_16  and  C_17
REMARK   11  A    between atoms: C_17  and  C_18
REMARK   12  A    between atoms: C_19  and  C_20
REMARK   13  A    between atoms: C_20  and  C_21
REMARK   14  A    between atoms: C_21  and  C_22
REMARK                            x       y       z     vdW  Elec       q    Type
REMARK                         _______ _______ _______ _____ _____    ______ ____
ROOT
ATOM      1  C   UNL     1      -1.311   5.061  -6.805  0.00  0.00    -0.026 C 
ATOM      2  C   UNL     1      -2.299   5.873  -6.442  0.00  0.00    -0.026 C 
ENDROOT
BRANCH   1   3
ATOM      3  C   UNL     1       0.074   5.534  -6.504  0.00  0.00    +0.051 C 
BRANCH   3   5
ATOM      4  C   UNL     1       2.186   4.315  -6.400  0.00  0.00    -0.026 C 
ATOM      5  C   UNL     1       0.901   4.368  -6.078  0.00  0.00    -0.026 C 
BRANCH   4   6
ATOM      6  C   UNL     1       2.766   5.208  -7.454  0.00  0.00    +0.051 C 
BRANCH   6   8
ATOM      7  C   UNL     1       3.928   4.668  -9.571  0.00  0.00    -0.026 C 
ATOM      8  C   UNL     1       2.947   4.417  -8.706  0.00  0.00    -0.026 C 
BRANCH   7   9
ATOM      9  C   UNL     1       4.843   5.800  -9.208  0.00  0.00    +0.051 C 
BRANCH   9  11
ATOM     10  C   UNL     1       7.230   6.053  -9.339  0.00  0.00    -0.030 C 
ATOM     11  C   UNL     1       6.208   5.329  -8.894  0.00  0.00    -0.026 C 
BRANCH  10  13
ATOM     12  C   UNL     1       8.116   6.097 -11.669  0.00  0.00    +0.005 C 
ATOM     13  C   UNL     1       7.141   6.703 -10.676  0.00  0.00    +0.026 C 
ENDBRANCH  10  13
ENDBRANCH   9  11
ENDBRANCH   7   9
ENDBRANCH   6   8
ENDBRANCH   4   6
ENDBRANCH   3   5
ENDBRANCH   1   3
BRANCH   2  14
ATOM     14  C   UNL     1      -2.262   6.438  -5.082  0.00  0.00    +0.051 C 
BRANCH  14  15
ATOM     15  C   UNL     1      -2.601   5.459  -4.021  0.00  0.00    -0.026 C 
ATOM     16  C   UNL     1      -2.065   5.628  -2.808  0.00  0.00    -0.026 C 
BRANCH  16  17
ATOM     17  C   UNL     1      -0.680   6.200  -2.736  0.00  0.00    +0.051 C 
BRANCH  17  18
ATOM     18  C   UNL     1       0.342   5.144  -2.609  0.00  0.00    -0.026 C 
ATOM     19  C   UNL     1       1.619   5.541  -2.576  0.00  0.00    -0.030 C 
BRANCH  19  20
ATOM     20  C   UNL     1       2.063   6.643  -3.486  0.00  0.00    +0.038 C 
BRANCH  20  21
ATOM     21  C   UNL     1       3.436   7.087  -3.023  0.00  0.00    +0.119 C 
BRANCH  21  22
ATOM     22  C   UNL     1       4.357   6.881  -4.184  0.00  0.00    +0.365 C 
ATOM     23  O   UNL     1       4.047   7.622  -5.328  0.00  0.00    -0.246 OA
ATOM     24  O   UNL     1       4.835   5.713  -4.289  0.00  0.00    -0.246 OA
ENDBRANCH  21  22
ENDBRANCH  20  21
ENDBRANCH  19  20
ENDBRANCH  17  18
ENDBRANCH  16  17
ENDBRANCH  14  15
ENDBRANCH   2  14
TORSDOF 14
ENDMDL
MODEL 7
REMARK VINA RESULT:      -6.9      2.674      4.414
REMARK  Name = 
REMARK  14 active torsions:
REMARK  status: ('A' for Active; 'I' for Inactive)
REMARK    1  A    between atoms: C_2  and  C_3
REMARK    2  A    between atoms: C_4  and  C_5
REMARK    3  A    between atoms: C_5  and  C_6
REMARK    4  A    between atoms: C_7  and  C_8
REMARK    5  A    between atoms: C_8  and  C_9
REMARK    6  A    between atoms: C_10  and  C_11
REMARK    7  A    between atoms: C_11  and  C_12
REMARK    8  A    between atoms: C_13  and  C_14
REMARK    9  A    between atoms: C_14  and  C_15
REMARK   10  A    between atoms: C_16  and  C_17
REMARK   11  A    between atoms: C_17  and  C_18
REMARK   12  A    between atoms: C_19  and  C_20
REMARK   13  A    between atoms: C_20  and  C_21
REMARK   14  A    between atoms: C_21  and  C_22
REMARK                            x       y       z     vdW  Elec       q    Type
REMARK                         _______ _______ _______ _____ _____    ______ ____
ROOT
ATOM      1  C   UNL     1      -1.344   5.107  -6.741  0.00  0.00    -0.026 C 
ATOM      2  C   UNL     1      -2.374   5.878  -6.409  0.00  0.00    -0.026 C 
ENDROOT
BRANCH   1   3
ATOM      3  C   UNL     1       0.011   5.634  -6.396  0.00  0.00    +0.051 C 
BRANCH   3   5
ATOM      4  C   UNL     1       2.244   4.651  -6.319  0.00  0.00    -0.026 C 
ATOM      5  C   UNL     1       0.936   4.483  -6.180  0.00  0.00    -0.026 C 
BRANCH   4   6
ATOM      6  C   UNL     1       2.809   5.855  -7.009  0.00  0.00    +0.051 C 
BRANCH   6   8
ATOM      7  C   UNL     1       4.898   5.094  -8.097  0.00  0.00    -0.026 C 
ATOM      8  C   UNL     1       4.292   5.713  -7.085  0.00  0.00    -0.026 C 
BRANCH   7   9
ATOM      9  C   UNL     1       3.993   4.545  -9.160  0.00  0.00    +0.051 C 
BRANCH   9  11
ATOM     10  C   UNL     1       2.906   6.012 -10.724  0.00  0.00    -0.030 C 
ATOM     11  C   UNL     1       4.019   5.368 -10.388  0.00  0.00    -0.026 C 
BRANCH  10  13
ATOM     12  C   UNL     1       0.543   6.352 -10.006  0.00  0.00    +0.005 C 
ATOM     13  C   UNL     1       1.585   5.363 -10.496  0.00  0.00    +0.026 C 
ENDBRANCH  10  13
ENDBRANCH   9  11
ENDBRANCH   7   9
ENDBRANCH   6   8
ENDBRANCH   4   6
ENDBRANCH   3   5
ENDBRANCH   1   3
BRANCH   2  14
ATOM     14  C   UNL     1      -2.402   6.442  -5.049  0.00  0.00    +0.051 C 
BRANCH  14  15
ATOM     15  C   UNL     1      -2.733   5.449  -3.999  0.00  0.00    -0.026 C 
ATOM     16  C   UNL     1      -2.170   5.588  -2.794  0.00  0.00    -0.026 C 
BRANCH  16  17
ATOM     17  C   UNL     1      -0.776   6.140  -2.740  0.00  0.00    +0.051 C 
BRANCH  17  18
ATOM     18  C   UNL     1       0.224   5.082  -2.504  0.00  0.00    -0.026 C 
ATOM     19  C   UNL     1       1.496   5.472  -2.377  0.00  0.00    -0.030 C 
BRANCH  19  20
ATOM     20  C   UNL     1       2.022   6.545  -3.277  0.00  0.00    +0.038 C 
BRANCH  20  21
ATOM     21  C   UNL     1       3.533   6.422  -3.295  0.00  0.00    +0.119 C 
BRANCH  21  22
ATOM     22  C   UNL     1       4.066   7.817  -3.395  0.00  0.00    +0.365 C 
ATOM     23  O   UNL     1       5.139   7.982  -4.274  0.00  0.00    -0.246 OA
ATOM     24  O   UNL     1       4.007   8.492  -2.324  0.00  0.00    -0.246 OA
ENDBRANCH  21  22
ENDBRANCH  20  21
ENDBRANCH  19  20
ENDBRANCH  17  18
ENDBRANCH  16  17
ENDBRANCH  14  15
ENDBRANCH   2  14
TORSDOF 14
ENDMDL
MODEL 8
REMARK VINA RESULT:      -6.9      4.137      9.790
REMARK  Name = 
REMARK  14 active torsions:
REMARK  status: ('A' for Active; 'I' for Inactive)
REMARK    1  A    between atoms: C_2  and  C_3
REMARK    2  A    between atoms: C_4  and  C_5
REMARK    3  A    between atoms: C_5  and  C_6
REMARK    4  A    between atoms: C_7  and  C_8
REMARK    5  A    between atoms: C_8  and  C_9
REMARK    6  A    between atoms: C_10  and  C_11
REMARK    7  A    between atoms: C_11  and  C_12
REMARK    8  A    between atoms: C_13  and  C_14
REMARK    9  A    between atoms: C_14  and  C_15
REMARK   10  A    between atoms: C_16  and  C_17
REMARK   11  A    between atoms: C_17  and  C_18
REMARK   12  A    between atoms: C_19  and  C_20
REMARK   13  A    between atoms: C_20  and  C_21
REMARK   14  A    between atoms: C_21  and  C_22
REMARK                            x       y       z     vdW  Elec       q    Type
REMARK                         _______ _______ _______ _____ _____    ______ ____
ROOT
ATOM      1  C   UNL     1       1.102   6.561  -6.327  0.00  0.00    -0.026 C 
ATOM      2  C   UNL     1       1.951   6.719  -7.336  0.00  0.00    -0.026 C 
ENDROOT
BRANCH   1   3
ATOM      3  C   UNL     1       0.298   5.301  -6.334  0.00  0.00    +0.051 C 
BRANCH   3   5
ATOM      4  C   UNL     1      -2.089   5.808  -6.401  0.00  0.00    -0.026 C 
ATOM      5  C   UNL     1      -0.975   5.545  -7.072  0.00  0.00    -0.026 C 
BRANCH   4   6
ATOM      6  C   UNL     1      -2.198   5.541  -4.931  0.00  0.00    +0.051 C 
BRANCH   6   8
ATOM      7  C   UNL     1      -2.822   6.855  -2.930  0.00  0.00    -0.026 C 
ATOM      8  C   UNL     1      -2.677   6.779  -4.252  0.00  0.00    -0.026 C 
BRANCH   7   9
ATOM      9  C   UNL     1      -2.474   5.614  -2.163  0.00  0.00    +0.051 C 
BRANCH   9  11
ATOM     10  C   UNL     1      -0.253   6.044  -1.351  0.00  0.00    -0.030 C 
ATOM     11  C   UNL     1      -1.539   5.894  -1.053  0.00  0.00    -0.026 C 
BRANCH  10  13
ATOM     12  C   UNL     1       1.784   5.617  -2.725  0.00  0.00    +0.005 C 
ATOM     13  C   UNL     1       0.357   5.201  -2.417  0.00  0.00    +0.026 C 
ENDBRANCH  10  13
ENDBRANCH   9  11
ENDBRANCH   7   9
ENDBRANCH   6   8
ENDBRANCH   4   6
ENDBRANCH   3   5
ENDBRANCH   1   3
BRANCH   2  14
ATOM     14  C   UNL     1       2.825   5.585  -7.686  0.00  0.00    +0.051 C 
BRANCH  14  15
ATOM     15  C   UNL     1       2.743   5.188  -9.113  0.00  0.00    -0.026 C 
ATOM     16  C   UNL     1       3.877   5.121  -9.818  0.00  0.00    -0.026 C 
BRANCH  16  17
ATOM     17  C   UNL     1       4.960   6.103  -9.485  0.00  0.00    +0.051 C 
BRANCH  17  18
ATOM     18  C   UNL     1       6.208   5.426  -9.083  0.00  0.00    -0.026 C 
ATOM     19  C   UNL     1       7.353   6.064  -9.351  0.00  0.00    -0.030 C 
BRANCH  19  20
ATOM     20  C   UNL     1       7.500   6.777 -10.657  0.00  0.00    +0.038 C 
BRANCH  20  21
ATOM     21  C   UNL     1       8.293   5.874 -11.581  0.00  0.00    +0.119 C 
BRANCH  21  22
ATOM     22  C   UNL     1       7.568   5.873 -12.890  0.00  0.00    +0.365 C 
ATOM     23  O   UNL     1       6.437   6.691 -12.944  0.00  0.00    -0.246 OA
ATOM     24  O   UNL     1       7.592   4.772 -13.516  0.00  0.00    -0.246 OA
ENDBRANCH  21  22
ENDBRANCH  20  21
ENDBRANCH  19  20
ENDBRANCH  17  18
ENDBRANCH  16  17
ENDBRANCH  14  15
ENDBRANCH   2  14
TORSDOF 14
ENDMDL
MODEL 9
REMARK VINA RESULT:      -6.8      1.444      2.250
REMARK  Name = 
REMARK  14 active torsions:
REMARK  status: ('A' for Active; 'I' for Inactive)
REMARK    1  A    between atoms: C_2  and  C_3
REMARK    2  A    between atoms: C_4  and  C_5
REMARK    3  A    between atoms: C_5  and  C_6
REMARK    4  A    between atoms: C_7  and  C_8
REMARK    5  A    between atoms: C_8  and  C_9
REMARK    6  A    between atoms: C_10  and  C_11
REMARK    7  A    between atoms: C_11  and  C_12
REMARK    8  A    between atoms: C_13  and  C_14
REMARK    9  A    between atoms: C_14  and  C_15
REMARK   10  A    between atoms: C_16  and  C_17
REMARK   11  A    between atoms: C_17  and  C_18
REMARK   12  A    between atoms: C_19  and  C_20
REMARK   13  A    between atoms: C_20  and  C_21
REMARK   14  A    between atoms: C_21  and  C_22
REMARK                            x       y       z     vdW  Elec       q    Type
REMARK                         _______ _______ _______ _____ _____    ______ ____
ROOT
ATOM      1  C   UNL     1       0.744   5.779  -7.204  0.00  0.00    -0.026 C 
ATOM      2  C   UNL     1      -0.509   5.384  -7.405  0.00  0.00    -0.026 C 
ENDROOT
BRANCH   1   3
ATOM      3  C   UNL     1       0.927   6.958  -6.305  0.00  0.00    +0.051 C 
BRANCH   3   5
ATOM      4  C   UNL     1       2.798   6.651  -4.767  0.00  0.00    -0.026 C 
ATOM      5  C   UNL     1       1.503   6.492  -5.010  0.00  0.00    -0.026 C 
BRANCH   4   6
ATOM      6  C   UNL     1       3.766   6.969  -5.865  0.00  0.00    +0.051 C 
BRANCH   6   8
ATOM      7  C   UNL     1       4.706   5.353  -7.486  0.00  0.00    -0.026 C 
ATOM      8  C   UNL     1       4.512   5.727  -6.222  0.00  0.00    -0.026 C 
BRANCH   7   9
ATOM      9  C   UNL     1       4.126   6.259  -8.531  0.00  0.00    +0.051 C 
BRANCH   9  11
ATOM     10  C   UNL     1       4.842   5.927 -10.802  0.00  0.00    -0.030 C 
ATOM     11  C   UNL     1       3.994   5.582  -9.838  0.00  0.00    -0.026 C 
BRANCH  10  13
ATOM     12  C   UNL     1       6.776   7.489 -10.984  0.00  0.00    +0.005 C 
ATOM     13  C   UNL     1       5.266   7.348 -10.932  0.00  0.00    +0.026 C 
ENDBRANCH  10  13
ENDBRANCH   9  11
ENDBRANCH   7   9
ENDBRANCH   6   8
ENDBRANCH   4   6
ENDBRANCH   3   5
ENDBRANCH   1   3
BRANCH   2  14
ATOM     14  C   UNL     1      -1.382   5.239  -6.228  0.00  0.00    +0.051 C 
BRANCH  14  15
ATOM     15  C   UNL     1      -2.632   6.033  -6.312  0.00  0.00    -0.026 C 
ATOM     16  C   UNL     1      -2.760   7.100  -5.515  0.00  0.00    -0.026 C 
BRANCH  16  17
ATOM     17  C   UNL     1      -2.135   7.027  -4.154  0.00  0.00    +0.051 C 
BRANCH  17  18
ATOM     18  C   UNL     1      -2.982   6.285  -3.201  0.00  0.00    -0.026 C 
ATOM     19  C   UNL     1      -3.058   6.770  -1.957  0.00  0.00    -0.030 C 
BRANCH  19  20
ATOM     20  C   UNL     1      -1.821   7.303  -1.307  0.00  0.00    +0.038 C 
BRANCH  20  21
ATOM     21  C   UNL     1      -1.306   6.232  -0.365  0.00  0.00    +0.119 C 
BRANCH  21  22
ATOM     22  C   UNL     1       0.016   5.793  -0.913  0.00  0.00    +0.365 C 
ATOM     23  O   UNL     1      -0.041   4.747  -1.837  0.00  0.00    -0.246 OA
ATOM     24  O   UNL     1       0.987   5.879  -0.103  0.00  0.00    -0.246 OA
ENDBRANCH  21  22
ENDBRANCH  20  21
ENDBRANCH  19  20
ENDBRANCH  17  18
ENDBRANCH  16  17
ENDBRANCH  14  15
ENDBRANCH   2  14
TORSDOF 14
ENDMDL
