MODEL 1
REMARK VINA RESULT:      -7.0      0.000      0.000
REMARK  Name = 
REMARK  8 active torsions:
REMARK  status: ('A' for Active; 'I' for Inactive)
REMARK    1  A    between atoms: C_2  and  N_3
REMARK    2  A    between atoms: N_3  and  C_4
REMARK    3  A    between atoms: N_3  and  C_6
REMARK    4  A    between atoms: C_6  and  C_7
REMARK    5  A    between atoms: C_7  and  O_8
REMARK    6  A    between atoms: O_8  and  C_9
REMARK    7  A    between atoms: C_9  and  C_11
REMARK    8  A    between atoms: C_11  and  C_12
REMARK                            x       y       z     vdW  Elec       q    Type
REMARK                         _______ _______ _______ _____ _____    ______ ____
ROOT
ATOM      1  C   UNL     1       1.181   5.749  -6.502  0.00  0.00    +0.090 C 
ATOM      2  C   UNL     1       0.829   5.389  -7.942  0.00  0.00    +0.011 C 
ATOM      3  C   UNL     1       1.333   6.449  -8.908  0.00  0.00    +0.001 C 
ATOM      4  C   UNL     1       2.834   6.634  -8.738  0.00  0.00    +0.000 C 
ATOM      5  C   UNL     1       3.202   6.861  -7.277  0.00  0.00    +0.001 C 
ATOM      6  C   UNL     1       1.922   7.072  -6.518  0.00  0.00    +0.011 C 
ENDROOT
BRANCH   1   7
ATOM      7  C   UNL     1      -0.121   5.977  -5.800  0.00  0.00    +0.010 C 
ATOM      8  C   UNL     1      -1.231   5.643  -6.778  0.00  0.00    +0.001 C 
ATOM      9  C   UNL     1      -2.507   5.559  -5.965  0.00  0.00    +0.000 C 
ATOM     10  C   UNL     1      -2.745   6.892  -5.310  0.00  0.00    +0.000 C 
ATOM     11  C   UNL     1      -1.580   7.329  -4.437  0.00  0.00    +0.000 C 
ATOM     12  C   UNL     1      -0.317   7.372  -5.292  0.00  0.00    +0.001 C 
ENDBRANCH   1   7
BRANCH   1  13
ATOM     13  C   UNL     1       1.981   4.644  -5.957  0.00  0.00    +0.316 C 
ATOM     14  O   UNL     1       2.097   3.607  -6.677  0.00  0.00    -0.250 OA
BRANCH  13  15
ATOM     15  O   UNL     1       2.590   4.627  -4.722  0.00  0.00    -0.447 OA
BRANCH  15  16
ATOM     16  C   UNL     1       4.001   4.449  -4.709  0.00  0.00    +0.226 C 
BRANCH  16  17
ATOM     17  C   UNL     1       4.687   5.360  -3.729  0.00  0.00    +0.120 C 
BRANCH  17  18
ATOM     18  N   UNL     1       3.751   6.191  -3.009  0.00  0.00    -0.270 NA
BRANCH  18  19
ATOM     19  C   UNL     1       3.854   7.585  -3.359  0.00  0.00    +0.072 C 
ATOM     20  C   UNL     1       5.102   7.882  -4.181  0.00  0.00    +0.019 C 
ENDBRANCH  18  19
BRANCH  18  22
ATOM     21  C   UNL     1       3.900   4.647  -1.124  0.00  0.00    +0.019 C 
ATOM     22  C   UNL     1       4.056   6.080  -1.586  0.00  0.00    +0.072 C 
ENDBRANCH  18  22
ENDBRANCH  17  18
ENDBRANCH  16  17
ENDBRANCH  15  16
ENDBRANCH  13  15
ENDBRANCH   1  13
TORSDOF 8
ENDMDL
MODEL 2
REMARK VINA RESULT:      -6.9      3.286      6.152
REMARK  Name = 
REMARK  8 active torsions:
REMARK  status: ('A' for Active; 'I' for Inactive)
REMARK    1  A    between atoms: C_2  and  N_3
REMARK    2  A    between atoms: N_3  and  C_4
REMARK    3  A    between atoms: N_3  and  C_6
REMARK    4  A    between atoms: C_6  and  C_7
REMARK    5  A    between atoms: C_7  and  O_8
REMARK    6  A    between atoms: O_8  and  C_9
REMARK    7  A    between atoms: C_9  and  C_11
REMARK    8  A    between atoms: C_11  and  C_12
REMARK                            x       y       z     vdW  Elec       q    Type
REMARK                         _______ _______ _______ _____ _____    ______ ____
ROOT
ATOM      1  C   UNL     1       2.768   5.370  -7.164  0.00  0.00    +0.090 C 
ATOM      2  C   UNL     1       1.727   4.462  -6.519  0.00  0.00    +0.011 C 
ATOM      3  C   UNL     1       0.357   5.121  -6.511  0.00  0.00    +0.001 C 
ATOM      4  C   UNL     1      -0.044   5.499  -7.930  0.00  0.00    +0.000 C 
ATOM      5  C   UNL     1       1.054   6.295  -8.623  0.00  0.00    +0.001 C 
ATOM      6  C   UNL     1       2.077   6.654  -7.580  0.00  0.00    +0.011 C 
ENDROOT
BRANCH   1   7
ATOM      7  C   UNL     1       3.741   5.721  -6.082  0.00  0.00    +0.010 C 
ATOM      8  C   UNL     1       3.565   4.710  -4.966  0.00  0.00    +0.001 C 
ATOM      9  C   UNL     1       4.759   4.874  -4.046  0.00  0.00    +0.000 C 
ATOM     10  C   UNL     1       4.759   6.279  -3.510  0.00  0.00    +0.000 C 
ATOM     11  C   UNL     1       4.784   7.325  -4.613  0.00  0.00    +0.000 C 
ATOM     12  C   UNL     1       3.581   7.102  -5.524  0.00  0.00    +0.001 C 
ENDBRANCH   1   7
BRANCH   1  13
ATOM     13  C   UNL     1       3.353   4.635  -8.294  0.00  0.00    +0.316 C 
ATOM     14  O   UNL     1       2.828   3.520  -8.589  0.00  0.00    -0.250 OA
BRANCH  13  15
ATOM     15  O   UNL     1       4.439   5.039  -9.038  0.00  0.00    -0.447 OA
BRANCH  15  16
ATOM     16  C   UNL     1       4.186   5.403 -10.390  0.00  0.00    +0.226 C 
BRANCH  16  17
ATOM     17  C   UNL     1       4.592   6.819 -10.690  0.00  0.00    +0.120 C 
BRANCH  17  18
ATOM     18  N   UNL     1       5.589   6.891 -11.732  0.00  0.00    -0.270 NA
BRANCH  18  19
ATOM     19  C   UNL     1       6.167   5.608 -12.045  0.00  0.00    +0.072 C 
ATOM     20  C   UNL     1       6.476   5.462 -13.529  0.00  0.00    +0.019 C 
ENDBRANCH  18  19
BRANCH  18  22
ATOM     21  C   UNL     1       7.584   6.976 -10.326  0.00  0.00    +0.019 C 
ATOM     22  C   UNL     1       6.672   7.747 -11.257  0.00  0.00    +0.072 C 
ENDBRANCH  18  22
ENDBRANCH  17  18
ENDBRANCH  16  17
ENDBRANCH  15  16
ENDBRANCH  13  15
ENDBRANCH   1  13
TORSDOF 8
ENDMDL
MODEL 3
REMARK VINA RESULT:      -6.6      2.580      4.852
REMARK  Name = 
REMARK  8 active torsions:
REMARK  status: ('A' for Active; 'I' for Inactive)
REMARK    1  A    between atoms: C_2  and  N_3
REMARK    2  A    between atoms: N_3  and  C_4
REMARK    3  A    between atoms: N_3  and  C_6
REMARK    4  A    between atoms: C_6  and  C_7
REMARK    5  A    between atoms: C_7  and  O_8
REMARK    6  A    between atoms: O_8  and  C_9
REMARK    7  A    between atoms: C_9  and  C_11
REMARK    8  A    between atoms: C_11  and  C_12
REMARK                            x       y       z     vdW  Elec       q    Type
REMARK                         _______ _______ _______ _____ _____    ______ ____
ROOT
ATOM      1  C   UNL     1       1.351   6.161  -5.914  0.00  0.00    +0.090 C 
ATOM      2  C   UNL     1       2.000   6.827  -4.704  0.00  0.00    +0.011 C 
ATOM      3  C   UNL     1       2.488   5.789  -3.707  0.00  0.00    +0.001 C 
ATOM      4  C   UNL     1       3.452   4.829  -4.389  0.00  0.00    +0.000 C 
ATOM      5  C   UNL     1       2.856   4.264  -5.673  0.00  0.00    +0.001 C 
ATOM      6  C   UNL     1       1.406   4.660  -5.708  0.00  0.00    +0.011 C 
ENDROOT
BRANCH   1   7
ATOM      7  C   UNL     1      -0.090   6.561  -5.887  0.00  0.00    +0.010 C 
ATOM      8  C   UNL     1      -0.355   7.220  -4.547  0.00  0.00    +0.001 C 
ATOM      9  C   UNL     1      -1.703   7.903  -4.663  0.00  0.00    +0.000 C 
ATOM     10  C   UNL     1      -2.742   6.860  -4.969  0.00  0.00    +0.000 C 
ATOM     11  C   UNL     1      -2.427   6.075  -6.232  0.00  0.00    +0.000 C 
ATOM     12  C   UNL     1      -1.054   5.430  -6.076  0.00  0.00    +0.001 C 
ENDBRANCH   1   7
BRANCH   1  13
ATOM     13  C   UNL     1       2.084   6.609  -7.106  0.00  0.00    +0.316 C 
ATOM     14  O   UNL     1       2.890   7.577  -6.958  0.00  0.00    -0.250 OA
BRANCH  13  15
ATOM     15  O   UNL     1       1.949   6.087  -8.374  0.00  0.00    -0.447 OA
BRANCH  15  16
ATOM     16  C   UNL     1       2.449   6.879  -9.445  0.00  0.00    +0.226 C 
BRANCH  16  17
ATOM     17  C   UNL     1       3.391   6.114 -10.334  0.00  0.00    +0.120 C 
BRANCH  17  18
ATOM     18  N   UNL     1       4.756   6.567 -10.199  0.00  0.00    -0.270 NA
BRANCH  18  19
ATOM     19  C   UNL     1       5.327   7.006 -11.448  0.00  0.00    +0.072 C 
ATOM     20  C   UNL     1       6.445   8.021 -11.246  0.00  0.00    +0.019 C 
ENDBRANCH  18  19
BRANCH  18  22
ATOM     21  C   UNL     1       5.395   5.263  -8.237  0.00  0.00    +0.019 C 
ATOM     22  C   UNL     1       5.558   5.441  -9.732  0.00  0.00    +0.072 C 
ENDBRANCH  18  22
ENDBRANCH  17  18
ENDBRANCH  16  17
ENDBRANCH  15  16
ENDBRANCH  13  15
ENDBRANCH   1  13
TORSDOF 8
ENDMDL
MODEL 4
REMARK VINA RESULT:      -6.6      3.039      5.964
REMARK  Name = 
REMARK  8 active torsions:
REMARK  status: ('A' for Active; 'I' for Inactive)
REMARK    1  A    between atoms: C_2  and  N_3
REMARK    2  A    between atoms: N_3  and  C_4
REMARK    3  A    between atoms: N_3  and  C_6
REMARK    4  A    between atoms: C_6  and  C_7
REMARK    5  A    between atoms: C_7  and  O_8
REMARK    6  A    between atoms: O_8  and  C_9
REMARK    7  A    between atoms: C_9  and  C_11
REMARK    8  A    between atoms: C_11  and  C_12
REMARK                            x       y       z     vdW  Elec       q    Type
REMARK                         _______ _______ _______ _____ _____    ______ ____
ROOT
ATOM      1  C   UNL     1       2.506   6.589  -6.154  0.00  0.00    +0.090 C 
ATOM      2  C   UNL     1       2.847   5.103  -6.161  0.00  0.00    +0.011 C 
ATOM      3  C   UNL     1       1.643   4.264  -5.766  0.00  0.00    +0.001 C 
ATOM      4  C   UNL     1       0.475   4.565  -6.694  0.00  0.00    +0.000 C 
ATOM      5  C   UNL     1       0.217   6.064  -6.792  0.00  0.00    +0.001 C 
ATOM      6  C   UNL     1       1.054   6.734  -5.738  0.00  0.00    +0.011 C 
ENDROOT
BRANCH   1   7
ATOM      7  C   UNL     1       3.340   7.203  -5.074  0.00  0.00    +0.010 C 
ATOM      8  C   UNL     1       4.706   6.546  -5.125  0.00  0.00    +0.001 C 
ATOM      9  C   UNL     1       5.622   7.393  -4.265  0.00  0.00    +0.000 C 
ATOM     10  C   UNL     1       5.080   7.409  -2.861  0.00  0.00    +0.000 C 
ATOM     11  C   UNL     1       3.652   7.924  -2.793  0.00  0.00    +0.000 C 
ATOM     12  C   UNL     1       2.776   7.057  -3.693  0.00  0.00    +0.001 C 
ENDBRANCH   1   7
BRANCH   1  13
ATOM     13  C   UNL     1       2.776   7.109  -7.501  0.00  0.00    +0.316 C 
ATOM     14  O   UNL     1       2.350   8.273  -7.766  0.00  0.00    -0.250 OA
BRANCH  13  15
ATOM     15  O   UNL     1       3.426   6.429  -8.507  0.00  0.00    -0.447 OA
BRANCH  15  16
ATOM     16  C   UNL     1       3.086   6.788  -9.841  0.00  0.00    +0.226 C 
BRANCH  16  17
ATOM     17  C   UNL     1       4.155   6.410 -10.829  0.00  0.00    +0.120 C 
BRANCH  17  18
ATOM     18  N   UNL     1       5.466   6.846 -10.408  0.00  0.00    -0.270 NA
BRANCH  18  19
ATOM     19  C   UNL     1       6.018   7.868 -11.261  0.00  0.00    +0.072 C 
ATOM     20  C   UNL     1       6.533   7.303 -12.578  0.00  0.00    +0.019 C 
ENDBRANCH  18  19
BRANCH  18  22
ATOM     21  C   UNL     1       7.327   5.711  -9.308  0.00  0.00    +0.019 C 
ATOM     22  C   UNL     1       6.363   5.697 -10.476  0.00  0.00    +0.072 C 
ENDBRANCH  18  22
ENDBRANCH  17  18
ENDBRANCH  16  17
ENDBRANCH  15  16
ENDBRANCH  13  15
ENDBRANCH   1  13
TORSDOF 8
ENDMDL
MODEL 5
REMARK VINA RESULT:      -6.5      1.980      4.782
REMARK  Name = 
REMARK  8 active torsions:
REMARK  status: ('A' for Active; 'I' for Inactive)
REMARK    1  A    between atoms: C_2  and  N_3
REMARK    2  A    between atoms: N_3  and  C_4
REMARK    3  A    between atoms: N_3  and  C_6
REMARK    4  A    between atoms: C_6  and  C_7
REMARK    5  A    between atoms: C_7  and  O_8
REMARK    6  A    between atoms: O_8  and  C_9
REMARK    7  A    between atoms: C_9  and  C_11
REMARK    8  A    between atoms: C_11  and  C_12
REMARK                            x       y       z     vdW  Elec       q    Type
REMARK                         _______ _______ _______ _____ _____    ______ ____
ROOT
ATOM      1  C   UNL     1       2.149   5.781  -6.520  0.00  0.00    +0.090 C 
ATOM      2  C   UNL     1       1.843   7.220  -6.923  0.00  0.00    +0.011 C 
ATOM      3  C   UNL     1       2.512   7.572  -8.241  0.00  0.00    +0.001 C 
ATOM      4  C   UNL     1       2.076   6.593  -9.321  0.00  0.00    +0.000 C 
ATOM      5  C   UNL     1       2.258   5.150  -8.868  0.00  0.00    +0.001 C 
ATOM      6  C   UNL     1       3.043   5.177  -7.586  0.00  0.00    +0.011 C 
ENDROOT
BRANCH   1   7
ATOM      7  C   UNL     1       2.953   5.863  -5.261  0.00  0.00    +0.010 C 
ATOM      8  C   UNL     1       2.537   7.129  -4.536  0.00  0.00    +0.001 C 
ATOM      9  C   UNL     1       3.105   7.028  -3.135  0.00  0.00    +0.000 C 
ATOM     10  C   UNL     1       4.603   6.926  -3.232  0.00  0.00    +0.000 C 
ATOM     11  C   UNL     1       5.054   5.749  -4.081  0.00  0.00    +0.000 C 
ATOM     12  C   UNL     1       4.437   5.882  -5.470  0.00  0.00    +0.001 C 
ENDBRANCH   1   7
BRANCH   1  13
ATOM     13  C   UNL     1       0.865   5.082  -6.377  0.00  0.00    +0.316 C 
ATOM     14  O   UNL     1       0.898   3.906  -5.905  0.00  0.00    -0.250 OA
BRANCH  13  15
ATOM     15  O   UNL     1      -0.366   5.583  -6.740  0.00  0.00    -0.447 OA
BRANCH  15  16
ATOM     16  C   UNL     1      -1.353   5.649  -5.718  0.00  0.00    +0.226 C 
BRANCH  16  17
ATOM     17  C   UNL     1      -1.343   6.966  -4.993  0.00  0.00    +0.120 C 
BRANCH  17  18
ATOM     18  N   UNL     1      -1.084   6.810  -3.581  0.00  0.00    -0.270 NA
BRANCH  18  19
ATOM     19  C   UNL     1      -1.044   5.430  -3.168  0.00  0.00    +0.072 C 
ATOM     20  C   UNL     1       0.154   5.130  -2.276  0.00  0.00    +0.019 C 
ENDBRANCH  18  19
BRANCH  18  22
ATOM     21  C   UNL     1      -3.317   6.471  -2.655  0.00  0.00    +0.019 C 
ATOM     22  C   UNL     1      -2.176   7.447  -2.852  0.00  0.00    +0.072 C 
ENDBRANCH  18  22
ENDBRANCH  17  18
ENDBRANCH  16  17
ENDBRANCH  15  16
ENDBRANCH  13  15
ENDBRANCH   1  13
TORSDOF 8
ENDMDL
MODEL 6
REMARK VINA RESULT:      -6.1      2.608      6.451
REMARK  Name = 
REMARK  8 active torsions:
REMARK  status: ('A' for Active; 'I' for Inactive)
REMARK    1  A    between atoms: C_2  and  N_3
REMARK    2  A    between atoms: N_3  and  C_4
REMARK    3  A    between atoms: N_3  and  C_6
REMARK    4  A    between atoms: C_6  and  C_7
REMARK    5  A    between atoms: C_7  and  O_8
REMARK    6  A    between atoms: O_8  and  C_9
REMARK    7  A    between atoms: C_9  and  C_11
REMARK    8  A    between atoms: C_11  and  C_12
REMARK                            x       y       z     vdW  Elec       q    Type
REMARK                         _______ _______ _______ _____ _____    ______ ____
ROOT
ATOM      1  C   UNL     1       3.335   6.637  -2.282  0.00  0.00    +0.090 C 
ATOM      2  C   UNL     1       3.740   7.702  -3.296  0.00  0.00    +0.011 C 
ATOM      3  C   UNL     1       4.985   7.282  -4.060  0.00  0.00    +0.001 C 
ATOM      4  C   UNL     1       4.750   5.940  -4.737  0.00  0.00    +0.000 C 
ATOM      5  C   UNL     1       4.216   4.908  -3.751  0.00  0.00    +0.001 C 
ATOM      6  C   UNL     1       4.334   5.499  -2.373  0.00  0.00    +0.011 C 
ENDROOT
BRANCH   1   7
ATOM      7  C   UNL     1       3.496   7.263  -0.933  0.00  0.00    +0.010 C 
ATOM      8  C   UNL     1       3.570   8.764  -1.133  0.00  0.00    +0.001 C 
ATOM      9  C   UNL     1       3.401   9.389   0.237  0.00  0.00    +0.000 C 
ATOM     10  C   UNL     1       4.516   8.905   1.123  0.00  0.00    +0.000 C 
ATOM     11  C   UNL     1       4.564   7.390   1.226  0.00  0.00    +0.000 C 
ATOM     12  C   UNL     1       4.707   6.808  -0.177  0.00  0.00    +0.001 C 
ENDBRANCH   1   7
BRANCH   1  13
ATOM     13  C   UNL     1       1.961   6.227  -2.602  0.00  0.00    +0.316 C 
ATOM     14  O   UNL     1       1.391   5.438  -1.789  0.00  0.00    -0.250 OA
BRANCH  13  15
ATOM     15  O   UNL     1       1.252   6.601  -3.722  0.00  0.00    -0.447 OA
BRANCH  15  16
ATOM     16  C   UNL     1       0.641   5.555  -4.469  0.00  0.00    +0.226 C 
BRANCH  16  17
ATOM     17  C   UNL     1      -0.860   5.583  -4.377  0.00  0.00    +0.120 C 
BRANCH  17  18
ATOM     18  N   UNL     1      -1.365   6.911  -4.119  0.00  0.00    -0.270 NA
BRANCH  18  19
ATOM     19  C   UNL     1      -1.978   7.036  -2.820  0.00  0.00    +0.072 C 
ATOM     20  C   UNL     1      -2.649   5.744  -2.373  0.00  0.00    +0.019 C 
ENDBRANCH  18  19
BRANCH  18  22
ATOM     21  C   UNL     1      -2.482   6.073  -6.122  0.00  0.00    +0.019 C 
ATOM     22  C   UNL     1      -2.397   7.197  -5.111  0.00  0.00    +0.072 C 
ENDBRANCH  18  22
ENDBRANCH  17  18
ENDBRANCH  16  17
ENDBRANCH  15  16
ENDBRANCH  13  15
ENDBRANCH   1  13
TORSDOF 8
ENDMDL
MODEL 7
REMARK VINA RESULT:      -6.1      3.567      5.836
REMARK  Name = 
REMARK  8 active torsions:
REMARK  status: ('A' for Active; 'I' for Inactive)
REMARK    1  A    between atoms: C_2  and  N_3
REMARK    2  A    between atoms: N_3  and  C_4
REMARK    3  A    between atoms: N_3  and  C_6
REMARK    4  A    between atoms: C_6  and  C_7
REMARK    5  A    between atoms: C_7  and  O_8
REMARK    6  A    between atoms: O_8  and  C_9
REMARK    7  A    between atoms: C_9  and  C_11
REMARK    8  A    between atoms: C_11  and  C_12
REMARK                            x       y       z     vdW  Elec       q    Type
REMARK                         _______ _______ _______ _____ _____    ______ ____
ROOT
ATOM      1  C   UNL     1       1.207   5.918  -9.293  0.00  0.00    +0.090 C 
ATOM      2  C   UNL     1       1.075   4.464  -9.735  0.00  0.00    +0.011 C 
ATOM      3  C   UNL     1       0.039   4.321 -10.838  0.00  0.00    +0.001 C 
ATOM      4  C   UNL     1       0.402   5.222 -12.010  0.00  0.00    +0.000 C 
ATOM      5  C   UNL     1       0.665   6.650 -11.550  0.00  0.00    +0.001 C 
ATOM      6  C   UNL     1       0.236   6.746 -10.112  0.00  0.00    +0.011 C 
ENDROOT
BRANCH   1   7
ATOM      7  C   UNL     1       0.742   5.965  -7.872  0.00  0.00    +0.010 C 
ATOM      8  C   UNL     1       1.659   5.068  -7.063  0.00  0.00    +0.001 C 
ATOM      9  C   UNL     1       1.388   5.380  -5.605  0.00  0.00    +0.000 C 
ATOM     10  C   UNL     1      -0.057   5.083  -5.313  0.00  0.00    +0.000 C 
ATOM     11  C   UNL     1      -1.006   5.857  -6.213  0.00  0.00    +0.000 C 
ATOM     12  C   UNL     1      -0.677   5.530  -7.666  0.00  0.00    +0.001 C 
ENDBRANCH   1   7
BRANCH   1  13
ATOM     13  C   UNL     1       2.609   6.310  -9.488  0.00  0.00    +0.316 C 
ATOM     14  O   UNL     1       2.966   7.430  -9.012  0.00  0.00    -0.250 OA
BRANCH  13  15
ATOM     15  O   UNL     1       3.560   5.581 -10.168  0.00  0.00    -0.447 OA
BRANCH  15  16
ATOM     16  C   UNL     1       4.732   5.228  -9.443  0.00  0.00    +0.226 C 
BRANCH  16  17
ATOM     17  C   UNL     1       5.992   5.660 -10.141  0.00  0.00    +0.120 C 
BRANCH  17  18
ATOM     18  N   UNL     1       5.723   6.268 -11.423  0.00  0.00    -0.270 NA
BRANCH  18  19
ATOM     19  C   UNL     1       6.068   5.415 -12.533  0.00  0.00    +0.072 C 
ATOM     20  C   UNL     1       4.948   5.327 -13.561  0.00  0.00    +0.019 C 
ENDBRANCH  18  19
BRANCH  18  22
ATOM     21  C   UNL     1       7.640   7.452 -10.481  0.00  0.00    +0.019 C 
ATOM     22  C   UNL     1       6.548   7.468 -11.530  0.00  0.00    +0.072 C 
ENDBRANCH  18  22
ENDBRANCH  17  18
ENDBRANCH  16  17
ENDBRANCH  15  16
ENDBRANCH  13  15
ENDBRANCH   1  13
TORSDOF 8
ENDMDL
MODEL 8
REMARK VINA RESULT:      -6.0      2.389      4.926
REMARK  Name = 
REMARK  8 active torsions:
REMARK  status: ('A' for Active; 'I' for Inactive)
REMARK    1  A    between atoms: C_2  and  N_3
REMARK    2  A    between atoms: N_3  and  C_4
REMARK    3  A    between atoms: N_3  and  C_6
REMARK    4  A    between atoms: C_6  and  C_7
REMARK    5  A    between atoms: C_7  and  O_8
REMARK    6  A    between atoms: O_8  and  C_9
REMARK    7  A    between atoms: C_9  and  C_11
REMARK    8  A    between atoms: C_11  and  C_12
REMARK                            x       y       z     vdW  Elec       q    Type
REMARK                         _______ _______ _______ _____ _____    ______ ____
ROOT
ATOM      1  C   UNL     1       3.589   6.177  -8.042  0.00  0.00    +0.090 C 
ATOM      2  C   UNL     1       2.582   7.214  -8.528  0.00  0.00    +0.011 C 
ATOM      3  C   UNL     1       1.406   6.549  -9.223  0.00  0.00    +0.001 C 
ATOM      4  C   UNL     1       0.752   5.543  -8.287  0.00  0.00    +0.000 C 
ATOM      5  C   UNL     1       1.780   4.587  -7.695  0.00  0.00    +0.001 C 
ATOM      6  C   UNL     1       3.073   4.805  -8.431  0.00  0.00    +0.011 C 
ENDROOT
BRANCH   1   7
ATOM      7  C   UNL     1       4.843   6.417  -8.823  0.00  0.00    +0.010 C 
ATOM      8  C   UNL     1       4.437   6.772 -10.240  0.00  0.00    +0.001 C 
ATOM      9  C   UNL     1       5.675   7.326 -10.916  0.00  0.00    +0.000 C 
ATOM     10  C   UNL     1       6.740   6.263 -10.907  0.00  0.00    +0.000 C 
ATOM     11  C   UNL     1       7.066   5.775  -9.505  0.00  0.00    +0.000 C 
ATOM     12  C   UNL     1       5.786   5.253  -8.859  0.00  0.00    +0.001 C 
ENDBRANCH   1   7
BRANCH   1  13
ATOM     13  C   UNL     1       3.733   6.351  -6.591  0.00  0.00    +0.316 C 
ATOM     14  O   UNL     1       3.216   7.390  -6.081  0.00  0.00    -0.250 OA
BRANCH  13  15
ATOM     15  O   UNL     1       4.407   5.498  -5.743  0.00  0.00    -0.447 OA
BRANCH  15  16
ATOM     16  C   UNL     1       4.762   6.018  -4.467  0.00  0.00    +0.226 C 
BRANCH  16  17
ATOM     17  C   UNL     1       3.999   5.365  -3.348  0.00  0.00    +0.120 C 
BRANCH  17  18
ATOM     18  N   UNL     1       3.726   6.281  -2.266  0.00  0.00    -0.270 NA
BRANCH  18  19
ATOM     19  C   UNL     1       4.498   7.496  -2.351  0.00  0.00    +0.072 C 
ATOM     20  C   UNL     1       3.773   8.684  -1.733  0.00  0.00    +0.019 C 
ENDBRANCH  18  19
BRANCH  18  22
ATOM     21  C   UNL     1       3.656   4.174  -1.036  0.00  0.00    +0.019 C 
ATOM     22  C   UNL     1       4.095   5.623  -1.017  0.00  0.00    +0.072 C 
ENDBRANCH  18  22
ENDBRANCH  17  18
ENDBRANCH  16  17
ENDBRANCH  15  16
ENDBRANCH  13  15
ENDBRANCH   1  13
TORSDOF 8
ENDMDL
MODEL 9
REMARK VINA RESULT:      -6.0      2.821      5.798
REMARK  Name = 
REMARK  8 active torsions:
REMARK  status: ('A' for Active; 'I' for Inactive)
REMARK    1  A    between atoms: C_2  and  N_3
REMARK    2  A    between atoms: N_3  and  C_4
REMARK    3  A    between atoms: N_3  and  C_6
REMARK    4  A    between atoms: C_6  and  C_7
REMARK    5  A    between atoms: C_7  and  O_8
REMARK    6  A    between atoms: O_8  and  C_9
REMARK    7  A    between atoms: C_9  and  C_11
REMARK    8  A    between atoms: C_11  and  C_12
REMARK                            x       y       z     vdW  Elec       q    Type
REMARK                         _______ _______ _______ _____ _____    ______ ____
ROOT
ATOM      1  C   UNL     1       1.305   6.057  -6.096  0.00  0.00    +0.090 C 
ATOM      2  C   UNL     1       2.032   6.746  -4.946  0.00  0.00    +0.011 C 
ATOM      3  C   UNL     1       2.548   5.731  -3.940  0.00  0.00    +0.001 C 
ATOM      4  C   UNL     1       3.450   4.723  -4.636  0.00  0.00    +0.000 C 
ATOM      5  C   UNL     1       2.774   4.130  -5.866  0.00  0.00    +0.001 C 
ATOM      6  C   UNL     1       1.334   4.562  -5.839  0.00  0.00    +0.011 C 
ENDROOT
BRANCH   1   7
ATOM      7  C   UNL     1      -0.123   6.495  -6.009  0.00  0.00    +0.010 C 
ATOM      8  C   UNL     1      -0.313   7.161  -4.660  0.00  0.00    +0.001 C 
ATOM      9  C   UNL     1      -1.646   7.880  -4.720  0.00  0.00    +0.000 C 
ATOM     10  C   UNL     1      -2.725   6.864  -4.980  0.00  0.00    +0.000 C 
ATOM     11  C   UNL     1      -2.485   6.071  -6.254  0.00  0.00    +0.000 C 
ATOM     12  C   UNL     1      -1.123   5.389  -6.156  0.00  0.00    +0.001 C 
ENDBRANCH   1   7
BRANCH   1  13
ATOM     13  C   UNL     1       1.985   6.443  -7.340  0.00  0.00    +0.316 C 
ATOM     14  O   UNL     1       2.716   7.478  -7.299  0.00  0.00    -0.250 OA
BRANCH  13  15
ATOM     15  O   UNL     1       1.872   5.796  -8.551  0.00  0.00    -0.447 OA
BRANCH  15  16
ATOM     16  C   UNL     1       2.775   6.197  -9.574  0.00  0.00    +0.226 C 
BRANCH  16  17
ATOM     17  C   UNL     1       2.066   6.654 -10.820  0.00  0.00    +0.120 C 
BRANCH  17  18
ATOM     18  N   UNL     1       1.450   5.558 -11.529  0.00  0.00    -0.270 NA
BRANCH  18  19
ATOM     19  C   UNL     1       1.783   5.539 -12.932  0.00  0.00    +0.072 C 
ATOM     20  C   UNL     1       3.287   5.594 -13.167  0.00  0.00    +0.019 C 
ENDBRANCH  18  19
BRANCH  18  22
ATOM     21  C   UNL     1      -0.362   7.190 -11.401  0.00  0.00    +0.019 C 
ATOM     22  C   UNL     1       0.002   5.720 -11.433  0.00  0.00    +0.072 C 
ENDBRANCH  18  22
ENDBRANCH  17  18
ENDBRANCH  16  17
ENDBRANCH  15  16
ENDBRANCH  13  15
ENDBRANCH   1  13
TORSDOF 8
ENDMDL
