MODEL 1
REMARK VINA RESULT:      -5.7      0.000      0.000
REMARK  Name = 
REMARK  7 active torsions:
REMARK  status: ('A' for Active; 'I' for Inactive)
REMARK    1  A    between atoms: C_5  and  C_6
REMARK    2  A    between atoms: N_8  and  C_9
REMARK    3  A    between atoms: C_19  and  C_20
REMARK    4  A    between atoms: N_22  and  S_23
REMARK    5  A    between atoms: S_23  and  C_26
REMARK    6  A    between atoms: C_34  and  O_35
REMARK    7  A    between atoms: O_35  and  C_36
REMARK                            x       y       z     vdW  Elec       q    Type
REMARK                         _______ _______ _______ _____ _____    ______ ____
ROOT
ATOM      1  C   UNL     1       3.662   5.498  -8.904  0.00  0.00    +0.172 C 
ATOM      2  C   UNL     1       4.827   5.947  -7.851  0.00  0.00    +0.246 C 
ATOM      3  O   UNL     1       5.949   5.464  -8.090  0.00  0.00    -0.273 OA
ATOM      4  N   UNL     1       4.462   6.230  -6.537  0.00  0.00    -0.268 N 
ATOM      5  C   UNL     1       2.941   6.018  -6.109  0.00  0.00    +0.157 C 
ATOM      6  C   UNL     1       3.101   7.032  -4.810  0.00  0.00    +0.075 C 
ATOM      7  C   UNL     1       4.529   6.447  -4.193  0.00  0.00    +0.189 C 
ATOM      8  C   UNL     1       2.377   7.213  -7.071  0.00  0.00    +0.260 C 
ATOM      9  O   UNL     1       3.088   8.231  -7.130  0.00  0.00    -0.272 OA
ATOM     10  N   UNL     1       0.986   7.496  -6.834  0.00  0.00    -0.198 NA
ATOM     11  C   UNL     1       0.067   6.748  -6.172  0.00  0.00    +0.154 C 
ATOM     12  C   UNL     1      -0.837   5.829  -7.260  0.00  0.00    +0.051 C 
ATOM     13  C   UNL     1       0.090   6.239  -8.591  0.00  0.00    -0.029 C 
ATOM     14  C   UNL     1      -0.555   5.629  -9.599  0.00  0.00    -0.031 C 
ATOM     15  C   UNL     1      -0.266   4.156  -9.555  0.00  0.00    +0.026 C 
ATOM     16  C   UNL     1       1.185   4.110 -10.027  0.00  0.00    +0.005 C 
ATOM     17  C   UNL     1       1.910   2.918  -9.475  0.00  0.00    +0.000 C 
ATOM     18  C   UNL     1       2.976   3.210  -8.507  0.00  0.00    +0.002 C 
ATOM     19  C   UNL     1       0.425   5.137  -6.382  0.00  0.00    +0.036 C 
ATOM     20  C   UNL     1       4.764   5.340  -5.407  0.00  0.00    +0.137 C 
ATOM     21  C   UNL     1       4.186   3.912  -9.005  0.00  0.00    +0.031 C 
ENDROOT
BRANCH   1  23
ATOM     22  C   UNL     1       3.994   6.035 -11.402  0.00  0.00    +0.284 C 
ATOM     23  N   UNL     1       4.500   6.044 -10.143  0.00  0.00    -0.193 NA
ATOM     24  O   UNL     1       2.910   5.490 -11.663  0.00  0.00    -0.267 OA
BRANCH  22  29
ATOM     25  C   UNL     1       6.856   7.739 -15.796  0.00  0.00    +0.054 C 
ATOM     26  C   UNL     1       6.070   7.378 -14.695  0.00  0.00    +0.079 A 
ATOM     27  N   UNL     1       5.176   6.380 -14.845  0.00  0.00    -0.245 NA
ATOM     28  C   UNL     1       4.486   5.854 -13.803  0.00  0.00    +0.122 A 
ATOM     29  C   UNL     1       4.940   6.143 -12.522  0.00  0.00    +0.155 A 
ATOM     30  N   UNL     1       6.014   6.955 -12.367  0.00  0.00    -0.236 NA
ATOM     31  C   UNL     1       6.486   7.677 -13.413  0.00  0.00    +0.114 A 
ENDBRANCH  22  29
ENDBRANCH   1  23
BRANCH  11  32
ATOM     32  C   UNL     1      -0.974   7.074  -5.244  0.00  0.00    +0.280 C 
ATOM     33  N   UNL     1      -1.626   5.939  -4.683  0.00  0.00    -0.062 NA
ATOM     34  O   UNL     1      -1.233   8.137  -4.665  0.00  0.00    -0.270 OA
BRANCH  33  35
ATOM     35  S   UNL     1      -2.796   5.819  -3.499  0.00  0.00    +0.074 S 
ATOM     36  O   UNL     1      -4.095   5.191  -3.959  0.00  0.00    -0.153 OA
ATOM     37  O   UNL     1      -2.266   4.782  -2.524  0.00  0.00    -0.153 OA
BRANCH  35  38
ATOM     38  C   UNL     1      -3.075   7.265  -2.532  0.00  0.00    +0.151 C 
ATOM     39  C   UNL     1      -3.038   7.025  -0.996  0.00  0.00    +0.027 C 
ATOM     40  C   UNL     1      -1.929   7.731  -1.671  0.00  0.00    +0.027 C 
ENDBRANCH  35  38
ENDBRANCH  33  35
ENDBRANCH  11  32
BRANCH   7  41
ATOM     41  O   UNL     1       3.805   5.379  -3.315  0.00  0.00    -0.462 OA
BRANCH  41  42
ATOM     42  C   UNL     1       3.723   5.713  -1.964  0.00  0.00    +0.225 A 
ATOM     43  C   UNL     1       2.475   5.919  -1.387  0.00  0.00    +0.053 A 
ATOM     44  C   UNL     1       2.328   6.621  -0.196  0.00  0.00    +0.006 A 
ATOM     45  C   UNL     1       1.090   6.699   0.429  0.00  0.00    +0.000 A 
ATOM     46  C   UNL     1       0.038   6.097  -0.251  0.00  0.00    +0.000 A 
ATOM     47  C   UNL     1       0.235   5.146  -1.233  0.00  0.00    +0.000 A 
ATOM     48  C   UNL     1       3.417   7.300   0.339  0.00  0.00    +0.018 A 
ATOM     49  C   UNL     1       4.637   7.031  -0.263  0.00  0.00    +0.084 A 
ATOM     50  C   UNL     1       5.766   7.584   0.323  0.00  0.00    +0.019 A 
ATOM     51  C   UNL     1       5.747   8.013   1.643  0.00  0.00    +0.002 A 
ATOM     52  C   UNL     1       4.509   8.377   2.135  0.00  0.00    +0.000 A 
ATOM     53  C   UNL     1       3.332   7.957   1.563  0.00  0.00    +0.001 A 
ATOM     54  C   UNL     1       1.540   4.955  -1.656  0.00  0.00    +0.005 A 
ATOM     55  N   UNL     1       4.664   6.588  -1.538  0.00  0.00    -0.212 NA
ENDBRANCH  41  42
ENDBRANCH   7  41
TORSDOF 7
ENDMDL
MODEL 2
REMARK VINA RESULT:      -5.5      4.660      9.124
REMARK  Name = 
REMARK  7 active torsions:
REMARK  status: ('A' for Active; 'I' for Inactive)
REMARK    1  A    between atoms: C_5  and  C_6
REMARK    2  A    between atoms: N_8  and  C_9
REMARK    3  A    between atoms: C_19  and  C_20
REMARK    4  A    between atoms: N_22  and  S_23
REMARK    5  A    between atoms: S_23  and  C_26
REMARK    6  A    between atoms: C_34  and  O_35
REMARK    7  A    between atoms: O_35  and  C_36
REMARK                            x       y       z     vdW  Elec       q    Type
REMARK                         _______ _______ _______ _____ _____    ______ ____
ROOT
ATOM      1  C   UNL     1       1.114   7.017 -15.559  0.00  0.00    +0.172 C 
ATOM      2  C   UNL     1       0.251   6.345 -14.347  0.00  0.00    +0.246 C 
ATOM      3  O   UNL     1      -0.934   6.727 -14.287  0.00  0.00    -0.273 OA
ATOM      4  N   UNL     1       0.916   5.975 -13.181  0.00  0.00    -0.268 N 
ATOM      5  C   UNL     1       2.471   6.305 -13.058  0.00  0.00    +0.157 C 
ATOM      6  C   UNL     1       2.685   5.156 -11.885  0.00  0.00    +0.075 C 
ATOM      7  C   UNL     1       1.384   5.522 -10.918  0.00  0.00    +0.189 C 
ATOM      8  C   UNL     1       2.908   5.277 -14.252  0.00  0.00    +0.260 C 
ATOM      9  O   UNL     1       2.289   4.200 -14.283  0.00  0.00    -0.272 OA
ATOM     10  N   UNL     1       4.336   5.123 -14.346  0.00  0.00    -0.198 NA
ATOM     11  C   UNL     1       5.312   5.896 -13.806  0.00  0.00    +0.154 C 
ATOM     12  C   UNL     1       5.876   7.009 -14.941  0.00  0.00    +0.051 C 
ATOM     13  C   UNL     1       4.717   6.636 -16.089  0.00  0.00    -0.029 C 
ATOM     14  C   UNL     1       5.072   7.407 -17.129  0.00  0.00    -0.031 C 
ATOM     15  C   UNL     1       4.678   8.830 -16.850  0.00  0.00    +0.026 C 
ATOM     16  C   UNL     1       3.160   8.766 -17.001  0.00  0.00    +0.005 C 
ATOM     17  C   UNL     1       2.478   9.813 -16.171  0.00  0.00    +0.000 C 
ATOM     18  C   UNL     1       1.678   9.316 -15.044  0.00  0.00    +0.002 C 
ATOM     19  C   UNL     1       4.784   7.472 -13.744  0.00  0.00    +0.036 C 
ATOM     20  C   UNL     1       0.796   6.712 -11.916  0.00  0.00    +0.137 C 
ATOM     21  C   UNL     1       0.451   8.541 -15.359  0.00  0.00    +0.031 C 
ENDROOT
BRANCH   1  23
ATOM     22  C   UNL     1      -0.449   7.351 -17.579  0.00  0.00    +0.284 C 
ATOM     23  N   UNL     1       0.074   6.510 -16.652  0.00  0.00    -0.193 NA
ATOM     24  O   UNL     1      -0.239   8.573 -17.541  0.00  0.00    -0.267 OA
BRANCH  22  29
ATOM     25  C   UNL     1      -5.614   5.812 -18.750  0.00  0.00    +0.054 C 
ATOM     26  C   UNL     1      -4.323   6.191 -18.362  0.00  0.00    +0.079 A 
ATOM     27  N   UNL     1      -3.334   5.277 -18.446  0.00  0.00    -0.245 NA
ATOM     28  C   UNL     1      -2.030   5.591 -18.247  0.00  0.00    +0.122 A 
ATOM     29  C   UNL     1      -1.685   6.937 -18.260  0.00  0.00    +0.155 A 
ATOM     30  N   UNL     1      -2.655   7.869 -18.433  0.00  0.00    -0.236 NA
ATOM     31  C   UNL     1      -3.963   7.523 -18.341  0.00  0.00    +0.114 A 
ENDBRANCH  22  29
ENDBRANCH   1  23
BRANCH  11  32
ATOM     32  C   UNL     1       6.555   5.594 -13.161  0.00  0.00    +0.280 C 
ATOM     33  N   UNL     1       6.758   6.294 -11.938  0.00  0.00    -0.062 NA
ATOM     34  O   UNL     1       7.352   4.665 -13.345  0.00  0.00    -0.270 OA
BRANCH  33  35
ATOM     35  S   UNL     1       7.976   6.188 -10.802  0.00  0.00    +0.074 S 
ATOM     36  O   UNL     1       9.341   5.860 -11.371  0.00  0.00    -0.153 OA
ATOM     37  O   UNL     1       8.171   7.608 -10.299  0.00  0.00    -0.153 OA
BRANCH  35  38
ATOM     38  C   UNL     1       7.619   5.231  -9.367  0.00  0.00    +0.151 C 
ATOM     39  C   UNL     1       6.658   5.923  -8.358  0.00  0.00    +0.027 C 
ATOM     40  C   UNL     1       6.188   4.793  -9.188  0.00  0.00    +0.027 C 
ENDBRANCH  35  38
ENDBRANCH  33  35
ENDBRANCH  11  32
BRANCH   7  41
ATOM     41  O   UNL     1       2.191   6.570 -10.089  0.00  0.00    -0.462 OA
BRANCH  41  42
ATOM     42  C   UNL     1       2.241   6.298  -8.723  0.00  0.00    +0.225 A 
ATOM     43  C   UNL     1       1.055   6.176  -8.008  0.00  0.00    +0.053 A 
ATOM     44  C   UNL     1       1.022   6.300  -6.624  0.00  0.00    +0.006 A 
ATOM     45  C   UNL     1      -0.148   6.044  -5.920  0.00  0.00    +0.000 A 
ATOM     46  C   UNL     1      -1.257   5.732  -6.697  0.00  0.00    +0.000 A 
ATOM     47  C   UNL     1      -1.151   5.296  -8.004  0.00  0.00    +0.000 A 
ATOM     48  C   UNL     1       2.152   6.745  -5.947  0.00  0.00    +0.018 A 
ATOM     49  C   UNL     1       3.308   6.818  -6.709  0.00  0.00    +0.084 A 
ATOM     50  C   UNL     1       4.484   7.129  -6.044  0.00  0.00    +0.019 A 
ATOM     51  C   UNL     1       4.594   6.959  -4.671  0.00  0.00    +0.002 A 
ATOM     52  C   UNL     1       3.408   7.017  -3.965  0.00  0.00    +0.000 A 
ATOM     53  C   UNL     1       2.184   6.818  -4.558  0.00  0.00    +0.001 A 
ATOM     54  C   UNL     1       0.108   5.369  -8.579  0.00  0.00    +0.005 A 
ATOM     55  N   UNL     1       3.212   6.957  -8.049  0.00  0.00    -0.212 NA
ENDBRANCH  41  42
ENDBRANCH   7  41
TORSDOF 7
ENDMDL
MODEL 3
REMARK VINA RESULT:      -4.6      4.799      9.580
REMARK  Name = 
REMARK  7 active torsions:
REMARK  status: ('A' for Active; 'I' for Inactive)
REMARK    1  A    between atoms: C_5  and  C_6
REMARK    2  A    between atoms: N_8  and  C_9
REMARK    3  A    between atoms: C_19  and  C_20
REMARK    4  A    between atoms: N_22  and  S_23
REMARK    5  A    between atoms: S_23  and  C_26
REMARK    6  A    between atoms: C_34  and  O_35
REMARK    7  A    between atoms: O_35  and  C_36
REMARK                            x       y       z     vdW  Elec       q    Type
REMARK                         _______ _______ _______ _____ _____    ______ ____
ROOT
ATOM      1  C   UNL     1       0.921   6.952 -15.624  0.00  0.00    +0.172 C 
ATOM      2  C   UNL     1       0.135   6.157 -14.434  0.00  0.00    +0.246 C 
ATOM      3  O   UNL     1      -1.065   6.467 -14.314  0.00  0.00    -0.273 OA
ATOM      4  N   UNL     1       0.858   5.751 -13.314  0.00  0.00    -0.268 N 
ATOM      5  C   UNL     1       2.396   6.160 -13.216  0.00  0.00    +0.157 C 
ATOM      6  C   UNL     1       2.711   4.952 -12.127  0.00  0.00    +0.075 C 
ATOM      7  C   UNL     1       1.424   5.182 -11.100  0.00  0.00    +0.189 C 
ATOM      8  C   UNL     1       2.849   5.236 -14.487  0.00  0.00    +0.260 C 
ATOM      9  O   UNL     1       2.288   4.130 -14.569  0.00  0.00    -0.272 OA
ATOM     10  N   UNL     1       4.279   5.168 -14.633  0.00  0.00    -0.198 NA
ATOM     11  C   UNL     1       5.229   5.959 -14.073  0.00  0.00    +0.154 C 
ATOM     12  C   UNL     1       5.694   7.172 -15.149  0.00  0.00    +0.051 C 
ATOM     13  C   UNL     1       4.519   6.808 -16.284  0.00  0.00    -0.029 C 
ATOM     14  C   UNL     1       4.798   7.662 -17.281  0.00  0.00    -0.031 C 
ATOM     15  C   UNL     1       4.337   9.040 -16.899  0.00  0.00    +0.026 C 
ATOM     16  C   UNL     1       2.821   8.901 -17.008  0.00  0.00    +0.005 C 
ATOM     17  C   UNL     1       2.110   9.853 -16.093  0.00  0.00    +0.000 C 
ATOM     18  C   UNL     1       1.376   9.241 -14.977  0.00  0.00    +0.002 C 
ATOM     19  C   UNL     1       4.619   7.496 -13.892  0.00  0.00    +0.036 C 
ATOM     20  C   UNL     1       0.740   6.398 -12.000  0.00  0.00    +0.137 C 
ATOM     21  C   UNL     1       0.183   8.420 -15.306  0.00  0.00    +0.031 C 
ENDROOT
BRANCH   1  23
ATOM     22  C   UNL     1      -0.681   7.315 -17.609  0.00  0.00    +0.284 C 
ATOM     23  N   UNL     1      -0.126   6.457 -16.717  0.00  0.00    -0.193 NA
ATOM     24  O   UNL     1      -0.494   8.540 -17.536  0.00  0.00    -0.267 OA
BRANCH  22  29
ATOM     25  C   UNL     1      -5.824   5.688 -18.749  0.00  0.00    +0.054 C 
ATOM     26  C   UNL     1      -4.537   6.084 -18.369  0.00  0.00    +0.079 A 
ATOM     27  N   UNL     1      -3.526   5.203 -18.512  0.00  0.00    -0.245 NA
ATOM     28  C   UNL     1      -2.227   5.544 -18.323  0.00  0.00    +0.122 A 
ATOM     29  C   UNL     1      -1.918   6.898 -18.284  0.00  0.00    +0.155 A 
ATOM     30  N   UNL     1      -2.915   7.809 -18.398  0.00  0.00    -0.236 NA
ATOM     31  C   UNL     1      -4.212   7.424 -18.296  0.00  0.00    +0.114 A 
ENDBRANCH  22  29
ENDBRANCH   1  23
BRANCH  11  32
ATOM     32  C   UNL     1       6.507   5.687 -13.486  0.00  0.00    +0.280 C 
ATOM     33  N   UNL     1       6.782   6.451 -12.317  0.00  0.00    -0.062 NA
ATOM     34  O   UNL     1       7.291   4.745 -13.665  0.00  0.00    -0.270 OA
BRANCH  33  35
ATOM     35  S   UNL     1       8.064   6.401 -11.249  0.00  0.00    +0.074 S 
ATOM     36  O   UNL     1       9.429   6.410 -11.904  0.00  0.00    -0.153 OA
ATOM     37  O   UNL     1       8.039   7.744 -10.540  0.00  0.00    -0.153 OA
BRANCH  35  38
ATOM     38  C   UNL     1       7.962   5.196  -9.968  0.00  0.00    +0.151 C 
ATOM     39  C   UNL     1       7.929   5.791  -8.531  0.00  0.00    +0.027 C 
ATOM     40  C   UNL     1       6.709   5.208  -9.130  0.00  0.00    +0.027 C 
ENDBRANCH  35  38
ENDBRANCH  33  35
ENDBRANCH  11  32
BRANCH   7  41
ATOM     41  O   UNL     1       2.200   6.219 -10.229  0.00  0.00    -0.462 OA
BRANCH  41  42
ATOM     42  C   UNL     1       1.710   6.351  -8.931  0.00  0.00    +0.225 A 
ATOM     43  C   UNL     1       2.543   6.065  -7.855  0.00  0.00    +0.053 A 
ATOM     44  C   UNL     1       2.035   5.794  -6.590  0.00  0.00    +0.006 A 
ATOM     45  C   UNL     1       2.887   5.642  -5.505  0.00  0.00    +0.000 A 
ATOM     46  C   UNL     1       4.244   5.713  -5.796  0.00  0.00    +0.000 A 
ATOM     47  C   UNL     1       4.728   6.294  -6.952  0.00  0.00    +0.000 A 
ATOM     48  C   UNL     1       0.666   5.612  -6.425  0.00  0.00    +0.018 A 
ATOM     49  C   UNL     1      -0.112   5.941  -7.525  0.00  0.00    +0.084 A 
ATOM     50  C   UNL     1      -1.488   5.901  -7.359  0.00  0.00    +0.019 A 
ATOM     51  C   UNL     1      -2.057   5.952  -6.094  0.00  0.00    +0.002 A 
ATOM     52  C   UNL     1      -1.260   5.495  -5.063  0.00  0.00    +0.000 A 
ATOM     53  C   UNL     1       0.108   5.407  -5.167  0.00  0.00    +0.001 A 
ATOM     54  C   UNL     1       3.788   6.633  -7.912  0.00  0.00    +0.005 A 
ATOM     55  N   UNL     1       0.439   5.920  -8.757  0.00  0.00    -0.212 NA
ENDBRANCH  41  42
ENDBRANCH   7  41
TORSDOF 7
ENDMDL
