MODEL 1
REMARK VINA RESULT:      -5.6      0.000      0.000
REMARK  Name = 
REMARK  10 active torsions:
REMARK  status: ('A' for Active; 'I' for Inactive)
REMARK    1  A    between atoms: C_2  and  C_3
REMARK    2  A    between atoms: C_19  and  C_20
REMARK    3  A    between atoms: C_19  and  C_24
REMARK    4  A    between atoms: C_20  and  O_22
REMARK    5  A    between atoms: C_29  and  O_30
REMARK    6  A    between atoms: C_42  and  C_43
REMARK    7  A    between atoms: C_46  and  O_47
REMARK    8  A    between atoms: O_47  and  C_48
REMARK    9  A    between atoms: C_51  and  C_53
REMARK   10  A    between atoms: C_53  and  O_55
REMARK                            x       y       z     vdW  Elec       q    Type
REMARK                         _______ _______ _______ _____ _____    ______ ____
ROOT
ATOM      1  C   UNL     1       4.977  11.845   1.321  0.00  0.00    +0.026 A 
ATOM      2  C   UNL     1       5.254  11.404   2.616  0.00  0.00    +0.137 A 
ATOM      3  C   UNL     1       4.257  10.541   3.067  0.00  0.00    +0.051 A 
ATOM      4  C   UNL     1       3.584   9.688   2.173  0.00  0.00    +0.047 A 
ATOM      5  N   UNL     1       2.600   8.718   2.356  0.00  0.00    -0.304 N 
ATOM      6  C   UNL     1       2.694   7.650   1.205  0.00  0.00    +0.120 C 
ATOM      7  C   UNL     1       1.512   8.368   0.367  0.00  0.00    +0.268 C 
ATOM      8  O   UNL     1       1.537   9.682   0.367  0.00  0.00    -0.209 OA
ATOM      9  C   UNL     1       1.521   7.784  -1.149  0.00  0.00    +0.213 C 
ATOM     10  C   UNL     1       2.842   6.860  -1.062  0.00  0.00    +0.072 C 
ATOM     11  C   UNL     1       4.085   7.895  -0.997  0.00  0.00    +0.070 C 
ATOM     12  N   UNL     1       5.131   6.728  -0.799  0.00  0.00    -0.269 NA
ATOM     13  C   UNL     1       4.787   5.649  -1.651  0.00  0.00    +0.099 C 
ATOM     14  C   UNL     1       3.796   4.824  -0.863  0.00  0.00    -0.013 C 
ATOM     15  C   UNL     1       5.117   6.394   0.545  0.00  0.00    +0.073 C 
ATOM     16  C   UNL     1       5.202   7.717   1.177  0.00  0.00    +0.024 C 
ATOM     17  C   UNL     1       2.832   5.676  -0.458  0.00  0.00    -0.025 C 
ATOM     18  C   UNL     1       3.996   8.335   0.544  0.00  0.00    +0.055 C 
ATOM     19  C   UNL     1       2.313   8.113   3.657  0.00  0.00    +0.112 C 
ATOM     20  C   UNL     1       3.920   9.708   0.809  0.00  0.00    -0.007 A 
ATOM     21  C   UNL     1       4.314  10.990   0.430  0.00  0.00    -0.003 A 
ENDROOT
BRANCH   1  28
ATOM     22  C   UNL     1       4.914  16.965  -0.348  0.00  0.00    -0.033 C 
ATOM     23  C   UNL     1       6.211  17.574   0.082  0.00  0.00    +0.095 C 
ATOM     24  N   UNL     1       7.028  16.521   0.520  0.00  0.00    -0.265 NA
ATOM     25  C   UNL     1       7.483  15.596  -0.518  0.00  0.00    +0.101 C 
ATOM     26  C   UNL     1       7.667  14.216   0.046  0.00  0.00    +0.010 A 
ATOM     27  C   UNL     1       6.945  13.243   0.741  0.00  0.00    +0.070 A 
ATOM     28  C   UNL     1       5.492  13.181   0.842  0.00  0.00    +0.146 C 
ATOM     29  C   UNL     1       4.896  14.041   1.795  0.00  0.00    +0.026 C 
ATOM     30  C   UNL     1       4.965  15.647   1.649  0.00  0.00    +0.039 C 
ATOM     31  N   UNL     1       7.794  12.909   1.748  0.00  0.00    -0.249 NA
ATOM     32  C   UNL     1       9.074  13.169   1.378  0.00  0.00    +0.081 A 
ATOM     33  C   UNL     1      10.258  12.534   1.709  0.00  0.00    +0.019 A 
ATOM     34  C   UNL     1      11.258  12.433   0.751  0.00  0.00    +0.002 A 
ATOM     35  C   UNL     1      11.124  13.051  -0.491  0.00  0.00    +0.000 A 
ATOM     36  C   UNL     1      10.043  13.897  -0.734  0.00  0.00    +0.001 A 
ATOM     37  C   UNL     1       9.003  13.878   0.189  0.00  0.00    +0.016 A 
ATOM     38  C   UNL     1       6.594  15.742   1.608  0.00  0.00    +0.077 C 
ATOM     39  C   UNL     1       4.784  15.691   0.050  0.00  0.00    -0.032 C 
BRANCH  22  41
ATOM     40  C   UNL     1       3.159  17.749  -1.632  0.00  0.00    +0.005 C 
ATOM     41  C   UNL     1       4.290  17.488  -1.576  0.00  0.00    +0.023 C 
ENDBRANCH  22  41
BRANCH  28  42
ATOM     42  C   UNL     1       4.932  13.162  -0.557  0.00  0.00    +0.325 C 
ATOM     43  O   UNL     1       3.728  13.524  -0.739  0.00  0.00    -0.249 OA
BRANCH  42  44
ATOM     44  O   UNL     1       5.767  13.210  -1.682  0.00  0.00    -0.444 OA
ATOM     45  C   UNL     1       5.427  13.836  -2.891  0.00  0.00    +0.256 C 
ENDBRANCH  42  44
ENDBRANCH  28  42
ENDBRANCH   1  28
BRANCH   2  46
ATOM     46  O   UNL     1       6.580  11.396   2.920  0.00  0.00    -0.472 OA
ATOM     47  C   UNL     1       7.324  10.453   3.624  0.00  0.00    +0.252 C 
ENDBRANCH   2  46
BRANCH   7  48
ATOM     48  C   UNL     1       0.283   7.929   1.041  0.00  0.00    +0.350 C 
ATOM     49  O   UNL     1       0.432   6.880   1.743  0.00  0.00    -0.247 OA
BRANCH  48  50
ATOM     50  O   UNL     1      -0.613   8.868   1.563  0.00  0.00    -0.443 OA
ATOM     51  C   UNL     1      -2.018   8.774   1.343  0.00  0.00    +0.256 C 
ENDBRANCH  48  50
ENDBRANCH   7  48
BRANCH  10  52
ATOM     52  C   UNL     1       2.952   6.634  -2.587  0.00  0.00    +0.009 C 
ATOM     53  C   UNL     1       3.376   7.930  -3.269  0.00  0.00    +0.001 C 
ENDBRANCH  10  52
BRANCH   9  54
ATOM     54  O   UNL     1       0.610   6.562  -0.852  0.00  0.00    -0.449 OA
BRANCH  54  55
ATOM     55  C   UNL     1      -0.382   6.448  -1.831  0.00  0.00    +0.318 C 
ATOM     56  O   UNL     1      -1.501   7.034  -1.697  0.00  0.00    -0.250 OA
ATOM     57  C   UNL     1      -0.368   5.344  -2.846  0.00  0.00    +0.121 C 
ENDBRANCH  54  55
ENDBRANCH   9  54
TORSDOF 10
ENDMDL
MODEL 2
REMARK VINA RESULT:      -3.6      3.609      9.425
REMARK  Name = 
REMARK  10 active torsions:
REMARK  status: ('A' for Active; 'I' for Inactive)
REMARK    1  A    between atoms: C_2  and  C_3
REMARK    2  A    between atoms: C_19  and  C_20
REMARK    3  A    between atoms: C_19  and  C_24
REMARK    4  A    between atoms: C_20  and  O_22
REMARK    5  A    between atoms: C_29  and  O_30
REMARK    6  A    between atoms: C_42  and  C_43
REMARK    7  A    between atoms: C_46  and  O_47
REMARK    8  A    between atoms: O_47  and  C_48
REMARK    9  A    between atoms: C_51  and  C_53
REMARK   10  A    between atoms: C_53  and  O_55
REMARK                            x       y       z     vdW  Elec       q    Type
REMARK                         _______ _______ _______ _____ _____    ______ ____
ROOT
ATOM      1  C   UNL     1       3.306   6.103  -2.318  0.00  0.00    +0.026 A 
ATOM      2  C   UNL     1       3.855   5.079  -1.544  0.00  0.00    +0.137 A 
ATOM      3  C   UNL     1       4.508   5.599  -0.428  0.00  0.00    +0.051 A 
ATOM      4  C   UNL     1       4.040   6.768   0.200  0.00  0.00    +0.047 A 
ATOM      5  N   UNL     1       4.466   7.466   1.329  0.00  0.00    -0.304 N 
ATOM      6  C   UNL     1       3.253   8.254   1.948  0.00  0.00    +0.120 C 
ATOM      7  C   UNL     1       3.696   9.623   1.212  0.00  0.00    +0.268 C 
ATOM      8  O   UNL     1       4.134   9.487  -0.020  0.00  0.00    -0.209 OA
ATOM      9  C   UNL     1       2.458  10.674   1.278  0.00  0.00    +0.213 C 
ATOM     10  C   UNL     1       1.342   9.716   1.946  0.00  0.00    +0.072 C 
ATOM     11  C   UNL     1       0.941   8.655   0.791  0.00  0.00    +0.070 C 
ATOM     12  N   UNL     1      -0.004   7.851   1.767  0.00  0.00    -0.269 NA
ATOM     13  C   UNL     1      -0.734   8.768   2.565  0.00  0.00    +0.099 C 
ATOM     14  C   UNL     1       0.157   9.057   3.750  0.00  0.00    -0.013 C 
ATOM     15  C   UNL     1       0.803   7.001   2.506  0.00  0.00    +0.073 C 
ATOM     16  C   UNL     1       1.635   6.401   1.454  0.00  0.00    +0.024 C 
ATOM     17  C   UNL     1       1.351   9.430   3.244  0.00  0.00    -0.025 C 
ATOM     18  C   UNL     1       2.198   7.661   0.881  0.00  0.00    +0.055 C 
ATOM     19  C   UNL     1       5.326   6.873   2.353  0.00  0.00    +0.112 C 
ATOM     20  C   UNL     1       2.902   7.420  -0.305  0.00  0.00    -0.007 A 
ATOM     21  C   UNL     1       2.833   7.263  -1.689  0.00  0.00    -0.003 A 
ENDROOT
BRANCH   1  28
ATOM     22  C   UNL     1       4.526   5.263  -7.495  0.00  0.00    -0.033 C 
ATOM     23  C   UNL     1       3.341   4.590  -8.114  0.00  0.00    +0.095 C 
ATOM     24  N   UNL     1       2.297   4.670  -7.180  0.00  0.00    -0.265 NA
ATOM     25  C   UNL     1       1.762   6.010  -6.937  0.00  0.00    +0.101 C 
ATOM     26  C   UNL     1       1.261   6.133  -5.527  0.00  0.00    +0.010 A 
ATOM     27  C   UNL     1       1.712   5.963  -4.216  0.00  0.00    +0.070 A 
ATOM     28  C   UNL     1       3.109   5.917  -3.803  0.00  0.00    +0.146 C 
ATOM     29  C   UNL     1       3.775   4.683  -3.996  0.00  0.00    +0.026 C 
ATOM     30  C   UNL     1       4.038   4.082  -5.472  0.00  0.00    +0.039 C 
ATOM     31  N   UNL     1       0.727   5.210  -3.660  0.00  0.00    -0.249 NA
ATOM     32  C   UNL     1      -0.439   5.407  -4.327  0.00  0.00    +0.081 A 
ATOM     33  C   UNL     1      -1.749   5.389  -3.885  0.00  0.00    +0.019 A 
ATOM     34  C   UNL     1      -2.659   6.277  -4.440  0.00  0.00    +0.002 A 
ATOM     35  C   UNL     1      -2.297   7.104  -5.502  0.00  0.00    +0.000 A 
ATOM     36  C   UNL     1      -1.053   6.947  -6.111  0.00  0.00    +0.001 A 
ATOM     37  C   UNL     1      -0.123   6.145  -5.458  0.00  0.00    +0.016 A 
ATOM     38  C   UNL     1       2.469   4.059  -5.924  0.00  0.00    +0.077 C 
ATOM     39  C   UNL     1       4.366   5.489  -6.183  0.00  0.00    -0.032 C 
BRANCH  22  41
ATOM     40  C   UNL     1       5.994   5.696  -9.226  0.00  0.00    +0.005 C 
ATOM     41  C   UNL     1       5.347   6.126  -8.362  0.00  0.00    +0.023 C 
ENDBRANCH  22  41
BRANCH  28  42
ATOM     42  C   UNL     1       3.776   7.177  -4.289  0.00  0.00    +0.325 C 
ATOM     43  O   UNL     1       3.099   8.000  -4.980  0.00  0.00    -0.249 OA
BRANCH  42  44
ATOM     44  O   UNL     1       4.916   7.694  -3.658  0.00  0.00    -0.444 OA
ATOM     45  C   UNL     1       6.230   7.469  -4.095  0.00  0.00    +0.256 C 
ENDBRANCH  42  44
ENDBRANCH  28  42
ENDBRANCH   1  28
BRANCH   2  46
ATOM     46  O   UNL     1       3.201   3.891  -1.663  0.00  0.00    -0.472 OA
ATOM     47  C   UNL     1       3.072   2.852  -0.746  0.00  0.00    +0.252 C 
ENDBRANCH   2  46
BRANCH   7  48
ATOM     48  C   UNL     1       4.797  10.131   2.040  0.00  0.00    +0.350 C 
ATOM     49  O   UNL     1       4.843   9.616   3.201  0.00  0.00    -0.247 OA
BRANCH  48  50
ATOM     50  O   UNL     1       6.043  10.412   1.469  0.00  0.00    -0.443 OA
ATOM     51  C   UNL     1       7.133  10.909   2.241  0.00  0.00    +0.256 C 
ENDBRANCH  48  50
ENDBRANCH   7  48
BRANCH  10  52
ATOM     52  C   UNL     1       0.157  10.665   1.658  0.00  0.00    +0.009 C 
ATOM     53  C   UNL     1      -0.194  11.445   2.919  0.00  0.00    +0.001 C 
ENDBRANCH  10  52
BRANCH   9  54
ATOM     54  O   UNL     1       2.827  11.265   2.665  0.00  0.00    -0.449 OA
BRANCH  54  55
ATOM     55  C   UNL     1       3.260  12.586   2.530  0.00  0.00    +0.318 C 
ATOM     56  O   UNL     1       4.012  12.931   1.565  0.00  0.00    -0.250 OA
ATOM     57  C   UNL     1       3.228  13.551   3.677  0.00  0.00    +0.121 C 
ENDBRANCH  54  55
ENDBRANCH   9  54
TORSDOF 10
ENDMDL
MODEL 3
REMARK VINA RESULT:      -3.6      2.116      9.319
REMARK  Name = 
REMARK  10 active torsions:
REMARK  status: ('A' for Active; 'I' for Inactive)
REMARK    1  A    between atoms: C_2  and  C_3
REMARK    2  A    between atoms: C_19  and  C_20
REMARK    3  A    between atoms: C_19  and  C_24
REMARK    4  A    between atoms: C_20  and  O_22
REMARK    5  A    between atoms: C_29  and  O_30
REMARK    6  A    between atoms: C_42  and  C_43
REMARK    7  A    between atoms: C_46  and  O_47
REMARK    8  A    between atoms: O_47  and  C_48
REMARK    9  A    between atoms: C_51  and  C_53
REMARK   10  A    between atoms: C_53  and  O_55
REMARK                            x       y       z     vdW  Elec       q    Type
REMARK                         _______ _______ _______ _____ _____    ______ ____
ROOT
ATOM      1  C   UNL     1       4.704  10.185   1.164  0.00  0.00    +0.026 A 
ATOM      2  C   UNL     1       5.470   9.792   2.263  0.00  0.00    +0.137 A 
ATOM      3  C   UNL     1       6.677  10.487   2.298  0.00  0.00    +0.051 A 
ATOM      4  C   UNL     1       6.757  11.814   1.835  0.00  0.00    +0.047 A 
ATOM      5  N   UNL     1       7.802  12.736   1.795  0.00  0.00    -0.304 N 
ATOM      6  C   UNL     1       7.216  14.196   1.820  0.00  0.00    +0.120 C 
ATOM      7  C   UNL     1       7.334  14.330   0.214  0.00  0.00    +0.268 C 
ATOM      8  O   UNL     1       7.014  13.254  -0.470  0.00  0.00    -0.209 OA
ATOM      9  C   UNL     1       6.455  15.610  -0.268  0.00  0.00    +0.213 C 
ATOM     10  C   UNL     1       5.785  16.009   1.147  0.00  0.00    +0.072 C 
ATOM     11  C   UNL     1       4.707  14.841   1.455  0.00  0.00    +0.070 C 
ATOM     12  N   UNL     1       4.364  15.444   2.874  0.00  0.00    -0.269 NA
ATOM     13  C   UNL     1       4.290  16.856   2.772  0.00  0.00    +0.099 C 
ATOM     14  C   UNL     1       5.708  17.340   2.968  0.00  0.00    -0.013 C 
ATOM     15  C   UNL     1       5.344  15.006   3.750  0.00  0.00    +0.073 C 
ATOM     16  C   UNL     1       5.399  13.572   3.434  0.00  0.00    +0.024 C 
ATOM     17  C   UNL     1       6.467  16.655   2.088  0.00  0.00    -0.025 C 
ATOM     18  C   UNL     1       5.693  13.686   1.973  0.00  0.00    +0.055 C 
ATOM     19  C   UNL     1       9.010  12.605   2.610  0.00  0.00    +0.112 C 
ATOM     20  C   UNL     1       5.607  12.444   1.330  0.00  0.00    -0.007 A 
ATOM     21  C   UNL     1       4.780  11.509   0.710  0.00  0.00    -0.003 A 
ENDROOT
BRANCH   1  28
ATOM     22  C   UNL     1       2.762   6.318  -2.040  0.00  0.00    -0.033 C 
ATOM     23  C   UNL     1       1.632   5.671  -1.300  0.00  0.00    +0.095 C 
ATOM     24  N   UNL     1       1.363   6.480  -0.186  0.00  0.00    -0.265 NA
ATOM     25  C   UNL     1       0.790   7.795  -0.478  0.00  0.00    +0.101 C 
ATOM     26  C   UNL     1       1.213   8.798   0.556  0.00  0.00    +0.010 A 
ATOM     27  C   UNL     1       2.378   9.318   1.124  0.00  0.00    +0.070 A 
ATOM     28  C   UNL     1       3.712   9.231   0.543  0.00  0.00    +0.146 C 
ATOM     29  C   UNL     1       4.392   8.003   0.725  0.00  0.00    +0.026 C 
ATOM     30  C   UNL     1       3.855   6.630   0.065  0.00  0.00    +0.039 C 
ATOM     31  N   UNL     1       2.119   9.236   2.455  0.00  0.00    -0.249 NA
ATOM     32  C   UNL     1       0.779   9.251   2.668  0.00  0.00    +0.081 A 
ATOM     33  C   UNL     1       0.035   9.756   3.718  0.00  0.00    +0.019 A 
ATOM     34  C   UNL     1      -1.199  10.333   3.453  0.00  0.00    +0.002 A 
ATOM     35  C   UNL     1      -1.738  10.312   2.168  0.00  0.00    +0.000 A 
ATOM     36  C   UNL     1      -1.105   9.586   1.160  0.00  0.00    +0.001 A 
ATOM     37  C   UNL     1       0.183   9.129   1.422  0.00  0.00    +0.016 A 
ATOM     38  C   UNL     1       2.381   6.673   0.766  0.00  0.00    +0.077 C 
ATOM     39  C   UNL     1       3.366   7.277  -1.325  0.00  0.00    -0.032 C 
BRANCH  22  41
ATOM     40  C   UNL     1       1.986   7.075  -4.081  0.00  0.00    +0.005 C 
ATOM     41  C   UNL     1       2.685   6.342  -3.511  0.00  0.00    +0.023 C 
ENDBRANCH  22  41
BRANCH  28  42
ATOM     42  C   UNL     1       3.653   9.821  -0.842  0.00  0.00    +0.325 C 
ATOM     43  O   UNL     1       3.941   9.082  -1.834  0.00  0.00    -0.249 OA
BRANCH  42  44
ATOM     44  O   UNL     1       2.881  10.957  -1.122  0.00  0.00    -0.444 OA
ATOM     45  C   UNL     1       3.410  12.185  -1.547  0.00  0.00    +0.256 C 
ENDBRANCH  42  44
ENDBRANCH  28  42
ENDBRANCH   1  28
BRANCH   2  46
ATOM     46  O   UNL     1       4.731   9.329   3.307  0.00  0.00    -0.472 OA
ATOM     47  C   UNL     1       4.539   8.022   3.750  0.00  0.00    +0.252 C 
ENDBRANCH   2  46
BRANCH   7  48
ATOM     48  C   UNL     1       8.756  14.616  -0.015  0.00  0.00    +0.350 C 
ATOM     49  O   UNL     1       9.384  14.959   1.036  0.00  0.00    -0.247 OA
BRANCH  48  50
ATOM     50  O   UNL     1       9.497  13.850  -0.922  0.00  0.00    -0.443 OA
ATOM     51  C   UNL     1      10.735  14.305  -1.460  0.00  0.00    +0.256 C 
ENDBRANCH  48  50
ENDBRANCH   7  48
BRANCH  10  52
ATOM     52  C   UNL     1       4.746  16.977   0.538  0.00  0.00    +0.009 C 
ATOM     53  C   UNL     1       4.203  16.396  -0.762  0.00  0.00    +0.001 C 
ENDBRANCH  10  52
BRANCH   9  54
ATOM     54  O   UNL     1       7.581  16.659  -0.066  0.00  0.00    -0.449 OA
BRANCH  54  55
ATOM     55  C   UNL     1       7.829  17.339  -1.261  0.00  0.00    +0.318 C 
ATOM     56  O   UNL     1       6.921  17.467  -2.141  0.00  0.00    -0.250 OA
ATOM     57  C   UNL     1       9.222  17.583  -1.759  0.00  0.00    +0.121 C 
ENDBRANCH  54  55
ENDBRANCH   9  54
TORSDOF 10
ENDMDL
