MODEL 1
REMARK VINA RESULT:      -9.0      0.000      0.000
REMARK  Name = 
REMARK  5 active torsions:
REMARK  status: ('A' for Active; 'I' for Inactive)
REMARK    1  A    between atoms: C_2  and  N_4
REMARK    2  A    between atoms: N_4  and  C_5
REMARK    3  A    between atoms: C_15  and  C_17
REMARK    4  A    between atoms: C_21  and  N_22
REMARK    5  A    between atoms: N_22  and  S_23
REMARK                            x       y       z     vdW  Elec       q    Type
REMARK                         _______ _______ _______ _____ _____    ______ ____
ROOT
ATOM      1  C   UNL     1       1.070   6.336  -4.635  0.00  0.00    +0.097 A 
ATOM      2  C   UNL     1       1.094   5.378  -5.641  0.00  0.00    +0.147 A 
ATOM      3  N   UNL     1       2.359   4.946  -6.158  0.00  0.00    -0.289 N 
ATOM      4  C   UNL     1       2.317   4.013  -7.282  0.00  0.00    +0.114 C 
ATOM      5  C   UNL     1       2.117   4.766  -8.593  0.00  0.00    +0.115 C 
ATOM      6  N   UNL     1       3.101   5.847  -8.607  0.00  0.00    -0.271 N 
ATOM      7  C   UNL     1       4.448   5.422  -8.859  0.00  0.00    +0.267 C 
ATOM      8  O   UNL     1       4.926   4.622  -7.998  0.00  0.00    -0.268 OA
ATOM      9  C   UNL     1       2.980   6.797  -7.502  0.00  0.00    +0.115 C 
ATOM     10  C   UNL     1       3.366   6.000  -6.259  0.00  0.00    +0.114 C 
ATOM     11  N   UNL     1      -0.063   5.172  -6.315  0.00  0.00    -0.228 NA
ATOM     12  C   UNL     1      -1.264   5.520  -5.827  0.00  0.00    +0.100 A 
ATOM     13  C   UNL     1      -1.308   5.960  -4.516  0.00  0.00    +0.022 A 
ATOM     14  C   UNL     1      -0.141   6.455  -3.964  0.00  0.00    +0.021 A 
ENDROOT
BRANCH   7  15
ATOM     15  C   UNL     1       5.181   5.801 -10.049  0.00  0.00    +0.135 A 
ATOM     16  N   UNL     1       6.431   6.287 -10.191  0.00  0.00    -0.241 NA
ATOM     17  C   UNL     1       6.791   6.129 -11.486  0.00  0.00    +0.082 A 
ATOM     18  C   UNL     1       5.669   5.817 -12.221  0.00  0.00    +0.021 A 
ATOM     19  C   UNL     1       5.721   5.548 -13.581  0.00  0.00    +0.020 A 
ATOM     20  C   UNL     1       6.906   5.693 -14.269  0.00  0.00    +0.091 A 
ATOM     21  C   UNL     1       8.003   6.117 -13.548  0.00  0.00    +0.020 A 
ATOM     22  C   UNL     1       7.974   6.235 -12.183  0.00  0.00    +0.020 A 
ATOM     23  C   UNL     1       4.628   5.763 -11.318  0.00  0.00    +0.025 A 
BRANCH  20  24
ATOM     24  N   UNL     1       6.861   5.941 -15.679  0.00  0.00    -0.101 NA
BRANCH  24  25
ATOM     25  S   UNL     1       5.993   7.252 -16.371  0.00  0.00    +0.075 S 
ATOM     26  O   UNL     1       6.066   8.421 -15.437  0.00  0.00    -0.153 OA
ATOM     27  O   UNL     1       4.527   6.902 -16.503  0.00  0.00    -0.153 OA
ATOM     28  C   UNL     1       6.664   7.749 -17.929  0.00  0.00    +0.202 C 
ENDBRANCH  24  25
ENDBRANCH  20  24
ENDBRANCH   7  15
BRANCH   1  29
ATOM     29  N   UNL     1       2.243   6.903  -4.077  0.00  0.00    -0.237 NA
BRANCH  29  31
ATOM     30  C   UNL     1       3.666   7.729  -2.287  0.00  0.00    +0.023 C 
ATOM     31  C   UNL     1       2.643   6.702  -2.704  0.00  0.00    +0.093 C 
ATOM     32  C   UNL     1       3.281   5.336  -2.558  0.00  0.00    +0.023 C 
ENDBRANCH  29  31
ENDBRANCH   1  29
TORSDOF 5
ENDMDL
MODEL 2
REMARK VINA RESULT:      -9.0      1.501      1.858
REMARK  Name = 
REMARK  5 active torsions:
REMARK  status: ('A' for Active; 'I' for Inactive)
REMARK    1  A    between atoms: C_2  and  N_4
REMARK    2  A    between atoms: N_4  and  C_5
REMARK    3  A    between atoms: C_15  and  C_17
REMARK    4  A    between atoms: C_21  and  N_22
REMARK    5  A    between atoms: N_22  and  S_23
REMARK                            x       y       z     vdW  Elec       q    Type
REMARK                         _______ _______ _______ _____ _____    ______ ____
ROOT
ATOM      1  C   UNL     1       0.090   5.943  -3.351  0.00  0.00    +0.097 A 
ATOM      2  C   UNL     1      -0.285   5.821  -4.683  0.00  0.00    +0.147 A 
ATOM      3  N   UNL     1       0.486   4.978  -5.548  0.00  0.00    -0.289 N 
ATOM      4  C   UNL     1       0.103   4.970  -6.958  0.00  0.00    +0.114 C 
ATOM      5  C   UNL     1       0.718   6.161  -7.685  0.00  0.00    +0.115 C 
ATOM      6  N   UNL     1       2.138   6.173  -7.337  0.00  0.00    -0.271 N 
ATOM      7  C   UNL     1       2.918   5.158  -7.986  0.00  0.00    +0.267 C 
ATOM      8  O   UNL     1       2.575   3.967  -7.714  0.00  0.00    -0.268 OA
ATOM      9  C   UNL     1       2.416   6.307  -5.908  0.00  0.00    +0.115 C 
ATOM     10  C   UNL     1       1.924   5.000  -5.292  0.00  0.00    +0.114 C 
ATOM     11  N   UNL     1      -1.126   6.766  -5.168  0.00  0.00    -0.228 NA
ATOM     12  C   UNL     1      -1.898   7.530  -4.379  0.00  0.00    +0.100 A 
ATOM     13  C   UNL     1      -1.933   7.212  -3.033  0.00  0.00    +0.022 A 
ATOM     14  C   UNL     1      -0.874   6.491  -2.514  0.00  0.00    +0.021 A 
ENDROOT
BRANCH   7  15
ATOM     15  C   UNL     1       3.958   5.461  -8.946  0.00  0.00    +0.135 A 
ATOM     16  N   UNL     1       5.238   5.842  -8.761  0.00  0.00    -0.241 NA
ATOM     17  C   UNL     1       5.902   5.640  -9.922  0.00  0.00    +0.082 A 
ATOM     18  C   UNL     1       4.983   5.410 -10.921  0.00  0.00    +0.021 A 
ATOM     19  C   UNL     1       5.358   5.120 -12.226  0.00  0.00    +0.020 A 
ATOM     20  C   UNL     1       6.686   5.160 -12.588  0.00  0.00    +0.091 A 
ATOM     21  C   UNL     1       7.594   5.504 -11.607  0.00  0.00    +0.020 A 
ATOM     22  C   UNL     1       7.228   5.641 -10.293  0.00  0.00    +0.020 A 
ATOM     23  C   UNL     1       3.745   5.452 -10.314  0.00  0.00    +0.025 A 
BRANCH  20  24
ATOM     24  N   UNL     1       7.023   5.393 -13.961  0.00  0.00    -0.101 NA
BRANCH  24  25
ATOM     25  S   UNL     1       6.329   6.659 -14.891  0.00  0.00    +0.075 S 
ATOM     26  O   UNL     1       6.435   7.937 -14.116  0.00  0.00    -0.153 OA
ATOM     27  O   UNL     1       4.852   6.410 -15.103  0.00  0.00    -0.153 OA
ATOM     28  C   UNL     1       7.158   6.882 -16.437  0.00  0.00    +0.202 C 
ENDBRANCH  24  25
ENDBRANCH  20  24
ENDBRANCH   7  15
BRANCH   1  29
ATOM     29  N   UNL     1       1.199   5.257  -2.793  0.00  0.00    -0.237 NA
BRANCH  29  31
ATOM     30  C   UNL     1       2.866   6.949  -2.276  0.00  0.00    +0.023 C 
ATOM     31  C   UNL     1       2.028   5.811  -1.749  0.00  0.00    +0.093 C 
ATOM     32  C   UNL     1       2.975   4.746  -1.236  0.00  0.00    +0.023 C 
ENDBRANCH  29  31
ENDBRANCH   1  29
TORSDOF 5
ENDMDL
MODEL 3
REMARK VINA RESULT:      -8.8      5.087     11.216
REMARK  Name = 
REMARK  5 active torsions:
REMARK  status: ('A' for Active; 'I' for Inactive)
REMARK    1  A    between atoms: C_2  and  N_4
REMARK    2  A    between atoms: N_4  and  C_5
REMARK    3  A    between atoms: C_15  and  C_17
REMARK    4  A    between atoms: C_21  and  N_22
REMARK    5  A    between atoms: N_22  and  S_23
REMARK                            x       y       z     vdW  Elec       q    Type
REMARK                         _______ _______ _______ _____ _____    ______ ____
ROOT
ATOM      1  C   UNL     1       3.269   6.090 -10.932  0.00  0.00    +0.097 A 
ATOM      2  C   UNL     1       3.431   5.273  -9.819  0.00  0.00    +0.147 A 
ATOM      3  N   UNL     1       2.270   4.840  -9.100  0.00  0.00    -0.289 N 
ATOM      4  C   UNL     1       2.510   4.068  -7.882  0.00  0.00    +0.114 C 
ATOM      5  C   UNL     1       2.802   4.998  -6.711  0.00  0.00    +0.115 C 
ATOM      6  N   UNL     1       1.750   6.012  -6.710  0.00  0.00    -0.271 N 
ATOM      7  C   UNL     1       0.475   5.546  -6.242  0.00  0.00    +0.267 C 
ATOM      8  O   UNL     1      -0.038   4.613  -6.931  0.00  0.00    -0.268 OA
ATOM      9  C   UNL     1       1.672   6.813  -7.931  0.00  0.00    +0.115 C 
ATOM     10  C   UNL     1       1.206   5.838  -9.008  0.00  0.00    +0.114 C 
ATOM     11  N   UNL     1       4.670   5.227  -9.273  0.00  0.00    -0.228 NA
ATOM     12  C   UNL     1       5.778   5.577  -9.945  0.00  0.00    +0.100 A 
ATOM     13  C   UNL     1       5.638   5.841 -11.296  0.00  0.00    +0.022 A 
ATOM     14  C   UNL     1       4.382   6.190 -11.756  0.00  0.00    +0.021 A 
ENDROOT
BRANCH   7  15
ATOM     15  C   UNL     1      -0.142   6.035  -5.027  0.00  0.00    +0.135 A 
ATOM     16  N   UNL     1      -1.271   6.749  -4.844  0.00  0.00    -0.241 NA
ATOM     17  C   UNL     1      -1.623   6.639  -3.542  0.00  0.00    +0.082 A 
ATOM     18  C   UNL     1      -0.564   6.103  -2.843  0.00  0.00    +0.021 A 
ATOM     19  C   UNL     1      -0.635   5.823  -1.485  0.00  0.00    +0.020 A 
ATOM     20  C   UNL     1      -1.752   6.179  -0.763  0.00  0.00    +0.091 A 
ATOM     21  C   UNL     1      -2.764   6.820  -1.448  0.00  0.00    +0.020 A 
ATOM     22  C   UNL     1      -2.747   6.956  -2.811  0.00  0.00    +0.020 A 
ATOM     23  C   UNL     1       0.424   5.868  -3.775  0.00  0.00    +0.025 A 
BRANCH  20  24
ATOM     24  N   UNL     1      -1.626   6.387   0.649  0.00  0.00    -0.101 NA
BRANCH  24  25
ATOM     25  S   UNL     1      -0.595   7.581   1.330  0.00  0.00    +0.075 S 
ATOM     26  O   UNL     1      -0.577   8.772   0.422  0.00  0.00    -0.153 OA
ATOM     27  O   UNL     1       0.828   7.072   1.396  0.00  0.00    -0.153 OA
ATOM     28  C   UNL     1      -1.150   8.110   2.923  0.00  0.00    +0.202 C 
ENDBRANCH  24  25
ENDBRANCH  20  24
ENDBRANCH   7  15
BRANCH   1  29
ATOM     29  N   UNL     1       2.001   6.508 -11.407  0.00  0.00    -0.237 NA
BRANCH  29  31
ATOM     30  C   UNL     1       0.636   7.281 -13.265  0.00  0.00    +0.023 C 
ATOM     31  C   UNL     1       1.496   6.169 -12.716  0.00  0.00    +0.093 C 
ATOM     32  C   UNL     1       0.631   4.929 -12.621  0.00  0.00    +0.023 C 
ENDBRANCH  29  31
ENDBRANCH   1  29
TORSDOF 5
ENDMDL
MODEL 4
REMARK VINA RESULT:      -8.7      1.825      3.396
REMARK  Name = 
REMARK  5 active torsions:
REMARK  status: ('A' for Active; 'I' for Inactive)
REMARK    1  A    between atoms: C_2  and  N_4
REMARK    2  A    between atoms: N_4  and  C_5
REMARK    3  A    between atoms: C_15  and  C_17
REMARK    4  A    between atoms: C_21  and  N_22
REMARK    5  A    between atoms: N_22  and  S_23
REMARK                            x       y       z     vdW  Elec       q    Type
REMARK                         _______ _______ _______ _____ _____    ______ ____
ROOT
ATOM      1  C   UNL     1       0.917   5.647  -3.004  0.00  0.00    +0.097 A 
ATOM      2  C   UNL     1       2.152   6.089  -3.461  0.00  0.00    +0.147 A 
ATOM      3  N   UNL     1       2.212   6.852  -4.673  0.00  0.00    -0.289 N 
ATOM      4  C   UNL     1       3.546   7.202  -5.155  0.00  0.00    +0.114 C 
ATOM      5  C   UNL     1       4.151   6.042  -5.939  0.00  0.00    +0.115 C 
ATOM      6  N   UNL     1       3.138   5.618  -6.903  0.00  0.00    -0.271 N 
ATOM      7  C   UNL     1       2.969   6.505  -8.019  0.00  0.00    +0.267 C 
ATOM      8  O   UNL     1       2.590   7.678  -7.715  0.00  0.00    -0.268 OA
ATOM      9  C   UNL     1       1.878   5.171  -6.310  0.00  0.00    +0.115 C 
ATOM     10  C   UNL     1       1.265   6.430  -5.703  0.00  0.00    +0.114 C 
ATOM     11  N   UNL     1       3.247   5.482  -2.943  0.00  0.00    -0.228 NA
ATOM     12  C   UNL     1       3.227   4.807  -1.783  0.00  0.00    +0.100 A 
ATOM     13  C   UNL     1       2.069   4.884  -1.030  0.00  0.00    +0.022 A 
ATOM     14  C   UNL     1       0.897   5.217  -1.683  0.00  0.00    +0.021 A 
ENDROOT
BRANCH   7  15
ATOM     15  C   UNL     1       3.291   6.127  -9.379  0.00  0.00    +0.135 A 
ATOM     16  N   UNL     1       2.519   5.586 -10.343  0.00  0.00    -0.241 NA
ATOM     17  C   UNL     1       3.151   5.764 -11.526  0.00  0.00    +0.082 A 
ATOM     18  C   UNL     1       4.449   6.151 -11.279  0.00  0.00    +0.021 A 
ATOM     19  C   UNL     1       5.341   6.459 -12.297  0.00  0.00    +0.020 A 
ATOM     20  C   UNL     1       4.977   6.277 -13.613  0.00  0.00    +0.091 A 
ATOM     21  C   UNL     1       3.713   5.778 -13.851  0.00  0.00    +0.020 A 
ATOM     22  C   UNL     1       2.792   5.622 -12.848  0.00  0.00    +0.020 A 
ATOM     23  C   UNL     1       4.566   6.229  -9.907  0.00  0.00    +0.025 A 
BRANCH  20  24
ATOM     24  N   UNL     1       6.003   6.073 -14.592  0.00  0.00    -0.101 NA
BRANCH  24  25
ATOM     25  S   UNL     1       6.091   6.971 -16.053  0.00  0.00    +0.075 S 
ATOM     26  O   UNL     1       6.309   8.414 -15.716  0.00  0.00    -0.153 OA
ATOM     27  O   UNL     1       4.775   6.900 -16.796  0.00  0.00    -0.153 OA
ATOM     28  C   UNL     1       7.425   6.438 -17.084  0.00  0.00    +0.202 C 
ENDBRANCH  24  25
ENDBRANCH  20  24
ENDBRANCH   7  15
BRANCH   1  29
ATOM     29  N   UNL     1      -0.302   5.927  -3.671  0.00  0.00    -0.237 NA
BRANCH  29  31
ATOM     30  C   UNL     1      -2.594   5.456  -3.013  0.00  0.00    +0.023 C 
ATOM     31  C   UNL     1      -1.466   6.457  -3.002  0.00  0.00    +0.093 C 
ATOM     32  C   UNL     1      -1.949   7.696  -3.729  0.00  0.00    +0.023 C 
ENDBRANCH  29  31
ENDBRANCH   1  29
TORSDOF 5
ENDMDL
MODEL 5
REMARK VINA RESULT:      -8.3      3.157      4.751
REMARK  Name = 
REMARK  5 active torsions:
REMARK  status: ('A' for Active; 'I' for Inactive)
REMARK    1  A    between atoms: C_2  and  N_4
REMARK    2  A    between atoms: N_4  and  C_5
REMARK    3  A    between atoms: C_15  and  C_17
REMARK    4  A    between atoms: C_21  and  N_22
REMARK    5  A    between atoms: N_22  and  S_23
REMARK                            x       y       z     vdW  Elec       q    Type
REMARK                         _______ _______ _______ _____ _____    ______ ____
ROOT
ATOM      1  C   UNL     1       0.978   6.696  -0.274  0.00  0.00    +0.097 A 
ATOM      2  C   UNL     1       0.091   6.315  -1.273  0.00  0.00    +0.147 A 
ATOM      3  N   UNL     1       0.564   5.487  -2.343  0.00  0.00    -0.289 N 
ATOM      4  C   UNL     1      -0.388   5.203  -3.414  0.00  0.00    +0.114 C 
ATOM      5  C   UNL     1      -0.423   6.353  -4.414  0.00  0.00    +0.115 C 
ATOM      6  N   UNL     1       0.966   6.647  -4.761  0.00  0.00    -0.271 N 
ATOM      7  C   UNL     1       1.579   5.685  -5.632  0.00  0.00    +0.267 C 
ATOM      8  O   UNL     1       1.652   4.509  -5.160  0.00  0.00    -0.268 OA
ATOM      9  C   UNL     1       1.808   7.039  -3.631  0.00  0.00    +0.115 C 
ATOM     10  C   UNL     1       1.928   5.779  -2.779  0.00  0.00    +0.114 C 
ATOM     11  N   UNL     1      -1.057   7.027  -1.373  0.00  0.00    -0.228 NA
ATOM     12  C   UNL     1      -1.547   7.768  -0.366  0.00  0.00    +0.100 A 
ATOM     13  C   UNL     1      -0.919   7.655   0.862  0.00  0.00    +0.022 A 
ATOM     14  C   UNL     1       0.387   7.202   0.877  0.00  0.00    +0.021 A 
ENDROOT
BRANCH   7  15
ATOM     15  C   UNL     1       2.000   6.002  -6.980  0.00  0.00    +0.135 A 
ATOM     16  N   UNL     1       3.231   6.020  -7.532  0.00  0.00    -0.241 NA
ATOM     17  C   UNL     1       3.081   6.006  -8.876  0.00  0.00    +0.082 A 
ATOM     18  C   UNL     1       1.764   6.275  -9.176  0.00  0.00    +0.021 A 
ATOM     19  C   UNL     1       1.284   6.283 -10.478  0.00  0.00    +0.020 A 
ATOM     20  C   UNL     1       2.152   6.124 -11.536  0.00  0.00    +0.091 A 
ATOM     21  C   UNL     1       3.489   5.968 -11.233  0.00  0.00    +0.020 A 
ATOM     22  C   UNL     1       3.929   5.813  -9.944  0.00  0.00    +0.020 A 
ATOM     23  C   UNL     1       1.122   6.422  -7.964  0.00  0.00    +0.025 A 
BRANCH  20  24
ATOM     24  N   UNL     1       1.784   6.648 -12.817  0.00  0.00    -0.101 NA
BRANCH  24  25
ATOM     25  S   UNL     1       1.707   5.682 -14.235  0.00  0.00    +0.075 S 
ATOM     26  O   UNL     1       3.096   5.258 -14.603  0.00  0.00    -0.153 OA
ATOM     27  O   UNL     1       1.186   6.495 -15.400  0.00  0.00    -0.153 OA
ATOM     28  C   UNL     1       0.731   4.226 -13.998  0.00  0.00    +0.202 C 
ENDBRANCH  24  25
ENDBRANCH  20  24
ENDBRANCH   7  15
BRANCH   1  29
ATOM     29  N   UNL     1       2.336   6.292  -0.248  0.00  0.00    -0.237 NA
BRANCH  29  31
ATOM     30  C   UNL     1       3.372   8.467  -0.572  0.00  0.00    +0.023 C 
ATOM     31  C   UNL     1       3.412   7.156   0.175  0.00  0.00    +0.093 C 
ATOM     32  C   UNL     1       4.741   6.498  -0.130  0.00  0.00    +0.023 C 
ENDBRANCH  29  31
ENDBRANCH   1  29
TORSDOF 5
ENDMDL
MODEL 6
REMARK VINA RESULT:      -8.3      3.609      4.747
REMARK  Name = 
REMARK  5 active torsions:
REMARK  status: ('A' for Active; 'I' for Inactive)
REMARK    1  A    between atoms: C_2  and  N_4
REMARK    2  A    between atoms: N_4  and  C_5
REMARK    3  A    between atoms: C_15  and  C_17
REMARK    4  A    between atoms: C_21  and  N_22
REMARK    5  A    between atoms: N_22  and  S_23
REMARK                            x       y       z     vdW  Elec       q    Type
REMARK                         _______ _______ _______ _____ _____    ______ ____
ROOT
ATOM      1  C   UNL     1       1.448   5.762  -2.604  0.00  0.00    +0.097 A 
ATOM      2  C   UNL     1       2.523   6.068  -3.430  0.00  0.00    +0.147 A 
ATOM      3  N   UNL     1       2.284   6.803  -4.637  0.00  0.00    -0.289 N 
ATOM      4  C   UNL     1       3.437   7.007  -5.512  0.00  0.00    +0.114 C 
ATOM      5  C   UNL     1       3.665   5.780  -6.387  0.00  0.00    +0.115 C 
ATOM      6  N   UNL     1       2.372   5.448  -6.984  0.00  0.00    -0.271 N 
ATOM      7  C   UNL     1       1.957   6.331  -8.037  0.00  0.00    +0.267 C 
ATOM      8  O   UNL     1       1.799   7.541  -7.687  0.00  0.00    -0.268 OA
ATOM      9  C   UNL     1       1.315   5.142  -6.021  0.00  0.00    +0.115 C 
ATOM     10  C   UNL     1       1.035   6.466  -5.316  0.00  0.00    +0.114 C 
ATOM     11  N   UNL     1       3.662   5.360  -3.237  0.00  0.00    -0.228 NA
ATOM     12  C   UNL     1       3.931   4.708  -2.094  0.00  0.00    +0.100 A 
ATOM     13  C   UNL     1       3.067   4.914  -1.033  0.00  0.00    +0.022 A 
ATOM     14  C   UNL     1       1.790   5.356  -1.320  0.00  0.00    +0.021 A 
ENDROOT
BRANCH   7  15
ATOM     15  C   UNL     1       1.816   5.903  -9.412  0.00  0.00    +0.135 A 
ATOM     16  N   UNL     1       1.260   4.788  -9.929  0.00  0.00    -0.241 NA
ATOM     17  C   UNL     1       1.034   5.012 -11.244  0.00  0.00    +0.082 A 
ATOM     18  C   UNL     1       1.712   6.149 -11.621  0.00  0.00    +0.021 A 
ATOM     19  C   UNL     1       1.638   6.668 -12.906  0.00  0.00    +0.020 A 
ATOM     20  C   UNL     1       0.957   5.985 -13.889  0.00  0.00    +0.091 A 
ATOM     21  C   UNL     1       0.375   4.786 -13.532  0.00  0.00    +0.020 A 
ATOM     22  C   UNL     1       0.327   4.360 -12.231  0.00  0.00    +0.020 A 
ATOM     23  C   UNL     1       2.328   6.618 -10.480  0.00  0.00    +0.025 A 
BRANCH  20  24
ATOM     24  N   UNL     1       1.312   6.207 -15.259  0.00  0.00    -0.101 NA
BRANCH  24  25
ATOM     25  S   UNL     1       0.552   7.392 -16.243  0.00  0.00    +0.075 S 
ATOM     26  O   UNL     1      -0.930   7.179 -16.191  0.00  0.00    -0.153 OA
ATOM     27  O   UNL     1       0.959   7.217 -17.689  0.00  0.00    -0.153 OA
ATOM     28  C   UNL     1       0.893   9.037 -15.688  0.00  0.00    +0.202 C 
ENDBRANCH  24  25
ENDBRANCH  20  24
ENDBRANCH   7  15
BRANCH   1  29
ATOM     29  N   UNL     1       0.117   6.156  -2.887  0.00  0.00    -0.237 NA
BRANCH  29  31
ATOM     30  C   UNL     1      -2.147   5.276  -2.998  0.00  0.00    +0.023 C 
ATOM     31  C   UNL     1      -1.018   5.729  -2.105  0.00  0.00    +0.093 C 
ATOM     32  C   UNL     1      -1.530   6.891  -1.278  0.00  0.00    +0.023 C 
ENDBRANCH  29  31
ENDBRANCH   1  29
TORSDOF 5
ENDMDL
MODEL 7
REMARK VINA RESULT:      -8.2      4.673     10.227
REMARK  Name = 
REMARK  5 active torsions:
REMARK  status: ('A' for Active; 'I' for Inactive)
REMARK    1  A    between atoms: C_2  and  N_4
REMARK    2  A    between atoms: N_4  and  C_5
REMARK    3  A    between atoms: C_15  and  C_17
REMARK    4  A    between atoms: C_21  and  N_22
REMARK    5  A    between atoms: N_22  and  S_23
REMARK                            x       y       z     vdW  Elec       q    Type
REMARK                         _______ _______ _______ _____ _____    ______ ____
ROOT
ATOM      1  C   UNL     1       3.039   5.635 -12.651  0.00  0.00    +0.097 A 
ATOM      2  C   UNL     1       1.945   5.903 -11.838  0.00  0.00    +0.147 A 
ATOM      3  N   UNL     1       2.132   6.699 -10.661  0.00  0.00    -0.289 N 
ATOM      4  C   UNL     1       0.966   6.862  -9.795  0.00  0.00    +0.114 C 
ATOM      5  C   UNL     1       0.817   5.658  -8.871  0.00  0.00    +0.115 C 
ATOM      6  N   UNL     1       2.127   5.435  -8.261  0.00  0.00    -0.271 N 
ATOM      7  C   UNL     1       2.480   6.386  -7.245  0.00  0.00    +0.267 C 
ATOM      8  O   UNL     1       2.559   7.588  -7.643  0.00  0.00    -0.268 OA
ATOM      9  C   UNL     1       3.204   5.161  -9.212  0.00  0.00    +0.115 C 
ATOM     10  C   UNL     1       3.398   6.472  -9.969  0.00  0.00    +0.114 C 
ATOM     11  N   UNL     1       0.856   5.114 -12.002  0.00  0.00    -0.228 NA
ATOM     12  C   UNL     1       0.633   4.400 -13.118  0.00  0.00    +0.100 A 
ATOM     13  C   UNL     1       1.484   4.620 -14.186  0.00  0.00    +0.022 A 
ATOM     14  C   UNL     1       2.729   5.156 -13.918  0.00  0.00    +0.021 A 
ENDROOT
BRANCH   7  15
ATOM     15  C   UNL     1       2.646   6.022  -5.854  0.00  0.00    +0.135 A 
ATOM     16  N   UNL     1       3.429   5.086  -5.280  0.00  0.00    -0.241 NA
ATOM     17  C   UNL     1       3.520   5.376  -3.962  0.00  0.00    +0.082 A 
ATOM     18  C   UNL     1       2.562   6.315  -3.649  0.00  0.00    +0.021 A 
ATOM     19  C   UNL     1       2.434   6.852  -2.376  0.00  0.00    +0.020 A 
ATOM     20  C   UNL     1       3.207   6.371  -1.342  0.00  0.00    +0.091 A 
ATOM     21  C   UNL     1       4.085   5.348  -1.638  0.00  0.00    +0.020 A 
ATOM     22  C   UNL     1       4.309   4.932  -2.924  0.00  0.00    +0.020 A 
ATOM     23  C   UNL     1       1.914   6.602  -4.832  0.00  0.00    +0.025 A 
BRANCH  20  24
ATOM     24  N   UNL     1       2.732   6.514   0.002  0.00  0.00    -0.101 NA
BRANCH  24  25
ATOM     25  S   UNL     1       3.514   7.501   1.170  0.00  0.00    +0.075 S 
ATOM     26  O   UNL     1       4.756   6.804   1.632  0.00  0.00    -0.153 OA
ATOM     27  O   UNL     1       2.637   7.668   2.391  0.00  0.00    -0.153 OA
ATOM     28  C   UNL     1       3.979   9.075   0.509  0.00  0.00    +0.202 C 
ENDBRANCH  24  25
ENDBRANCH  20  24
ENDBRANCH   7  15
BRANCH   1  29
ATOM     29  N   UNL     1       4.341   6.127 -12.383  0.00  0.00    -0.237 NA
BRANCH  29  31
ATOM     30  C   UNL     1       6.586   5.450 -11.741  0.00  0.00    +0.023 C 
ATOM     31  C   UNL     1       5.544   5.467 -12.832  0.00  0.00    +0.093 C 
ATOM     32  C   UNL     1       6.128   6.221 -14.008  0.00  0.00    +0.023 C 
ENDBRANCH  29  31
ENDBRANCH   1  29
TORSDOF 5
ENDMDL
MODEL 8
REMARK VINA RESULT:      -8.2      2.479      3.811
REMARK  Name = 
REMARK  5 active torsions:
REMARK  status: ('A' for Active; 'I' for Inactive)
REMARK    1  A    between atoms: C_2  and  N_4
REMARK    2  A    between atoms: N_4  and  C_5
REMARK    3  A    between atoms: C_15  and  C_17
REMARK    4  A    between atoms: C_21  and  N_22
REMARK    5  A    between atoms: N_22  and  S_23
REMARK                            x       y       z     vdW  Elec       q    Type
REMARK                         _______ _______ _______ _____ _____    ______ ____
ROOT
ATOM      1  C   UNL     1       0.631   6.561  -0.661  0.00  0.00    +0.097 A 
ATOM      2  C   UNL     1       0.119   6.127  -1.878  0.00  0.00    +0.147 A 
ATOM      3  N   UNL     1       0.932   5.297  -2.717  0.00  0.00    -0.289 N 
ATOM      4  C   UNL     1       0.378   4.957  -4.027  0.00  0.00    +0.114 C 
ATOM      5  C   UNL     1       0.629   6.086  -5.020  0.00  0.00    +0.115 C 
ATOM      6  N   UNL     1       2.047   6.425  -4.917  0.00  0.00    -0.271 N 
ATOM      7  C   UNL     1       2.933   5.469  -5.520  0.00  0.00    +0.267 C 
ATOM      8  O   UNL     1       2.887   4.306  -5.014  0.00  0.00    -0.268 OA
ATOM      9  C   UNL     1       2.474   6.869  -3.591  0.00  0.00    +0.115 C 
ATOM     10  C   UNL     1       2.354   5.631  -2.708  0.00  0.00    +0.114 C 
ATOM     11  N   UNL     1      -0.958   6.794  -2.358  0.00  0.00    -0.228 NA
ATOM     12  C   UNL     1      -1.764   7.535  -1.582  0.00  0.00    +0.100 A 
ATOM     13  C   UNL     1      -1.556   7.470  -0.215  0.00  0.00    +0.022 A 
ATOM     14  C   UNL     1      -0.310   7.066   0.227  0.00  0.00    +0.021 A 
ENDROOT
BRANCH   7  15
ATOM     15  C   UNL     1       3.751   5.776  -6.674  0.00  0.00    +0.135 A 
ATOM     16  N   UNL     1       5.088   5.710  -6.842  0.00  0.00    -0.241 NA
ATOM     17  C   UNL     1       5.338   5.729  -8.172  0.00  0.00    +0.082 A 
ATOM     18  C   UNL     1       4.188   6.103  -8.831  0.00  0.00    +0.021 A 
ATOM     19  C   UNL     1       4.113   6.168 -10.216  0.00  0.00    +0.020 A 
ATOM     20  C   UNL     1       5.240   5.962 -10.980  0.00  0.00    +0.091 A 
ATOM     21  C   UNL     1       6.416   5.700 -10.307  0.00  0.00    +0.020 A 
ATOM     22  C   UNL     1       6.447   5.490  -8.953  0.00  0.00    +0.020 A 
ATOM     23  C   UNL     1       3.231   6.278  -7.854  0.00  0.00    +0.025 A 
BRANCH  20  24
ATOM     24  N   UNL     1       5.300   6.534 -12.292  0.00  0.00    -0.101 NA
BRANCH  24  25
ATOM     25  S   UNL     1       5.689   5.619 -13.693  0.00  0.00    +0.075 S 
ATOM     26  O   UNL     1       4.615   4.598 -13.912  0.00  0.00    -0.153 OA
ATOM     27  O   UNL     1       6.974   4.849 -13.480  0.00  0.00    -0.153 OA
ATOM     28  C   UNL     1       5.793   6.630 -15.141  0.00  0.00    +0.202 C 
ENDBRANCH  24  25
ENDBRANCH  20  24
ENDBRANCH   7  15
BRANCH   1  29
ATOM     29  N   UNL     1       1.922   6.207  -0.194  0.00  0.00    -0.237 NA
BRANCH  29  31
ATOM     30  C   UNL     1       2.675   8.518  -0.263  0.00  0.00    +0.023 C 
ATOM     31  C   UNL     1       2.846   7.160   0.372  0.00  0.00    +0.093 C 
ATOM     32  C   UNL     1       4.267   6.708   0.105  0.00  0.00    +0.023 C 
ENDBRANCH  29  31
ENDBRANCH   1  29
TORSDOF 5
ENDMDL
MODEL 9
REMARK VINA RESULT:      -8.1      5.043     10.745
REMARK  Name = 
REMARK  5 active torsions:
REMARK  status: ('A' for Active; 'I' for Inactive)
REMARK    1  A    between atoms: C_2  and  N_4
REMARK    2  A    between atoms: N_4  and  C_5
REMARK    3  A    between atoms: C_15  and  C_17
REMARK    4  A    between atoms: C_21  and  N_22
REMARK    5  A    between atoms: N_22  and  S_23
REMARK                            x       y       z     vdW  Elec       q    Type
REMARK                         _______ _______ _______ _____ _____    ______ ____
ROOT
ATOM      1  C   UNL     1       3.649   5.600 -12.219  0.00  0.00    +0.097 A 
ATOM      2  C   UNL     1       2.361   5.940 -11.822  0.00  0.00    +0.147 A 
ATOM      3  N   UNL     1       2.183   6.706 -10.624  0.00  0.00    -0.289 N 
ATOM      4  C   UNL     1       0.803   6.946 -10.206  0.00  0.00    +0.114 C 
ATOM      5  C   UNL     1       0.263   5.746  -9.436  0.00  0.00    +0.115 C 
ATOM      6  N   UNL     1       1.263   5.417  -8.422  0.00  0.00    -0.271 N 
ATOM      7  C   UNL     1       1.306   6.325  -7.311  0.00  0.00    +0.267 C 
ATOM      8  O   UNL     1       1.599   7.523  -7.612  0.00  0.00    -0.268 OA
ATOM      9  C   UNL     1       2.582   5.073  -8.953  0.00  0.00    +0.115 C 
ATOM     10  C   UNL     1       3.113   6.374  -9.548  0.00  0.00    +0.114 C 
ATOM     11  N   UNL     1       1.346   5.239 -12.381  0.00  0.00    -0.228 NA
ATOM     12  C   UNL     1       1.475   4.558 -13.531  0.00  0.00    +0.100 A 
ATOM     13  C   UNL     1       2.656   4.725 -14.233  0.00  0.00    +0.022 A 
ATOM     14  C   UNL     1       3.764   5.162 -13.532  0.00  0.00    +0.021 A 
ENDROOT
BRANCH   7  15
ATOM     15  C   UNL     1       0.955   5.933  -5.963  0.00  0.00    +0.135 A 
ATOM     16  N   UNL     1       1.579   5.104  -5.101  0.00  0.00    -0.241 NA
ATOM     17  C   UNL     1       1.089   5.348  -3.864  0.00  0.00    +0.082 A 
ATOM     18  C   UNL     1      -0.048   6.117  -3.984  0.00  0.00    +0.021 A 
ATOM     19  C   UNL     1      -0.756   6.574  -2.882  0.00  0.00    +0.020 A 
ATOM     20  C   UNL     1      -0.397   6.174  -1.614  0.00  0.00    +0.091 A 
ATOM     21  C   UNL     1       0.673   5.310  -1.509  0.00  0.00    +0.020 A 
ATOM     22  C   UNL     1       1.455   4.986  -2.587  0.00  0.00    +0.020 A 
ATOM     23  C   UNL     1      -0.204   6.352  -5.334  0.00  0.00    +0.025 A 
BRANCH  20  24
ATOM     24  N   UNL     1      -1.387   6.187  -0.578  0.00  0.00    -0.101 NA
BRANCH  24  25
ATOM     25  S   UNL     1      -1.427   7.377   0.660  0.00  0.00    +0.075 S 
ATOM     26  O   UNL     1      -2.697   7.215   1.439  0.00  0.00    -0.153 OA
ATOM     27  O   UNL     1      -1.470   8.763   0.057  0.00  0.00    -0.153 OA
ATOM     28  C   UNL     1      -0.069   7.219   1.781  0.00  0.00    +0.202 C 
ENDBRANCH  24  25
ENDBRANCH  20  24
ENDBRANCH   7  15
BRANCH   1  29
ATOM     29  N   UNL     1       4.808   5.988 -11.501  0.00  0.00    -0.237 NA
BRANCH  29  31
ATOM     30  C   UNL     1       7.150   5.743 -12.104  0.00  0.00    +0.023 C 
ATOM     31  C   UNL     1       5.938   6.641 -12.118  0.00  0.00    +0.093 C 
ATOM     32  C   UNL     1       6.288   7.891 -11.338  0.00  0.00    +0.023 C 
ENDBRANCH  29  31
ENDBRANCH   1  29
TORSDOF 5
ENDMDL
