MODEL 1
REMARK VINA RESULT:      -7.2      0.000      0.000
REMARK  Name = 
REMARK  6 active torsions:
REMARK  status: ('A' for Active; 'I' for Inactive)
REMARK    1  A    between atoms: C_2  and  N_5
REMARK    2  A    between atoms: N_5  and  C_6
REMARK    3  A    between atoms: C_6  and  C_7
REMARK    4  A    between atoms: C_7  and  C_9
REMARK    5  A    between atoms: C_9  and  O_10
REMARK    6  A    between atoms: O_10  and  C_11
REMARK                            x       y       z     vdW  Elec       q    Type
REMARK                         _______ _______ _______ _____ _____    ______ ____
ROOT
ATOM      1  C   UNL     1       3.356   5.733  -4.619  0.00  0.00    +0.134 A 
ATOM      2  C   UNL     1       3.143   6.163  -3.317  0.00  0.00    +0.011 A 
ATOM      3  C   UNL     1       1.976   5.829  -2.502  0.00  0.00    +0.065 C 
ATOM      4  C   UNL     1       2.511   5.164  -1.084  0.00  0.00    +0.187 C 
ATOM      5  C   UNL     1       4.093   5.935  -1.128  0.00  0.00    +0.187 C 
ATOM      6  C   UNL     1       3.498   7.463  -1.401  0.00  0.00    +0.062 C 
ATOM      7  O   UNL     1       4.127   6.141   0.383  0.00  0.00    -0.220 OA
ATOM      8  O   UNL     1       1.866   6.274  -0.252  0.00  0.00    -0.220 OA
ATOM      9  C   UNL     1       3.651   7.400  -2.897  0.00  0.00    -0.021 A 
ATOM     10  C   UNL     1       4.767   7.893  -3.541  0.00  0.00    -0.004 A 
ATOM     11  C   UNL     1       5.121   7.321  -4.739  0.00  0.00    +0.003 A 
ATOM     12  C   UNL     1       4.514   6.169  -5.226  0.00  0.00    +0.037 A 
ENDROOT
BRANCH   1  13
ATOM     13  O   UNL     1       2.579   4.703  -5.093  0.00  0.00    -0.473 OA
BRANCH  13  14
ATOM     14  C   UNL     1       2.245   4.700  -6.464  0.00  0.00    +0.239 C 
BRANCH  14  15
ATOM     15  C   UNL     1       1.224   6.025  -6.576  0.00  0.00    +0.213 C 
ATOM     16  O   UNL     1       0.799   5.620  -8.004  0.00  0.00    -0.218 OA
BRANCH  15  17
ATOM     17  C   UNL     1      -0.048   5.155  -5.913  0.00  0.00    +0.125 C 
BRANCH  17  18
ATOM     18  N   UNL     1      -0.590   6.171  -5.029  0.00  0.00    -0.218 NA
BRANCH  18  20
ATOM     19  C   UNL     1      -2.361   7.136  -5.084  0.00  0.00    +0.017 C 
ATOM     20  C   UNL     1      -2.027   6.265  -5.101  0.00  0.00    +0.060 C 
ATOM     21  C   UNL     1      -2.702   5.541  -3.972  0.00  0.00    +0.017 C 
ATOM     22  C   UNL     1      -2.450   5.558  -6.376  0.00  0.00    +0.017 C 
ENDBRANCH  18  20
ENDBRANCH  17  18
ENDBRANCH  15  17
ENDBRANCH  14  15
ENDBRANCH  13  14
ENDBRANCH   1  13
TORSDOF 6
ENDMDL
MODEL 2
REMARK VINA RESULT:      -7.0      1.720      4.402
REMARK  Name = 
REMARK  6 active torsions:
REMARK  status: ('A' for Active; 'I' for Inactive)
REMARK    1  A    between atoms: C_2  and  N_5
REMARK    2  A    between atoms: N_5  and  C_6
REMARK    3  A    between atoms: C_6  and  C_7
REMARK    4  A    between atoms: C_7  and  C_9
REMARK    5  A    between atoms: C_9  and  O_10
REMARK    6  A    between atoms: O_10  and  C_11
REMARK                            x       y       z     vdW  Elec       q    Type
REMARK                         _______ _______ _______ _____ _____    ______ ____
ROOT
ATOM      1  C   UNL     1       2.745   6.182  -3.474  0.00  0.00    +0.134 A 
ATOM      2  C   UNL     1       3.135   5.835  -4.760  0.00  0.00    +0.011 A 
ATOM      3  C   UNL     1       2.661   4.664  -5.495  0.00  0.00    +0.065 C 
ATOM      4  C   UNL     1       2.049   5.179  -6.945  0.00  0.00    +0.187 C 
ATOM      5  C   UNL     1       2.997   6.660  -7.006  0.00  0.00    +0.187 C 
ATOM      6  C   UNL     1       4.449   5.911  -6.697  0.00  0.00    +0.062 C 
ATOM      7  O   UNL     1       3.193   6.571  -8.517  0.00  0.00    -0.220 OA
ATOM      8  O   UNL     1       3.069   4.356  -7.734  0.00  0.00    -0.220 OA
ATOM      9  C   UNL     1       4.418   6.168  -5.215  0.00  0.00    -0.021 A 
ATOM     10  C   UNL     1       5.043   7.259  -4.647  0.00  0.00    -0.004 A 
ATOM     11  C   UNL     1       4.527   7.755  -3.473  0.00  0.00    +0.003 A 
ATOM     12  C   UNL     1       3.317   7.318  -2.946  0.00  0.00    +0.037 A 
ENDROOT
BRANCH   1  13
ATOM     13  O   UNL     1       1.636   5.562  -2.949  0.00  0.00    -0.473 OA
BRANCH  13  14
ATOM     14  C   UNL     1       1.001   6.165  -1.842  0.00  0.00    +0.239 C 
BRANCH  14  15
ATOM     15  C   UNL     1      -0.469   5.360  -1.802  0.00  0.00    +0.213 C 
ATOM     16  O   UNL     1      -0.828   6.008  -0.449  0.00  0.00    -0.218 OA
BRANCH  15  17
ATOM     17  C   UNL     1      -1.222   6.603  -2.638  0.00  0.00    +0.125 C 
BRANCH  17  18
ATOM     18  N   UNL     1      -1.751   5.846  -3.757  0.00  0.00    -0.218 NA
BRANCH  18  20
ATOM     19  C   UNL     1      -2.482   7.264  -4.994  0.00  0.00    +0.017 C 
ATOM     20  C   UNL     1      -1.810   6.616  -4.975  0.00  0.00    +0.060 C 
ATOM     21  C   UNL     1      -2.035   5.754  -6.184  0.00  0.00    +0.017 C 
ATOM     22  C   UNL     1      -0.447   7.258  -5.154  0.00  0.00    +0.017 C 
ENDBRANCH  18  20
ENDBRANCH  17  18
ENDBRANCH  15  17
ENDBRANCH  14  15
ENDBRANCH  13  14
ENDBRANCH   1  13
TORSDOF 6
ENDMDL
MODEL 3
REMARK VINA RESULT:      -7.0      3.924      6.476
REMARK  Name = 
REMARK  6 active torsions:
REMARK  status: ('A' for Active; 'I' for Inactive)
REMARK    1  A    between atoms: C_2  and  N_5
REMARK    2  A    between atoms: N_5  and  C_6
REMARK    3  A    between atoms: C_6  and  C_7
REMARK    4  A    between atoms: C_7  and  C_9
REMARK    5  A    between atoms: C_9  and  O_10
REMARK    6  A    between atoms: O_10  and  C_11
REMARK                            x       y       z     vdW  Elec       q    Type
REMARK                         _______ _______ _______ _____ _____    ______ ____
ROOT
ATOM      1  C   UNL     1       1.426   4.792  -7.527  0.00  0.00    +0.134 A 
ATOM      2  C   UNL     1       1.700   4.944  -6.175  0.00  0.00    +0.011 A 
ATOM      3  C   UNL     1       2.891   4.435  -5.497  0.00  0.00    +0.065 C 
ATOM      4  C   UNL     1       3.620   5.700  -4.716  0.00  0.00    +0.187 C 
ATOM      5  C   UNL     1       2.157   6.669  -4.575  0.00  0.00    +0.187 C 
ATOM      6  C   UNL     1       1.236   5.442  -3.934  0.00  0.00    +0.062 C 
ATOM      7  O   UNL     1       2.540   7.197  -3.196  0.00  0.00    -0.220 OA
ATOM      8  O   UNL     1       3.447   5.032  -3.351  0.00  0.00    -0.220 OA
ATOM      9  C   UNL     1       0.648   5.015  -5.252  0.00  0.00    -0.021 A 
ATOM     10  C   UNL     1      -0.572   5.483  -5.696  0.00  0.00    -0.004 A 
ATOM     11  C   UNL     1      -0.778   5.546  -7.053  0.00  0.00    +0.003 A 
ATOM     12  C   UNL     1       0.240   5.332  -7.975  0.00  0.00    +0.037 A 
ENDROOT
BRANCH   1  13
ATOM     13  O   UNL     1       2.451   4.393  -8.351  0.00  0.00    -0.473 OA
BRANCH  13  14
ATOM     14  C   UNL     1       2.757   5.201  -9.468  0.00  0.00    +0.239 C 
BRANCH  14  15
ATOM     15  C   UNL     1       3.996   6.162  -8.873  0.00  0.00    +0.213 C 
ATOM     16  O   UNL     1       4.906   4.930  -8.681  0.00  0.00    -0.218 OA
BRANCH  15  17
ATOM     17  C   UNL     1       4.600   6.412 -10.417  0.00  0.00    +0.125 C 
BRANCH  17  18
ATOM     18  N   UNL     1       5.922   5.836 -10.247  0.00  0.00    -0.218 NA
BRANCH  18  20
ATOM     19  C   UNL     1       7.639   6.895 -10.232  0.00  0.00    +0.017 C 
ATOM     20  C   UNL     1       6.964   6.647 -10.827  0.00  0.00    +0.060 C 
ATOM     21  C   UNL     1       6.433   7.927 -11.406  0.00  0.00    +0.017 C 
ATOM     22  C   UNL     1       7.540   5.857 -11.987  0.00  0.00    +0.017 C 
ENDBRANCH  18  20
ENDBRANCH  17  18
ENDBRANCH  15  17
ENDBRANCH  14  15
ENDBRANCH  13  14
ENDBRANCH   1  13
TORSDOF 6
ENDMDL
MODEL 4
REMARK VINA RESULT:      -6.9      5.639      9.833
REMARK  Name = 
REMARK  6 active torsions:
REMARK  status: ('A' for Active; 'I' for Inactive)
REMARK    1  A    between atoms: C_2  and  N_5
REMARK    2  A    between atoms: N_5  and  C_6
REMARK    3  A    between atoms: C_6  and  C_7
REMARK    4  A    between atoms: C_7  and  C_9
REMARK    5  A    between atoms: C_9  and  O_10
REMARK    6  A    between atoms: O_10  and  C_11
REMARK                            x       y       z     vdW  Elec       q    Type
REMARK                         _______ _______ _______ _____ _____    ______ ____
ROOT
ATOM      1  C   UNL     1       1.705   5.348 -10.412  0.00  0.00    +0.134 A 
ATOM      2  C   UNL     1       1.746   5.847 -11.707  0.00  0.00    +0.011 A 
ATOM      3  C   UNL     1       2.927   5.850 -12.568  0.00  0.00    +0.065 C 
ATOM      4  C   UNL     1       2.531   5.098 -13.989  0.00  0.00    +0.187 C 
ATOM      5  C   UNL     1       0.805   5.424 -13.870  0.00  0.00    +0.187 C 
ATOM      6  C   UNL     1       0.988   7.049 -13.569  0.00  0.00    +0.062 C 
ATOM      7  O   UNL     1       0.659   5.647 -15.373  0.00  0.00    -0.220 OA
ATOM      8  O   UNL     1       2.828   6.357 -14.806  0.00  0.00    -0.220 OA
ATOM      9  C   UNL     1       0.915   6.915 -12.072  0.00  0.00    -0.021 A 
ATOM     10  C   UNL     1      -0.265   7.082 -11.378  0.00  0.00    -0.004 A 
ATOM     11  C   UNL     1      -0.409   6.412 -10.186  0.00  0.00    +0.003 A 
ATOM     12  C   UNL     1       0.498   5.450  -9.755  0.00  0.00    +0.037 A 
ENDROOT
BRANCH   1  13
ATOM     13  O   UNL     1       2.743   4.549  -9.997  0.00  0.00    -0.473 OA
BRANCH  13  14
ATOM     14  C   UNL     1       3.134   4.620  -8.642  0.00  0.00    +0.239 C 
BRANCH  14  15
ATOM     15  C   UNL     1       3.968   6.075  -8.597  0.00  0.00    +0.213 C 
ATOM     16  O   UNL     1       4.122   5.979  -7.065  0.00  0.00    -0.218 OA
BRANCH  15  17
ATOM     17  C   UNL     1       5.432   5.292  -8.829  0.00  0.00    +0.125 C 
BRANCH  17  18
ATOM     18  N   UNL     1       5.692   5.685 -10.202  0.00  0.00    -0.218 NA
BRANCH  18  20
ATOM     19  C   UNL     1       7.663   5.694  -9.768  0.00  0.00    +0.017 C 
ATOM     20  C   UNL     1       7.086   5.963 -10.450  0.00  0.00    +0.060 C 
ATOM     21  C   UNL     1       7.346   7.427 -10.658  0.00  0.00    +0.017 C 
ATOM     22  C   UNL     1       7.445   5.274 -11.754  0.00  0.00    +0.017 C 
ENDBRANCH  18  20
ENDBRANCH  17  18
ENDBRANCH  15  17
ENDBRANCH  14  15
ENDBRANCH  13  14
ENDBRANCH   1  13
TORSDOF 6
ENDMDL
MODEL 5
REMARK VINA RESULT:      -6.7      3.987      6.383
REMARK  Name = 
REMARK  6 active torsions:
REMARK  status: ('A' for Active; 'I' for Inactive)
REMARK    1  A    between atoms: C_2  and  N_5
REMARK    2  A    between atoms: N_5  and  C_6
REMARK    3  A    between atoms: C_6  and  C_7
REMARK    4  A    between atoms: C_7  and  C_9
REMARK    5  A    between atoms: C_9  and  O_10
REMARK    6  A    between atoms: O_10  and  C_11
REMARK                            x       y       z     vdW  Elec       q    Type
REMARK                         _______ _______ _______ _____ _____    ______ ____
ROOT
ATOM      1  C   UNL     1       3.586   6.111  -6.980  0.00  0.00    +0.134 A 
ATOM      2  C   UNL     1       2.498   6.405  -6.171  0.00  0.00    +0.011 A 
ATOM      3  C   UNL     1       1.253   7.021  -6.628  0.00  0.00    +0.065 C 
ATOM      4  C   UNL     1      -0.003   6.042  -6.173  0.00  0.00    +0.187 C 
ATOM      5  C   UNL     1       0.853   5.294  -4.829  0.00  0.00    +0.187 C 
ATOM      6  C   UNL     1       1.347   6.732  -4.158  0.00  0.00    +0.062 C 
ATOM      7  O   UNL     1      -0.398   5.236  -3.957  0.00  0.00    -0.220 OA
ATOM      8  O   UNL     1      -0.625   7.144  -5.313  0.00  0.00    -0.220 OA
ATOM      9  C   UNL     1       2.697   6.732  -4.823  0.00  0.00    -0.021 A 
ATOM     10  C   UNL     1       3.822   6.237  -4.197  0.00  0.00    -0.004 A 
ATOM     11  C   UNL     1       4.827   5.734  -4.988  0.00  0.00    +0.003 A 
ATOM     12  C   UNL     1       4.677   5.544  -6.358  0.00  0.00    +0.037 A 
ENDROOT
BRANCH   1  13
ATOM     13  O   UNL     1       3.400   6.127  -8.342  0.00  0.00    -0.473 OA
BRANCH  13  14
ATOM     14  C   UNL     1       3.742   4.969  -9.073  0.00  0.00    +0.239 C 
BRANCH  14  15
ATOM     15  C   UNL     1       3.543   5.484 -10.656  0.00  0.00    +0.213 C 
ATOM     16  O   UNL     1       2.490   6.525 -10.221  0.00  0.00    -0.218 OA
BRANCH  15  17
ATOM     17  C   UNL     1       4.775   6.608 -10.490  0.00  0.00    +0.125 C 
BRANCH  17  18
ATOM     18  N   UNL     1       5.831   5.904 -11.195  0.00  0.00    -0.218 NA
BRANCH  18  20
ATOM     19  C   UNL     1       7.274   7.254 -10.783  0.00  0.00    +0.017 C 
ATOM     20  C   UNL     1       7.150   6.329 -10.795  0.00  0.00    +0.060 C 
ATOM     21  C   UNL     1       8.221   5.782 -11.695  0.00  0.00    +0.017 C 
ATOM     22  C   UNL     1       7.403   5.739  -9.420  0.00  0.00    +0.017 C 
ENDBRANCH  18  20
ENDBRANCH  17  18
ENDBRANCH  15  17
ENDBRANCH  14  15
ENDBRANCH  13  14
ENDBRANCH   1  13
TORSDOF 6
ENDMDL
MODEL 6
REMARK VINA RESULT:      -6.7      3.355      6.493
REMARK  Name = 
REMARK  6 active torsions:
REMARK  status: ('A' for Active; 'I' for Inactive)
REMARK    1  A    between atoms: C_2  and  N_5
REMARK    2  A    between atoms: N_5  and  C_6
REMARK    3  A    between atoms: C_6  and  C_7
REMARK    4  A    between atoms: C_7  and  C_9
REMARK    5  A    between atoms: C_9  and  O_10
REMARK    6  A    between atoms: O_10  and  C_11
REMARK                            x       y       z     vdW  Elec       q    Type
REMARK                         _______ _______ _______ _____ _____    ______ ____
ROOT
ATOM      1  C   UNL     1       3.387   5.220  -8.745  0.00  0.00    +0.134 A 
ATOM      2  C   UNL     1       2.446   5.288  -9.762  0.00  0.00    +0.011 A 
ATOM      3  C   UNL     1       1.239   4.468  -9.848  0.00  0.00    +0.065 C 
ATOM      4  C   UNL     1      -0.063   5.480  -9.997  0.00  0.00    +0.187 C 
ATOM      5  C   UNL     1       0.848   6.818 -10.687  0.00  0.00    +0.187 C 
ATOM      6  C   UNL     1       1.589   5.896 -11.856  0.00  0.00    +0.062 C 
ATOM      7  O   UNL     1      -0.288   7.218 -11.623  0.00  0.00    -0.220 OA
ATOM      8  O   UNL     1      -0.442   4.886 -11.355  0.00  0.00    -0.220 OA
ATOM      9  C   UNL     1       2.841   5.651 -11.057  0.00  0.00    -0.021 A 
ATOM     10  C   UNL     1       3.964   6.439 -11.194  0.00  0.00    -0.004 A 
ATOM     11  C   UNL     1       4.800   6.558 -10.110  0.00  0.00    +0.003 A 
ATOM     12  C   UNL     1       4.467   6.069  -8.851  0.00  0.00    +0.037 A 
ENDROOT
BRANCH   1  13
ATOM     13  O   UNL     1       3.043   4.551  -7.594  0.00  0.00    -0.473 OA
BRANCH  13  14
ATOM     14  C   UNL     1       2.513   5.302  -6.523  0.00  0.00    +0.239 C 
BRANCH  14  15
ATOM     15  C   UNL     1       1.232   4.342  -6.026  0.00  0.00    +0.213 C 
ATOM     16  O   UNL     1       1.451   4.751  -4.554  0.00  0.00    -0.218 OA
BRANCH  15  17
ATOM     17  C   UNL     1       0.146   5.600  -6.250  0.00  0.00    +0.125 C 
BRANCH  17  18
ATOM     18  N   UNL     1      -0.622   5.467  -5.026  0.00  0.00    -0.218 NA
BRANCH  18  20
ATOM     19  C   UNL     1      -2.356   5.892  -5.968  0.00  0.00    +0.017 C 
ATOM     20  C   UNL     1      -1.951   6.017  -5.137  0.00  0.00    +0.060 C 
ATOM     21  C   UNL     1      -1.977   7.498  -4.886  0.00  0.00    +0.017 C 
ATOM     22  C   UNL     1      -2.782   5.382  -4.038  0.00  0.00    +0.017 C 
ENDBRANCH  18  20
ENDBRANCH  17  18
ENDBRANCH  15  17
ENDBRANCH  14  15
ENDBRANCH  13  14
ENDBRANCH   1  13
TORSDOF 6
ENDMDL
MODEL 7
REMARK VINA RESULT:      -6.7      5.659      8.672
REMARK  Name = 
REMARK  6 active torsions:
REMARK  status: ('A' for Active; 'I' for Inactive)
REMARK    1  A    between atoms: C_2  and  N_5
REMARK    2  A    between atoms: N_5  and  C_6
REMARK    3  A    between atoms: C_6  and  C_7
REMARK    4  A    between atoms: C_7  and  C_9
REMARK    5  A    between atoms: C_9  and  O_10
REMARK    6  A    between atoms: O_10  and  C_11
REMARK                            x       y       z     vdW  Elec       q    Type
REMARK                         _______ _______ _______ _____ _____    ______ ____
ROOT
ATOM      1  C   UNL     1       2.197   6.051 -11.594  0.00  0.00    +0.134 A 
ATOM      2  C   UNL     1       2.120   5.946 -10.213  0.00  0.00    +0.011 A 
ATOM      3  C   UNL     1       3.100   5.270  -9.365  0.00  0.00    +0.065 C 
ATOM      4  C   UNL     1       3.607   6.340  -8.208  0.00  0.00    +0.187 C 
ATOM      5  C   UNL     1       2.157   7.336  -8.259  0.00  0.00    +0.187 C 
ATOM      6  C   UNL     1       1.103   6.059  -8.105  0.00  0.00    +0.062 C 
ATOM      7  O   UNL     1       2.178   7.591  -6.755  0.00  0.00    -0.220 OA
ATOM      8  O   UNL     1       3.094   5.448  -7.076  0.00  0.00    -0.220 OA
ATOM      9  C   UNL     1       0.868   5.902  -9.583  0.00  0.00    -0.021 A 
ATOM     10  C   UNL     1      -0.199   6.498 -10.223  0.00  0.00    -0.004 A 
ATOM     11  C   UNL     1      -0.055   6.811 -11.554  0.00  0.00    +0.003 A 
ATOM     12  C   UNL     1       1.164   6.718 -12.216  0.00  0.00    +0.037 A 
ENDROOT
BRANCH   1  13
ATOM     13  O   UNL     1       3.398   5.758 -12.196  0.00  0.00    -0.473 OA
BRANCH  13  14
ATOM     14  C   UNL     1       3.395   5.472 -13.578  0.00  0.00    +0.239 C 
BRANCH  14  15
ATOM     15  C   UNL     1       5.003   5.091 -13.859  0.00  0.00    +0.213 C 
ATOM     16  O   UNL     1       5.282   6.510 -14.397  0.00  0.00    -0.218 OA
BRANCH  15  17
ATOM     17  C   UNL     1       5.429   5.558 -12.306  0.00  0.00    +0.125 C 
BRANCH  17  18
ATOM     18  N   UNL     1       6.797   5.072 -12.282  0.00  0.00    -0.218 NA
BRANCH  18  20
ATOM     19  C   UNL     1       8.553   5.927 -11.773  0.00  0.00    +0.017 C 
ATOM     20  C   UNL     1       7.668   5.892 -11.477  0.00  0.00    +0.060 C 
ATOM     21  C   UNL     1       7.728   5.429 -10.050  0.00  0.00    +0.017 C 
ATOM     22  C   UNL     1       7.061   7.283 -11.452  0.00  0.00    +0.017 C 
ENDBRANCH  18  20
ENDBRANCH  17  18
ENDBRANCH  15  17
ENDBRANCH  14  15
ENDBRANCH  13  14
ENDBRANCH   1  13
TORSDOF 6
ENDMDL
MODEL 8
REMARK VINA RESULT:      -6.6      3.417      4.979
REMARK  Name = 
REMARK  6 active torsions:
REMARK  status: ('A' for Active; 'I' for Inactive)
REMARK    1  A    between atoms: C_2  and  N_5
REMARK    2  A    between atoms: N_5  and  C_6
REMARK    3  A    between atoms: C_6  and  C_7
REMARK    4  A    between atoms: C_7  and  C_9
REMARK    5  A    between atoms: C_9  and  O_10
REMARK    6  A    between atoms: O_10  and  C_11
REMARK                            x       y       z     vdW  Elec       q    Type
REMARK                         _______ _______ _______ _____ _____    ______ ____
ROOT
ATOM      1  C   UNL     1       3.253   5.346  -7.132  0.00  0.00    +0.134 A 
ATOM      2  C   UNL     1       2.105   5.790  -6.491  0.00  0.00    +0.011 A 
ATOM      3  C   UNL     1       0.761   5.771  -7.067  0.00  0.00    +0.065 C 
ATOM      4  C   UNL     1      -0.234   4.953  -6.027  0.00  0.00    +0.187 C 
ATOM      5  C   UNL     1       0.739   5.261  -4.593  0.00  0.00    +0.187 C 
ATOM      6  C   UNL     1       0.855   6.900  -4.850  0.00  0.00    +0.062 C 
ATOM      7  O   UNL     1      -0.484   5.417  -3.695  0.00  0.00    -0.220 OA
ATOM      8  O   UNL     1      -1.126   6.180  -5.825  0.00  0.00    -0.220 OA
ATOM      9  C   UNL     1       2.183   6.830  -5.555  0.00  0.00    -0.021 A 
ATOM     10  C   UNL     1       3.377   7.011  -4.889  0.00  0.00    -0.004 A 
ATOM     11  C   UNL     1       4.495   6.391  -5.394  0.00  0.00    +0.003 A 
ATOM     12  C   UNL     1       4.431   5.461  -6.426  0.00  0.00    +0.037 A 
ENDROOT
BRANCH   1  13
ATOM     13  O   UNL     1       3.105   4.580  -8.263  0.00  0.00    -0.473 OA
BRANCH  13  14
ATOM     14  C   UNL     1       4.049   4.738  -9.300  0.00  0.00    +0.239 C 
BRANCH  14  15
ATOM     15  C   UNL     1       3.848   6.352  -9.710  0.00  0.00    +0.213 C 
ATOM     16  O   UNL     1       5.108   6.319 -10.600  0.00  0.00    -0.218 OA
BRANCH  15  17
ATOM     17  C   UNL     1       2.874   5.944 -11.013  0.00  0.00    +0.125 C 
BRANCH  17  18
ATOM     18  N   UNL     1       1.618   6.505 -10.551  0.00  0.00    -0.218 NA
BRANCH  18  20
ATOM     19  C   UNL     1       0.114   5.163 -10.659  0.00  0.00    +0.017 C 
ATOM     20  C   UNL     1       0.469   5.872 -11.151  0.00  0.00    +0.060 C 
ATOM     21  C   UNL     1       0.771   5.317 -12.514  0.00  0.00    +0.017 C 
ATOM     22  C   UNL     1      -0.574   6.956 -11.351  0.00  0.00    +0.017 C 
ENDBRANCH  18  20
ENDBRANCH  17  18
ENDBRANCH  15  17
ENDBRANCH  14  15
ENDBRANCH  13  14
ENDBRANCH   1  13
TORSDOF 6
ENDMDL
MODEL 9
REMARK VINA RESULT:      -6.6      2.389      6.434
REMARK  Name = 
REMARK  6 active torsions:
REMARK  status: ('A' for Active; 'I' for Inactive)
REMARK    1  A    between atoms: C_2  and  N_5
REMARK    2  A    between atoms: N_5  and  C_6
REMARK    3  A    between atoms: C_6  and  C_7
REMARK    4  A    between atoms: C_7  and  C_9
REMARK    5  A    between atoms: C_9  and  O_10
REMARK    6  A    between atoms: O_10  and  C_11
REMARK                            x       y       z     vdW  Elec       q    Type
REMARK                         _______ _______ _______ _____ _____    ______ ____
ROOT
ATOM      1  C   UNL     1       0.212   6.249  -5.345  0.00  0.00    +0.134 A 
ATOM      2  C   UNL     1       1.062   6.096  -6.432  0.00  0.00    +0.011 A 
ATOM      3  C   UNL     1       2.393   6.689  -6.546  0.00  0.00    +0.065 C 
ATOM      4  C   UNL     1       3.473   5.474  -6.863  0.00  0.00    +0.187 C 
ATOM      5  C   UNL     1       2.289   4.386  -7.579  0.00  0.00    +0.187 C 
ATOM      6  C   UNL     1       1.665   5.522  -8.621  0.00  0.00    +0.062 C 
ATOM      7  O   UNL     1       3.274   3.867  -8.622  0.00  0.00    -0.220 OA
ATOM      8  O   UNL     1       3.874   6.101  -8.199  0.00  0.00    -0.220 OA
ATOM      9  C   UNL     1       0.530   5.922  -7.717  0.00  0.00    -0.021 A 
ATOM     10  C   UNL     1      -0.726   5.364  -7.827  0.00  0.00    -0.004 A 
ATOM     11  C   UNL     1      -1.505   5.308  -6.695  0.00  0.00    +0.003 A 
ATOM     12  C   UNL     1      -1.012   5.621  -5.433  0.00  0.00    +0.037 A 
ENDROOT
BRANCH   1  13
ATOM     13  O   UNL     1       0.741   6.745  -4.178  0.00  0.00    -0.473 OA
BRANCH  13  14
ATOM     14  C   UNL     1       1.270   5.826  -3.246  0.00  0.00    +0.239 C 
BRANCH  14  15
ATOM     15  C   UNL     1       0.389   6.184  -1.866  0.00  0.00    +0.213 C 
ATOM     16  O   UNL     1      -0.151   4.740  -1.794  0.00  0.00    -0.218 OA
BRANCH  15  17
ATOM     17  C   UNL     1       1.687   5.785  -0.882  0.00  0.00    +0.125 C 
BRANCH  17  18
ATOM     18  N   UNL     1       2.590   6.865  -1.237  0.00  0.00    -0.218 NA
BRANCH  18  20
ATOM     19  C   UNL     1       4.568   6.899  -1.637  0.00  0.00    +0.017 C 
ATOM     20  C   UNL     1       3.975   6.530  -1.017  0.00  0.00    +0.060 C 
ATOM     21  C   UNL     1       4.215   5.048  -1.048  0.00  0.00    +0.017 C 
ATOM     22  C   UNL     1       4.320   6.990   0.388  0.00  0.00    +0.017 C 
ENDBRANCH  18  20
ENDBRANCH  17  18
ENDBRANCH  15  17
ENDBRANCH  14  15
ENDBRANCH  13  14
ENDBRANCH   1  13
TORSDOF 6
ENDMDL
