MODEL 1
REMARK VINA RESULT:      -7.7      0.000      0.000
REMARK  Name = 
REMARK  3 active torsions:
REMARK  status: ('A' for Active; 'I' for Inactive)
REMARK    1  A    between atoms: C_2  and  C_4
REMARK    2  A    between atoms: C_8  and  C_9
REMARK    3  A    between atoms: C_9  and  C_11
REMARK                            x       y       z     vdW  Elec       q    Type
REMARK                         _______ _______ _______ _____ _____    ______ ____
ROOT
ATOM      1  C   UNL     1      -1.721   6.663  -2.871  0.00  0.00    +0.143 C 
ATOM      2  C   UNL     1      -1.279   5.821  -4.198  0.00  0.00    +0.048 A 
ATOM      3  N   UNL     1      -0.001   5.592  -4.081  0.00  0.00    -0.328 N 
ATOM      4  C   UNL     1       0.545   5.397  -5.276  0.00  0.00    +0.099 A 
ATOM      5  C   UNL     1      -0.376   5.797  -6.210  0.00  0.00    +0.022 A 
ATOM      6  C   UNL     1       0.159   5.143  -2.699  0.00  0.00    +0.107 C 
ATOM      7  C   UNL     1      -1.515   6.193  -5.518  0.00  0.00    +0.015 A 
ATOM      8  C   UNL     1      -0.258   6.450  -2.104  0.00  0.00    +0.042 C 
ENDROOT
BRANCH   1  10
ATOM      9  O   UNL     1      -2.232   5.231  -1.567  0.00  0.00    -0.245 OA
ATOM     10  C   UNL     1      -2.335   5.317  -2.166  0.00  0.00    +0.370 C 
ATOM     11  O   UNL     1      -3.064   4.566  -3.100  0.00  0.00    -0.245 OA
ENDBRANCH   1  10
BRANCH   4  12
ATOM     12  C   UNL     1       1.768   4.642  -5.570  0.00  0.00    +0.211 C 
ATOM     13  O   UNL     1       1.697   3.678  -6.357  0.00  0.00    -0.285 OA
BRANCH  12  14
ATOM     14  C   UNL     1       3.047   5.281  -5.248  0.00  0.00    +0.040 A 
ATOM     15  C   UNL     1       3.890   4.670  -4.330  0.00  0.00    +0.003 A 
ATOM     16  C   UNL     1       4.817   5.429  -3.654  0.00  0.00    +0.000 A 
ATOM     17  C   UNL     1       5.151   6.673  -4.165  0.00  0.00    +0.000 A 
ATOM     18  C   UNL     1       4.166   7.322  -4.883  0.00  0.00    +0.000 A 
ATOM     19  C   UNL     1       3.110   6.650  -5.448  0.00  0.00    +0.003 A 
ENDBRANCH  12  14
ENDBRANCH   4  12
TORSDOF 3
ENDMDL
MODEL 2
REMARK VINA RESULT:      -7.7      2.200      2.660
REMARK  Name = 
REMARK  3 active torsions:
REMARK  status: ('A' for Active; 'I' for Inactive)
REMARK    1  A    between atoms: C_2  and  C_4
REMARK    2  A    between atoms: C_8  and  C_9
REMARK    3  A    between atoms: C_9  and  C_11
REMARK                            x       y       z     vdW  Elec       q    Type
REMARK                         _______ _______ _______ _____ _____    ______ ____
ROOT
ATOM      1  C   UNL     1      -2.492   6.450  -3.749  0.00  0.00    +0.143 C 
ATOM      2  C   UNL     1      -2.001   5.525  -5.002  0.00  0.00    +0.048 A 
ATOM      3  N   UNL     1      -0.699   5.547  -4.990  0.00  0.00    -0.328 N 
ATOM      4  C   UNL     1      -0.220   5.289  -6.202  0.00  0.00    +0.099 A 
ATOM      5  C   UNL     1      -1.271   5.384  -7.078  0.00  0.00    +0.022 A 
ATOM      6  C   UNL     1      -0.348   5.329  -3.587  0.00  0.00    +0.107 C 
ATOM      7  C   UNL     1      -2.407   5.662  -6.326  0.00  0.00    +0.015 A 
ATOM      8  C   UNL     1      -0.959   6.611  -3.115  0.00  0.00    +0.042 C 
ENDROOT
BRANCH   1  10
ATOM      9  O   UNL     1      -3.007   4.625  -3.101  0.00  0.00    -0.245 OA
ATOM     10  C   UNL     1      -2.780   5.125  -2.826  0.00  0.00    +0.370 C 
ATOM     11  O   UNL     1      -2.400   5.364  -1.498  0.00  0.00    -0.245 OA
ENDBRANCH   1  10
BRANCH   4  12
ATOM     12  C   UNL     1       1.098   4.732  -6.526  0.00  0.00    +0.211 C 
ATOM     13  O   UNL     1       1.424   3.642  -6.018  0.00  0.00    -0.285 OA
BRANCH  12  14
ATOM     14  C   UNL     1       1.783   5.268  -7.705  0.00  0.00    +0.040 A 
ATOM     15  C   UNL     1       2.526   4.406  -8.499  0.00  0.00    +0.003 A 
ATOM     16  C   UNL     1       3.537   4.911  -9.284  0.00  0.00    +0.000 A 
ATOM     17  C   UNL     1       3.543   6.268  -9.560  0.00  0.00    +0.000 A 
ATOM     18  C   UNL     1       2.981   7.089  -8.601  0.00  0.00    +0.000 A 
ATOM     19  C   UNL     1       2.087   6.619  -7.670  0.00  0.00    +0.003 A 
ENDBRANCH  12  14
ENDBRANCH   4  12
TORSDOF 3
ENDMDL
MODEL 3
REMARK VINA RESULT:      -7.5      4.038      5.275
REMARK  Name = 
REMARK  3 active torsions:
REMARK  status: ('A' for Active; 'I' for Inactive)
REMARK    1  A    between atoms: C_2  and  C_4
REMARK    2  A    between atoms: C_8  and  C_9
REMARK    3  A    between atoms: C_9  and  C_11
REMARK                            x       y       z     vdW  Elec       q    Type
REMARK                         _______ _______ _______ _____ _____    ______ ____
ROOT
ATOM      1  C   UNL     1       3.271   7.224  -4.706  0.00  0.00    +0.143 C 
ATOM      2  C   UNL     1       2.725   6.676  -6.144  0.00  0.00    +0.048 A 
ATOM      3  N   UNL     1       3.758   6.188  -6.770  0.00  0.00    -0.328 N 
ATOM      4  C   UNL     1       3.553   6.200  -8.082  0.00  0.00    +0.099 A 
ATOM      5  C   UNL     1       2.455   6.989  -8.310  0.00  0.00    +0.022 A 
ATOM      6  C   UNL     1       4.444   5.383  -5.759  0.00  0.00    +0.107 C 
ATOM      7  C   UNL     1       1.986   7.405  -7.069  0.00  0.00    +0.015 A 
ATOM      8  C   UNL     1       4.785   6.553  -4.892  0.00  0.00    +0.042 C 
ENDROOT
BRANCH   1  10
ATOM      9  O   UNL     1       3.088   5.624  -3.515  0.00  0.00    -0.245 OA
ATOM     10  C   UNL     1       2.724   5.884  -3.937  0.00  0.00    +0.370 C 
ATOM     11  O   UNL     1       1.430   5.565  -4.371  0.00  0.00    -0.245 OA
ENDBRANCH   1  10
BRANCH   4  12
ATOM     12  C   UNL     1       4.183   5.327  -9.078  0.00  0.00    +0.211 C 
ATOM     13  O   UNL     1       3.575   4.300  -9.439  0.00  0.00    -0.285 OA
BRANCH  12  14
ATOM     14  C   UNL     1       5.279   5.892  -9.871  0.00  0.00    +0.040 A 
ATOM     15  C   UNL     1       6.586   5.687  -9.451  0.00  0.00    +0.003 A 
ATOM     16  C   UNL     1       7.570   6.562  -9.851  0.00  0.00    +0.000 A 
ATOM     17  C   UNL     1       7.324   7.377 -10.943  0.00  0.00    +0.000 A 
ATOM     18  C   UNL     1       6.005   7.726 -11.160  0.00  0.00    +0.000 A 
ATOM     19  C   UNL     1       4.962   6.994 -10.648  0.00  0.00    +0.003 A 
ENDBRANCH  12  14
ENDBRANCH   4  12
TORSDOF 3
ENDMDL
MODEL 4
REMARK VINA RESULT:      -7.3      6.171      9.472
REMARK  Name = 
REMARK  3 active torsions:
REMARK  status: ('A' for Active; 'I' for Inactive)
REMARK    1  A    between atoms: C_2  and  C_4
REMARK    2  A    between atoms: C_8  and  C_9
REMARK    3  A    between atoms: C_9  and  C_11
REMARK                            x       y       z     vdW  Elec       q    Type
REMARK                         _______ _______ _______ _____ _____    ______ ____
ROOT
ATOM      1  C   UNL     1       7.669   6.732 -10.814  0.00  0.00    +0.143 C 
ATOM      2  C   UNL     1       6.430   5.837 -10.242  0.00  0.00    +0.048 A 
ATOM      3  N   UNL     1       5.392   6.623 -10.203  0.00  0.00    -0.328 N 
ATOM      4  C   UNL     1       4.514   6.188  -9.307  0.00  0.00    +0.099 A 
ATOM      5  C   UNL     1       5.151   5.240  -8.547  0.00  0.00    +0.022 A 
ATOM      6  C   UNL     1       5.415   7.314 -11.492  0.00  0.00    +0.107 C 
ATOM      7  C   UNL     1       6.433   5.096  -9.064  0.00  0.00    +0.015 A 
ATOM      8  C   UNL     1       6.701   8.027 -11.217  0.00  0.00    +0.042 C 
ENDROOT
BRANCH   1  10
ATOM      9  O   UNL     1       7.424   6.471 -12.785  0.00  0.00    -0.245 OA
ATOM     10  C   UNL     1       7.502   6.087 -12.312  0.00  0.00    +0.370 C 
ATOM     11  O   UNL     1       7.610   4.690 -12.256  0.00  0.00    -0.245 OA
ENDBRANCH   1  10
BRANCH   4  12
ATOM     12  C   UNL     1       3.070   6.444  -9.295  0.00  0.00    +0.211 C 
ATOM     13  O   UNL     1       2.650   7.464  -8.715  0.00  0.00    -0.285 OA
BRANCH  12  14
ATOM     14  C   UNL     1       2.251   5.725 -10.277  0.00  0.00    +0.040 A 
ATOM     15  C   UNL     1       2.019   6.310 -11.513  0.00  0.00    +0.003 A 
ATOM     16  C   UNL     1       0.914   5.934 -12.242  0.00  0.00    +0.000 A 
ATOM     17  C   UNL     1       0.287   4.740 -11.924  0.00  0.00    +0.000 A 
ATOM     18  C   UNL     1       0.374   4.339 -10.604  0.00  0.00    +0.000 A 
ATOM     19  C   UNL     1       1.354   4.804  -9.762  0.00  0.00    +0.003 A 
ENDBRANCH  12  14
ENDBRANCH   4  12
TORSDOF 3
ENDMDL
MODEL 5
REMARK VINA RESULT:      -7.3      5.744      8.959
REMARK  Name = 
REMARK  3 active torsions:
REMARK  status: ('A' for Active; 'I' for Inactive)
REMARK    1  A    between atoms: C_2  and  C_4
REMARK    2  A    between atoms: C_8  and  C_9
REMARK    3  A    between atoms: C_9  and  C_11
REMARK                            x       y       z     vdW  Elec       q    Type
REMARK                         _______ _______ _______ _____ _____    ______ ____
ROOT
ATOM      1  C   UNL     1       7.666   6.849 -10.791  0.00  0.00    +0.143 C 
ATOM      2  C   UNL     1       6.436   5.867 -10.356  0.00  0.00    +0.048 A 
ATOM      3  N   UNL     1       5.337   6.534 -10.569  0.00  0.00    -0.328 N 
ATOM      4  C   UNL     1       4.359   6.073  -9.798  0.00  0.00    +0.099 A 
ATOM      5  C   UNL     1       4.937   5.262  -8.855  0.00  0.00    +0.022 A 
ATOM      6  C   UNL     1       5.525   7.123 -11.894  0.00  0.00    +0.107 C 
ATOM      7  C   UNL     1       6.299   5.223  -9.130  0.00  0.00    +0.015 A 
ATOM      8  C   UNL     1       6.666   7.994 -11.473  0.00  0.00    +0.042 C 
ENDROOT
BRANCH   1  10
ATOM      9  O   UNL     1       7.930   6.418 -12.729  0.00  0.00    -0.245 OA
ATOM     10  C   UNL     1       7.833   6.077 -12.227  0.00  0.00    +0.370 C 
ATOM     11  O   UNL     1       7.758   4.689 -12.047  0.00  0.00    -0.245 OA
ENDBRANCH   1  10
BRANCH   4  12
ATOM     12  C   UNL     1       2.918   6.166 -10.058  0.00  0.00    +0.211 C 
ATOM     13  O   UNL     1       2.472   5.691 -11.121  0.00  0.00    -0.285 OA
BRANCH  12  14
ATOM     14  C   UNL     1       2.045   6.446  -8.914  0.00  0.00    +0.040 A 
ATOM     15  C   UNL     1       2.411   7.440  -8.018  0.00  0.00    +0.003 A 
ATOM     16  C   UNL     1       1.920   7.407  -6.733  0.00  0.00    +0.000 A 
ATOM     17  C   UNL     1       0.800   6.634  -6.474  0.00  0.00    +0.000 A 
ATOM     18  C   UNL     1       0.630   5.519  -7.273  0.00  0.00    +0.000 A 
ATOM     19  C   UNL     1       1.228   5.404  -8.504  0.00  0.00    +0.003 A 
ENDBRANCH  12  14
ENDBRANCH   4  12
TORSDOF 3
ENDMDL
MODEL 6
REMARK VINA RESULT:      -7.2      4.307      5.714
REMARK  Name = 
REMARK  3 active torsions:
REMARK  status: ('A' for Active; 'I' for Inactive)
REMARK    1  A    between atoms: C_2  and  C_4
REMARK    2  A    between atoms: C_8  and  C_9
REMARK    3  A    between atoms: C_9  and  C_11
REMARK                            x       y       z     vdW  Elec       q    Type
REMARK                         _______ _______ _______ _____ _____    ______ ____
ROOT
ATOM      1  C   UNL     1       1.568   5.890  -5.856  0.00  0.00    +0.143 C 
ATOM      2  C   UNL     1       2.580   5.169  -6.915  0.00  0.00    +0.048 A 
ATOM      3  N   UNL     1       2.640   5.947  -7.958  0.00  0.00    -0.328 N 
ATOM      4  C   UNL     1       2.984   5.252  -9.035  0.00  0.00    +0.099 A 
ATOM      5  C   UNL     1       2.864   3.924  -8.713  0.00  0.00    +0.022 A 
ATOM      6  C   UNL     1       2.812   7.287  -7.397  0.00  0.00    +0.107 C 
ATOM      7  C   UNL     1       2.480   3.860  -7.378  0.00  0.00    +0.015 A 
ATOM      8  C   UNL     1       1.474   7.306  -6.729  0.00  0.00    +0.042 C 
ENDROOT
BRANCH   1  10
ATOM      9  O   UNL     1       2.798   7.047  -4.779  0.00  0.00    -0.245 OA
ATOM     10  C   UNL     1       2.825   6.466  -4.977  0.00  0.00    +0.370 C 
ATOM     11  O   UNL     1       3.787   5.463  -4.785  0.00  0.00    -0.245 OA
ENDBRANCH   1  10
BRANCH   4  12
ATOM     12  C   UNL     1       3.638   5.768 -10.242  0.00  0.00    +0.211 C 
ATOM     13  O   UNL     1       2.937   6.000 -11.247  0.00  0.00    -0.285 OA
BRANCH  12  14
ATOM     14  C   UNL     1       4.976   6.347 -10.088  0.00  0.00    +0.040 A 
ATOM     15  C   UNL     1       5.373   7.359 -10.950  0.00  0.00    +0.003 A 
ATOM     16  C   UNL     1       6.715   7.579 -11.162  0.00  0.00    +0.000 A 
ATOM     17  C   UNL     1       7.621   7.067 -10.248  0.00  0.00    +0.000 A 
ATOM     18  C   UNL     1       7.238   5.914  -9.590  0.00  0.00    +0.000 A 
ATOM     19  C   UNL     1       5.922   5.536  -9.482  0.00  0.00    +0.003 A 
ENDBRANCH  12  14
ENDBRANCH   4  12
TORSDOF 3
ENDMDL
MODEL 7
REMARK VINA RESULT:      -7.2      1.545      2.439
REMARK  Name = 
REMARK  3 active torsions:
REMARK  status: ('A' for Active; 'I' for Inactive)
REMARK    1  A    between atoms: C_2  and  C_4
REMARK    2  A    between atoms: C_8  and  C_9
REMARK    3  A    between atoms: C_9  and  C_11
REMARK                            x       y       z     vdW  Elec       q    Type
REMARK                         _______ _______ _______ _____ _____    ______ ____
ROOT
ATOM      1  C   UNL     1      -2.588   6.003  -4.446  0.00  0.00    +0.143 C 
ATOM      2  C   UNL     1      -0.989   6.066  -4.124  0.00  0.00    +0.048 A 
ATOM      3  N   UNL     1      -0.392   5.423  -5.087  0.00  0.00    -0.328 N 
ATOM      4  C   UNL     1       0.789   4.972  -4.680  0.00  0.00    +0.099 A 
ATOM      5  C   UNL     1       0.818   5.095  -3.314  0.00  0.00    +0.022 A 
ATOM      6  C   UNL     1      -1.032   5.922  -6.303  0.00  0.00    +0.107 C 
ATOM      7  C   UNL     1      -0.380   5.686  -2.931  0.00  0.00    +0.015 A 
ATOM      8  C   UNL     1      -2.375   5.356  -5.967  0.00  0.00    +0.042 C 
ENDROOT
BRANCH   1  10
ATOM      9  O   UNL     1      -2.884   7.638  -5.564  0.00  0.00    -0.245 OA
ATOM     10  C   UNL     1      -2.573   7.528  -5.046  0.00  0.00    +0.370 C 
ATOM     11  O   UNL     1      -1.840   8.376  -4.205  0.00  0.00    -0.245 OA
ENDBRANCH   1  10
BRANCH   4  12
ATOM     12  C   UNL     1       1.951   4.668  -5.522  0.00  0.00    +0.211 C 
ATOM     13  O   UNL     1       1.762   4.095  -6.613  0.00  0.00    -0.285 OA
BRANCH  12  14
ATOM     14  C   UNL     1       3.196   5.386  -5.235  0.00  0.00    +0.040 A 
ATOM     15  C   UNL     1       4.141   4.789  -4.412  0.00  0.00    +0.003 A 
ATOM     16  C   UNL     1       5.050   5.577  -3.744  0.00  0.00    +0.000 A 
ATOM     17  C   UNL     1       5.255   6.872  -4.190  0.00  0.00    +0.000 A 
ATOM     18  C   UNL     1       4.179   7.484  -4.803  0.00  0.00    +0.000 A 
ATOM     19  C   UNL     1       3.142   6.766  -5.347  0.00  0.00    +0.003 A 
ENDBRANCH  12  14
ENDBRANCH   4  12
TORSDOF 3
ENDMDL
MODEL 8
REMARK VINA RESULT:      -7.1      6.147      7.472
REMARK  Name = 
REMARK  3 active torsions:
REMARK  status: ('A' for Active; 'I' for Inactive)
REMARK    1  A    between atoms: C_2  and  C_4
REMARK    2  A    between atoms: C_8  and  C_9
REMARK    3  A    between atoms: C_9  and  C_11
REMARK                            x       y       z     vdW  Elec       q    Type
REMARK                         _______ _______ _______ _____ _____    ______ ____
ROOT
ATOM      1  C   UNL     1       0.929   6.694 -10.046  0.00  0.00    +0.143 C 
ATOM      2  C   UNL     1       1.579   5.939 -11.339  0.00  0.00    +0.048 A 
ATOM      3  N   UNL     1       2.868   5.918 -11.145  0.00  0.00    -0.328 N 
ATOM      4  C   UNL     1       3.509   5.818 -12.304  0.00  0.00    +0.099 A 
ATOM      5  C   UNL     1       2.593   6.068 -13.294  0.00  0.00    +0.022 A 
ATOM      6  C   UNL     1       3.016   5.495  -9.753  0.00  0.00    +0.107 C 
ATOM      7  C   UNL     1       1.366   6.273 -12.673  0.00  0.00    +0.015 A 
ATOM      8  C   UNL     1       2.359   6.717  -9.192  0.00  0.00    +0.042 C 
ENDROOT
BRANCH   1  10
ATOM      9  O   UNL     1       0.595   5.187  -8.769  0.00  0.00    -0.245 OA
ATOM     10  C   UNL     1       0.499   5.264  -9.371  0.00  0.00    +0.370 C 
ATOM     11  O   UNL     1      -0.082   4.425 -10.332  0.00  0.00    -0.245 OA
ENDBRANCH   1  10
BRANCH   4  12
ATOM     12  C   UNL     1       4.852   5.270 -12.520  0.00  0.00    +0.211 C 
ATOM     13  O   UNL     1       5.030   4.486 -13.473  0.00  0.00    -0.285 OA
BRANCH  12  14
ATOM     14  C   UNL     1       5.972   5.960 -11.872  0.00  0.00    +0.040 A 
ATOM     15  C   UNL     1       6.597   5.355 -10.791  0.00  0.00    +0.003 A 
ATOM     16  C   UNL     1       7.281   6.131  -9.884  0.00  0.00    +0.000 A 
ATOM     17  C   UNL     1       7.657   7.410 -10.260  0.00  0.00    +0.000 A 
ATOM     18  C   UNL     1       6.842   8.038 -11.183  0.00  0.00    +0.000 A 
ATOM     19  C   UNL     1       6.000   7.338 -12.012  0.00  0.00    +0.003 A 
ENDBRANCH  12  14
ENDBRANCH   4  12
TORSDOF 3
ENDMDL
MODEL 9
REMARK VINA RESULT:      -7.0      2.466      6.183
REMARK  Name = 
REMARK  3 active torsions:
REMARK  status: ('A' for Active; 'I' for Inactive)
REMARK    1  A    between atoms: C_2  and  C_4
REMARK    2  A    between atoms: C_8  and  C_9
REMARK    3  A    between atoms: C_9  and  C_11
REMARK                            x       y       z     vdW  Elec       q    Type
REMARK                         _______ _______ _______ _____ _____    ______ ____
ROOT
ATOM      1  C   UNL     1       3.549   6.320  -7.035  0.00  0.00    +0.143 C 
ATOM      2  C   UNL     1       2.323   5.412  -6.454  0.00  0.00    +0.048 A 
ATOM      3  N   UNL     1       1.225   6.067  -6.706  0.00  0.00    -0.328 N 
ATOM      4  C   UNL     1       0.267   5.711  -5.858  0.00  0.00    +0.099 A 
ATOM      5  C   UNL     1       0.867   5.004  -4.848  0.00  0.00    +0.022 A 
ATOM      6  C   UNL     1       1.376   6.499  -8.096  0.00  0.00    +0.107 C 
ATOM      7  C   UNL     1       2.219   4.913  -5.159  0.00  0.00    +0.015 A 
ATOM      8  C   UNL     1       2.540   7.395  -7.812  0.00  0.00    +0.042 C 
ENDROOT
BRANCH   1  10
ATOM      9  O   UNL     1       3.487   4.800  -8.339  0.00  0.00    -0.245 OA
ATOM     10  C   UNL     1       3.660   5.388  -8.379  0.00  0.00    +0.370 C 
ATOM     11  O   UNL     1       4.124   6.147  -9.463  0.00  0.00    -0.245 OA
ENDBRANCH   1  10
BRANCH   4  12
ATOM     12  C   UNL     1      -1.180   5.796  -6.081  0.00  0.00    +0.211 C 
ATOM     13  O   UNL     1      -1.669   5.189  -7.054  0.00  0.00    -0.285 OA
BRANCH  12  14
ATOM     14  C   UNL     1      -2.008   6.247  -4.959  0.00  0.00    +0.040 A 
ATOM     15  C   UNL     1      -1.657   7.411  -4.291  0.00  0.00    +0.003 A 
ATOM     16  C   UNL     1      -2.079   7.601  -2.995  0.00  0.00    +0.000 A 
ATOM     17  C   UNL     1      -3.136   6.839  -2.527  0.00  0.00    +0.000 A 
ATOM     18  C   UNL     1      -3.281   5.585  -3.090  0.00  0.00    +0.000 A 
ATOM     19  C   UNL     1      -2.740   5.266  -4.311  0.00  0.00    +0.003 A 
ENDBRANCH  12  14
ENDBRANCH   4  12
TORSDOF 3
ENDMDL
