MODEL 1
REMARK VINA RESULT:      -5.7      0.000      0.000
REMARK  Name = 
REMARK  1 active torsions:
REMARK  status: ('A' for Active; 'I' for Inactive)
REMARK    1  A    between atoms: C_4  and  C_5
REMARK                            x       y       z     vdW  Elec       q    Type
REMARK                         _______ _______ _______ _____ _____    ______ ____
ROOT
ATOM      1  C   UNL     1      -1.744   6.340  -4.397  0.00  0.00    -0.021 A 
ATOM      2  C   UNL     1      -2.575   6.617  -5.482  0.00  0.00    -0.004 A 
ATOM      3  C   UNL     1      -2.439   5.654  -6.477  0.00  0.00    -0.000 A 
ATOM      4  C   UNL     1      -1.134   5.295  -6.790  0.00  0.00    -0.000 A 
ATOM      5  C   UNL     1      -0.119   5.573  -5.881  0.00  0.00    -0.000 A 
ATOM      6  C   UNL     1      -0.415   6.400  -4.801  0.00  0.00    -0.004 A 
ENDROOT
BRANCH   1   9
ATOM      7  N   UNL     1      -2.793   4.915  -2.815  0.00  0.00    -0.133 NA
ATOM      8  C   UNL     1      -2.943   6.320  -2.088  0.00  0.00    +0.096 C 
ATOM      9  C   UNL     1      -2.149   7.372  -3.220  0.00  0.00    +0.041 C 
ATOM     10  C   UNL     1      -1.256   6.626  -1.955  0.00  0.00    +0.025 C 
ENDBRANCH   1   9
TORSDOF 1
ENDMDL
MODEL 2
REMARK VINA RESULT:      -5.6      9.415     11.490
REMARK  Name = 
REMARK  1 active torsions:
REMARK  status: ('A' for Active; 'I' for Inactive)
REMARK    1  A    between atoms: C_4  and  C_5
REMARK                            x       y       z     vdW  Elec       q    Type
REMARK                         _______ _______ _______ _____ _____    ______ ____
ROOT
ATOM      1  C   UNL     1       6.382   6.201 -11.438  0.00  0.00    -0.021 A 
ATOM      2  C   UNL     1       7.295   6.705 -10.512  0.00  0.00    -0.004 A 
ATOM      3  C   UNL     1       7.380   5.882  -9.394  0.00  0.00    -0.000 A 
ATOM      4  C   UNL     1       6.167   5.447  -8.874  0.00  0.00    -0.000 A 
ATOM      5  C   UNL     1       5.031   5.496  -9.675  0.00  0.00    -0.000 A 
ATOM      6  C   UNL     1       5.110   6.189 -10.880  0.00  0.00    -0.004 A 
ENDROOT
BRANCH   1   9
ATOM      7  N   UNL     1       7.555   4.735 -12.891  0.00  0.00    -0.133 NA
ATOM      8  C   UNL     1       7.420   6.020 -13.817  0.00  0.00    +0.096 C 
ATOM      9  C   UNL     1       6.534   7.094 -12.779  0.00  0.00    +0.041 C 
ATOM     10  C   UNL     1       5.701   6.033 -13.845  0.00  0.00    +0.025 C 
ENDBRANCH   1   9
TORSDOF 1
ENDMDL
MODEL 3
REMARK VINA RESULT:      -5.1      9.102     10.777
REMARK  Name = 
REMARK  1 active torsions:
REMARK  status: ('A' for Active; 'I' for Inactive)
REMARK    1  A    between atoms: C_4  and  C_5
REMARK                            x       y       z     vdW  Elec       q    Type
REMARK                         _______ _______ _______ _____ _____    ______ ____
ROOT
ATOM      1  C   UNL     1       6.276   6.467 -11.247  0.00  0.00    -0.021 A 
ATOM      2  C   UNL     1       6.753   7.087 -12.402  0.00  0.00    -0.004 A 
ATOM      3  C   UNL     1       7.655   6.268 -13.074  0.00  0.00    -0.000 A 
ATOM      4  C   UNL     1       8.611   5.649 -12.280  0.00  0.00    -0.000 A 
ATOM      5  C   UNL     1       8.388   5.540 -10.912  0.00  0.00    -0.000 A 
ATOM      6  C   UNL     1       7.327   6.257 -10.363  0.00  0.00    -0.004 A 
ENDROOT
BRANCH   1   9
ATOM      7  N   UNL     1       4.349   5.194 -11.799  0.00  0.00    -0.133 NA
ATOM      8  C   UNL     1       3.677   6.464 -11.119  0.00  0.00    +0.096 C 
ATOM      9  C   UNL     1       5.077   7.393 -10.679  0.00  0.00    +0.041 C 
ATOM     10  C   UNL     1       4.416   6.247  -9.582  0.00  0.00    +0.025 C 
ENDBRANCH   1   9
TORSDOF 1
ENDMDL
MODEL 4
REMARK VINA RESULT:      -5.0      1.336      2.162
REMARK  Name = 
REMARK  1 active torsions:
REMARK  status: ('A' for Active; 'I' for Inactive)
REMARK    1  A    between atoms: C_4  and  C_5
REMARK                            x       y       z     vdW  Elec       q    Type
REMARK                         _______ _______ _______ _____ _____    ______ ____
ROOT
ATOM      1  C   UNL     1      -1.774   5.890  -4.291  0.00  0.00    -0.021 A 
ATOM      2  C   UNL     1      -0.459   5.471  -4.492  0.00  0.00    -0.004 A 
ATOM      3  C   UNL     1       0.016   5.889  -5.731  0.00  0.00    -0.000 A 
ATOM      4  C   UNL     1      -0.850   5.703  -6.801  0.00  0.00    -0.000 A 
ATOM      5  C   UNL     1      -2.205   5.516  -6.550  0.00  0.00    -0.000 A 
ATOM      6  C   UNL     1      -2.603   5.295  -5.234  0.00  0.00    -0.004 A 
ENDROOT
BRANCH   1   9
ATOM      7  N   UNL     1      -1.996   8.058  -3.348  0.00  0.00    -0.133 NA
ATOM      8  C   UNL     1      -2.267   7.152  -2.070  0.00  0.00    +0.096 C 
ATOM      9  C   UNL     1      -2.141   5.559  -2.750  0.00  0.00    +0.041 C 
ATOM     10  C   UNL     1      -3.658   6.367  -2.708  0.00  0.00    +0.025 C 
ENDBRANCH   1   9
TORSDOF 1
ENDMDL
MODEL 5
REMARK VINA RESULT:      -5.0      1.915      3.652
REMARK  Name = 
REMARK  1 active torsions:
REMARK  status: ('A' for Active; 'I' for Inactive)
REMARK    1  A    between atoms: C_4  and  C_5
REMARK                            x       y       z     vdW  Elec       q    Type
REMARK                         _______ _______ _______ _____ _____    ______ ____
ROOT
ATOM      1  C   UNL     1      -0.207   6.017  -5.610  0.00  0.00    -0.021 A 
ATOM      2  C   UNL     1      -0.464   7.339  -5.250  0.00  0.00    -0.004 A 
ATOM      3  C   UNL     1      -1.704   7.458  -4.631  0.00  0.00    -0.000 A 
ATOM      4  C   UNL     1      -2.750   6.784  -5.248  0.00  0.00    -0.000 A 
ATOM      5  C   UNL     1      -2.461   5.758  -6.141  0.00  0.00    -0.000 A 
ATOM      6  C   UNL     1      -1.140   5.601  -6.552  0.00  0.00    -0.004 A 
ENDROOT
BRANCH   1   9
ATOM      7  N   UNL     1       0.872   5.000  -3.756  0.00  0.00    -0.133 NA
ATOM      8  C   UNL     1       2.112   5.240  -4.721  0.00  0.00    +0.096 C 
ATOM      9  C   UNL     1       1.334   5.955  -6.099  0.00  0.00    +0.041 C 
ATOM     10  C   UNL     1       1.528   4.250  -6.000  0.00  0.00    +0.025 C 
ENDBRANCH   1   9
TORSDOF 1
ENDMDL
MODEL 6
REMARK VINA RESULT:      -4.9      7.895      9.604
REMARK  Name = 
REMARK  1 active torsions:
REMARK  status: ('A' for Active; 'I' for Inactive)
REMARK    1  A    between atoms: C_4  and  C_5
REMARK                            x       y       z     vdW  Elec       q    Type
REMARK                         _______ _______ _______ _____ _____    ______ ____
ROOT
ATOM      1  C   UNL     1       5.215   6.166 -10.657  0.00  0.00    -0.021 A 
ATOM      2  C   UNL     1       5.678   5.387 -11.718  0.00  0.00    -0.004 A 
ATOM      3  C   UNL     1       7.061   5.478 -11.840  0.00  0.00    -0.000 A 
ATOM      4  C   UNL     1       7.587   6.761 -11.755  0.00  0.00    -0.000 A 
ATOM      5  C   UNL     1       6.826   7.769 -11.174  0.00  0.00    -0.000 A 
ATOM      6  C   UNL     1       5.484   7.505 -10.910  0.00  0.00    -0.004 A 
ENDROOT
BRANCH   1   9
ATOM      7  N   UNL     1       5.220   5.010  -8.583  0.00  0.00    -0.133 NA
ATOM      8  C   UNL     1       3.677   4.935  -8.957  0.00  0.00    +0.096 C 
ATOM      9  C   UNL     1       3.650   5.806 -10.459  0.00  0.00    +0.041 C 
ATOM     10  C   UNL     1       3.421   6.635  -8.971  0.00  0.00    +0.025 C 
ENDBRANCH   1   9
TORSDOF 1
ENDMDL
MODEL 7
REMARK VINA RESULT:      -4.9      1.652      3.708
REMARK  Name = 
REMARK  1 active torsions:
REMARK  status: ('A' for Active; 'I' for Inactive)
REMARK    1  A    between atoms: C_4  and  C_5
REMARK                            x       y       z     vdW  Elec       q    Type
REMARK                         _______ _______ _______ _____ _____    ______ ____
ROOT
ATOM      1  C   UNL     1      -1.362   6.323  -4.352  0.00  0.00    -0.021 A 
ATOM      2  C   UNL     1      -1.773   7.556  -3.848  0.00  0.00    -0.004 A 
ATOM      3  C   UNL     1      -2.370   7.413  -2.599  0.00  0.00    -0.000 A 
ATOM      4  C   UNL     1      -3.287   6.376  -2.487  0.00  0.00    -0.000 A 
ATOM      5  C   UNL     1      -3.260   5.344  -3.419  0.00  0.00    -0.000 A 
ATOM      6  C   UNL     1      -2.469   5.508  -4.554  0.00  0.00    -0.004 A 
ENDROOT
BRANCH   1   9
ATOM      7  N   UNL     1       0.837   5.779  -3.639  0.00  0.00    -0.133 NA
ATOM      8  C   UNL     1       1.121   6.256  -5.128  0.00  0.00    +0.096 C 
ATOM      9  C   UNL     1      -0.484   6.627  -5.677  0.00  0.00    +0.041 C 
ATOM     10  C   UNL     1       0.159   5.047  -5.882  0.00  0.00    +0.025 C 
ENDBRANCH   1   9
TORSDOF 1
ENDMDL
MODEL 8
REMARK VINA RESULT:      -4.8      2.579      4.085
REMARK  Name = 
REMARK  1 active torsions:
REMARK  status: ('A' for Active; 'I' for Inactive)
REMARK    1  A    between atoms: C_4  and  C_5
REMARK                            x       y       z     vdW  Elec       q    Type
REMARK                         _______ _______ _______ _____ _____    ______ ____
ROOT
ATOM      1  C   UNL     1      -0.294   5.825  -5.868  0.00  0.00    -0.021 A 
ATOM      2  C   UNL     1      -1.530   5.198  -6.028  0.00  0.00    -0.004 A 
ATOM      3  C   UNL     1      -2.540   6.130  -6.246  0.00  0.00    -0.000 A 
ATOM      4  C   UNL     1      -2.526   7.237  -5.407  0.00  0.00    -0.000 A 
ATOM      5  C   UNL     1      -1.357   7.556  -4.725  0.00  0.00    -0.000 A 
ATOM      6  C   UNL     1      -0.321   6.625  -4.732  0.00  0.00    -0.004 A 
ENDROOT
BRANCH   1   9
ATOM      7  N   UNL     1       0.772   6.129  -7.967  0.00  0.00    -0.133 NA
ATOM      8  C   UNL     1       1.573   4.874  -7.411  0.00  0.00    +0.096 C 
ATOM      9  C   UNL     1       0.826   4.657  -5.858  0.00  0.00    +0.041 C 
ATOM     10  C   UNL     1       2.203   5.673  -6.025  0.00  0.00    +0.025 C 
ENDBRANCH   1   9
TORSDOF 1
ENDMDL
MODEL 9
REMARK VINA RESULT:      -4.8      7.736      9.724
REMARK  Name = 
REMARK  1 active torsions:
REMARK  status: ('A' for Active; 'I' for Inactive)
REMARK    1  A    between atoms: C_4  and  C_5
REMARK                            x       y       z     vdW  Elec       q    Type
REMARK                         _______ _______ _______ _____ _____    ______ ____
ROOT
ATOM      1  C   UNL     1       5.546   5.809  -9.980  0.00  0.00    -0.021 A 
ATOM      2  C   UNL     1       4.420   5.142 -10.463  0.00  0.00    -0.004 A 
ATOM      3  C   UNL     1       3.306   5.404  -9.673  0.00  0.00    -0.000 A 
ATOM      4  C   UNL     1       3.511   5.330  -8.301  0.00  0.00    -0.000 A 
ATOM      5  C   UNL     1       4.808   5.412  -7.805  0.00  0.00    -0.000 A 
ATOM      6  C   UNL     1       5.861   5.333  -8.713  0.00  0.00    -0.004 A 
ENDROOT
BRANCH   1   9
ATOM      7  N   UNL     1       5.607   7.949 -11.004  0.00  0.00    -0.133 NA
ATOM      8  C   UNL     1       6.718   7.189 -11.848  0.00  0.00    +0.096 C 
ATOM      9  C   UNL     1       6.710   5.627 -11.089  0.00  0.00    +0.041 C 
ATOM     10  C   UNL     1       7.755   6.865 -10.515  0.00  0.00    +0.025 C 
ENDBRANCH   1   9
TORSDOF 1
ENDMDL
