MODEL 1
REMARK VINA RESULT:      -3.5      0.000      0.000
REMARK  Name = 
REMARK  1 active torsions:
REMARK  status: ('A' for Active; 'I' for Inactive)
REMARK    1  A    between atoms: C_2  and  C_4
REMARK                            x       y       z     vdW  Elec       q    Type
REMARK                         _______ _______ _______ _____ _____    ______ ____
ROOT
ATOM      1  C   UNL     1       7.068   7.390 -11.237  0.00  0.00    +0.048 C 
ATOM      2  C   UNL     1       7.239   5.776 -10.792  0.00  0.00    +0.254 C 
ATOM      3  O   UNL     1       5.896   5.384 -11.457  0.00  0.00    -0.211 OA
ENDROOT
BRANCH   2   4
ATOM      4  C   UNL     1       8.116   5.444 -12.139  0.00  0.00    +0.395 C 
ATOM      5  O   UNL     1       9.402   5.896 -12.159  0.00  0.00    -0.243 OA
ATOM      6  O   UNL     1       7.661   4.605 -12.891  0.00  0.00    -0.243 OA
ENDBRANCH   2   4
TORSDOF 1
ENDMDL
MODEL 2
REMARK VINA RESULT:      -3.4      1.118      1.710
REMARK  Name = 
REMARK  1 active torsions:
REMARK  status: ('A' for Active; 'I' for Inactive)
REMARK    1  A    between atoms: C_2  and  C_4
REMARK                            x       y       z     vdW  Elec       q    Type
REMARK                         _______ _______ _______ _____ _____    ______ ____
ROOT
ATOM      1  C   UNL     1       6.727   7.704 -11.229  0.00  0.00    +0.048 C 
ATOM      2  C   UNL     1       7.857   6.475 -11.023  0.00  0.00    +0.254 C 
ATOM      3  O   UNL     1       7.173   5.975  -9.726  0.00  0.00    -0.211 OA
ENDROOT
BRANCH   2   4
ATOM      4  C   UNL     1       7.002   5.457 -11.984  0.00  0.00    +0.395 C 
ATOM      5  O   UNL     1       7.722   4.592 -12.754  0.00  0.00    -0.243 OA
ATOM      6  O   UNL     1       5.814   5.356 -11.748  0.00  0.00    -0.243 OA
ENDBRANCH   2   4
TORSDOF 1
ENDMDL
MODEL 3
REMARK VINA RESULT:      -3.3      1.843      2.632
REMARK  Name = 
REMARK  1 active torsions:
REMARK  status: ('A' for Active; 'I' for Inactive)
REMARK    1  A    between atoms: C_2  and  C_4
REMARK                            x       y       z     vdW  Elec       q    Type
REMARK                         _______ _______ _______ _____ _____    ______ ____
ROOT
ATOM      1  C   UNL     1       7.484   6.646 -11.527  0.00  0.00    +0.048 C 
ATOM      2  C   UNL     1       8.166   5.969 -12.908  0.00  0.00    +0.254 C 
ATOM      3  O   UNL     1       7.860   4.527 -12.432  0.00  0.00    -0.211 OA
ENDROOT
BRANCH   2   4
ATOM      4  C   UNL     1       6.753   6.102 -13.733  0.00  0.00    +0.395 C 
ATOM      5  O   UNL     1       5.929   5.017 -13.712  0.00  0.00    -0.243 OA
ATOM      6  O   UNL     1       6.423   7.223 -14.068  0.00  0.00    -0.243 OA
ENDBRANCH   2   4
TORSDOF 1
ENDMDL
MODEL 4
REMARK VINA RESULT:      -3.3     11.991     13.281
REMARK  Name = 
REMARK  1 active torsions:
REMARK  status: ('A' for Active; 'I' for Inactive)
REMARK    1  A    between atoms: C_2  and  C_4
REMARK                            x       y       z     vdW  Elec       q    Type
REMARK                         _______ _______ _______ _____ _____    ______ ____
ROOT
ATOM      1  C   UNL     1      -2.097   7.540  -4.250  0.00  0.00    +0.048 C 
ATOM      2  C   UNL     1      -2.450   5.922  -4.550  0.00  0.00    +0.254 C 
ATOM      3  O   UNL     1      -1.005   5.477  -4.213  0.00  0.00    -0.211 OA
ENDROOT
BRANCH   2   4
ATOM      4  C   UNL     1      -2.982   5.700  -3.014  0.00  0.00    +0.395 C 
ATOM      5  O   UNL     1      -3.964   6.539  -2.579  0.00  0.00    -0.243 OA
ATOM      6  O   UNL     1      -2.668   4.657  -2.476  0.00  0.00    -0.243 OA
ENDBRANCH   2   4
TORSDOF 1
ENDMDL
MODEL 5
REMARK VINA RESULT:      -3.3      1.628      2.923
REMARK  Name = 
REMARK  1 active torsions:
REMARK  status: ('A' for Active; 'I' for Inactive)
REMARK    1  A    between atoms: C_2  and  C_4
REMARK                            x       y       z     vdW  Elec       q    Type
REMARK                         _______ _______ _______ _____ _____    ______ ____
ROOT
ATOM      1  C   UNL     1       7.427   6.726 -11.948  0.00  0.00    +0.048 C 
ATOM      2  C   UNL     1       7.113   5.724 -13.263  0.00  0.00    +0.254 C 
ATOM      3  O   UNL     1       7.817   4.517 -12.593  0.00  0.00    -0.211 OA
ENDROOT
BRANCH   2   4
ATOM      4  C   UNL     1       5.638   5.320 -12.669  0.00  0.00    +0.395 C 
ATOM      5  O   UNL     1       4.827   4.594 -13.489  0.00  0.00    -0.243 OA
ATOM      6  O   UNL     1       5.479   5.454 -11.471  0.00  0.00    -0.243 OA
ENDBRANCH   2   4
TORSDOF 1
ENDMDL
MODEL 6
REMARK VINA RESULT:      -3.3      1.349      2.726
REMARK  Name = 
REMARK  1 active torsions:
REMARK  status: ('A' for Active; 'I' for Inactive)
REMARK    1  A    between atoms: C_2  and  C_4
REMARK                            x       y       z     vdW  Elec       q    Type
REMARK                         _______ _______ _______ _____ _____    ______ ____
ROOT
ATOM      1  C   UNL     1       9.142   5.875 -12.115  0.00  0.00    +0.048 C 
ATOM      2  C   UNL     1       7.816   6.118 -13.123  0.00  0.00    +0.254 C 
ATOM      3  O   UNL     1       7.405   4.626 -13.049  0.00  0.00    -0.211 OA
ENDROOT
BRANCH   2   4
ATOM      4  C   UNL     1       6.865   6.544 -11.854  0.00  0.00    +0.395 C 
ATOM      5  O   UNL     1       6.229   5.532 -11.200  0.00  0.00    -0.243 OA
ATOM      6  O   UNL     1       7.006   7.672 -11.425  0.00  0.00    -0.243 OA
ENDBRANCH   2   4
TORSDOF 1
ENDMDL
MODEL 7
REMARK VINA RESULT:      -3.2     13.069     13.634
REMARK  Name = 
REMARK  1 active torsions:
REMARK  status: ('A' for Active; 'I' for Inactive)
REMARK    1  A    between atoms: C_2  and  C_4
REMARK                            x       y       z     vdW  Elec       q    Type
REMARK                         _______ _______ _______ _____ _____    ______ ____
ROOT
ATOM      1  C   UNL     1      -2.558   7.011  -4.067  0.00  0.00    +0.048 C 
ATOM      2  C   UNL     1      -2.345   6.980  -2.399  0.00  0.00    +0.254 C 
ATOM      3  O   UNL     1      -3.853   6.730  -2.146  0.00  0.00    -0.211 OA
ENDROOT
BRANCH   2   4
ATOM      4  C   UNL     1      -1.983   5.379  -2.423  0.00  0.00    +0.395 C 
ATOM      5  O   UNL     1      -0.896   4.987  -1.700  0.00  0.00    -0.243 OA
ATOM      6  O   UNL     1      -2.843   4.634  -2.848  0.00  0.00    -0.243 OA
ENDBRANCH   2   4
TORSDOF 1
ENDMDL
MODEL 8
REMARK VINA RESULT:      -3.1      1.476      2.605
REMARK  Name = 
REMARK  1 active torsions:
REMARK  status: ('A' for Active; 'I' for Inactive)
REMARK    1  A    between atoms: C_2  and  C_4
REMARK                            x       y       z     vdW  Elec       q    Type
REMARK                         _______ _______ _______ _____ _____    ______ ____
ROOT
ATOM      1  C   UNL     1       8.896   5.768 -12.104  0.00  0.00    +0.048 C 
ATOM      2  C   UNL     1       7.535   6.263 -12.960  0.00  0.00    +0.254 C 
ATOM      3  O   UNL     1       6.854   4.880 -12.805  0.00  0.00    -0.211 OA
ENDROOT
BRANCH   2   4
ATOM      4  C   UNL     1       6.838   6.868 -11.602  0.00  0.00    +0.395 C 
ATOM      5  O   UNL     1       6.483   8.183 -11.630  0.00  0.00    -0.243 OA
ATOM      6  O   UNL     1       6.446   6.057 -10.785  0.00  0.00    -0.243 OA
ENDBRANCH   2   4
TORSDOF 1
ENDMDL
MODEL 9
REMARK VINA RESULT:      -2.9      6.456      6.903
REMARK  Name = 
REMARK  1 active torsions:
REMARK  status: ('A' for Active; 'I' for Inactive)
REMARK    1  A    between atoms: C_2  and  C_4
REMARK                            x       y       z     vdW  Elec       q    Type
REMARK                         _______ _______ _______ _____ _____    ______ ____
ROOT
ATOM      1  C   UNL     1       4.250   5.709  -7.622  0.00  0.00    +0.048 C 
ATOM      2  C   UNL     1       2.751   6.056  -8.305  0.00  0.00    +0.254 C 
ATOM      3  O   UNL     1       2.009   5.138  -7.300  0.00  0.00    -0.211 OA
ENDROOT
BRANCH   2   4
ATOM      4  C   UNL     1       2.575   7.390  -7.366  0.00  0.00    +0.395 C 
ATOM      5  O   UNL     1       3.246   7.397  -6.180  0.00  0.00    -0.243 OA
ATOM      6  O   UNL     1       2.094   8.370  -7.900  0.00  0.00    -0.243 OA
ENDBRANCH   2   4
TORSDOF 1
ENDMDL
