MODEL 1
REMARK VINA RESULT:      -8.0      0.000      0.000
REMARK  Name = 
REMARK  5 active torsions:
REMARK  status: ('A' for Active; 'I' for Inactive)
REMARK    1  A    between atoms: C_2  and  C_3
REMARK    2  A    between atoms: C_4  and  C_5
REMARK    3  A    between atoms: C_14  and  C_15
REMARK    4  A    between atoms: C_16  and  C_17
REMARK    5  A    between atoms: C_19  and  C_20
REMARK                            x       y       z     vdW  Elec       q    Type
REMARK                         _______ _______ _______ _____ _____    ______ ____
ROOT
ATOM      1  C   UNL     1       1.345   5.425 -12.077  0.00  0.00    +0.031 C 
ATOM      2  C   UNL     1       1.833   5.873 -10.750  0.00  0.00    -0.022 C 
ATOM      3  C   UNL     1       1.015   6.288  -9.780  0.00  0.00    -0.004 C 
ENDROOT
BRANCH   3   4
ATOM      4  C   UNL     1       1.477   5.997  -8.416  0.00  0.00    -0.001 C 
ATOM      5  C   UNL     1       0.565   6.116  -7.462  0.00  0.00    -0.004 C 
BRANCH   5   6
ATOM      6  C   UNL     1       0.496   5.247  -6.298  0.00  0.00    -0.015 C 
ATOM      7  C   UNL     1      -0.456   5.510  -5.402  0.00  0.00    +0.082 C 
ATOM      8  C   UNL     1       1.431   4.095  -6.097  0.00  0.00    +0.031 C 
BRANCH   7   9
ATOM      9  C   UNL     1      -1.748   6.060  -5.830  0.00  0.00    +0.388 C 
ATOM     10  O   UNL     1      -2.146   7.249  -5.211  0.00  0.00    -0.241 OA
ATOM     11  O   UNL     1      -2.587   5.251  -6.328  0.00  0.00    -0.241 OA
ENDBRANCH   7   9
ENDBRANCH   5   6
ENDBRANCH   3   4
BRANCH   2  12
ATOM     12  C   UNL     1       3.213   6.364 -10.635  0.00  0.00    -0.005 C 
ATOM     13  C   UNL     1       4.154   5.480 -10.964  0.00  0.00    -0.005 C 
BRANCH  13  14
ATOM     14  C   UNL     1       5.572   5.723 -10.817  0.00  0.00    -0.031 C 
ATOM     15  C   UNL     1       6.250   6.591 -11.831  0.00  0.00    +0.018 C 
ATOM     16  C   UNL     1       5.481   6.507 -13.123  0.00  0.00    +0.004 C 
ATOM     17  C   UNL     1       6.333   8.024 -11.365  0.00  0.00    +0.004 C 
ATOM     18  C   UNL     1       7.679   6.100 -12.034  0.00  0.00    +0.004 C 
ATOM     19  C   UNL     1       8.126   5.269 -10.851  0.00  0.00    +0.005 C 
ATOM     20  C   UNL     1       7.593   5.839  -9.543  0.00  0.00    +0.022 C 
ATOM     21  C   UNL     1       6.099   5.770  -9.592  0.00  0.00    -0.048 C 
ATOM     22  C   UNL     1       5.300   5.412  -8.393  0.00  0.00    +0.026 C 
ENDBRANCH  13  14
ENDBRANCH   2  12
TORSDOF 5
ENDMDL
MODEL 2
REMARK VINA RESULT:      -8.0      3.439      8.359
REMARK  Name = 
REMARK  5 active torsions:
REMARK  status: ('A' for Active; 'I' for Inactive)
REMARK    1  A    between atoms: C_2  and  C_3
REMARK    2  A    between atoms: C_4  and  C_5
REMARK    3  A    between atoms: C_14  and  C_15
REMARK    4  A    between atoms: C_16  and  C_17
REMARK    5  A    between atoms: C_19  and  C_20
REMARK                            x       y       z     vdW  Elec       q    Type
REMARK                         _______ _______ _______ _____ _____    ______ ____
ROOT
ATOM      1  C   UNL     1       3.548   5.248  -3.507  0.00  0.00    +0.031 C 
ATOM      2  C   UNL     1       3.105   5.942  -4.742  0.00  0.00    -0.022 C 
ATOM      3  C   UNL     1       3.944   6.606  -5.540  0.00  0.00    -0.004 C 
ENDROOT
BRANCH   3   4
ATOM      4  C   UNL     1       3.584   6.589  -6.965  0.00  0.00    -0.001 C 
ATOM      5  C   UNL     1       4.222   5.700  -7.709  0.00  0.00    -0.004 C 
BRANCH   5   6
ATOM      6  C   UNL     1       3.608   4.983  -8.816  0.00  0.00    -0.015 C 
ATOM      7  C   UNL     1       3.803   5.476 -10.039  0.00  0.00    +0.082 C 
ATOM      8  C   UNL     1       2.798   3.739  -8.618  0.00  0.00    +0.031 C 
BRANCH   7   9
ATOM      9  C   UNL     1       5.061   6.153 -10.375  0.00  0.00    +0.388 C 
ATOM     10  O   UNL     1       4.962   7.510 -10.700  0.00  0.00    -0.241 OA
ATOM     11  O   UNL     1       6.014   5.432 -10.798  0.00  0.00    -0.241 OA
ENDBRANCH   7   9
ENDBRANCH   5   6
ENDBRANCH   3   4
BRANCH   2  12
ATOM     12  C   UNL     1       1.701   6.361  -4.848  0.00  0.00    -0.005 C 
ATOM     13  C   UNL     1       0.817   5.364  -4.879  0.00  0.00    -0.005 C 
BRANCH  13  14
ATOM     14  C   UNL     1      -0.601   5.554  -5.092  0.00  0.00    -0.031 C 
ATOM     15  C   UNL     1      -1.382   6.281  -4.043  0.00  0.00    +0.018 C 
ATOM     16  C   UNL     1      -0.687   6.102  -2.719  0.00  0.00    +0.004 C 
ATOM     17  C   UNL     1      -1.514   7.749  -4.369  0.00  0.00    +0.004 C 
ATOM     18  C   UNL     1      -2.792   5.705  -3.980  0.00  0.00    +0.004 C 
ATOM     19  C   UNL     1      -3.124   4.979  -5.266  0.00  0.00    +0.005 C 
ATOM     20  C   UNL     1      -2.547   5.703  -6.474  0.00  0.00    +0.022 C 
ATOM     21  C   UNL     1      -1.057   5.700  -6.337  0.00  0.00    -0.048 C 
ATOM     22  C   UNL     1      -0.171   5.505  -7.513  0.00  0.00    +0.026 C 
ENDBRANCH  13  14
ENDBRANCH   2  12
TORSDOF 5
ENDMDL
MODEL 3
REMARK VINA RESULT:      -8.0      1.770      2.129
REMARK  Name = 
REMARK  5 active torsions:
REMARK  status: ('A' for Active; 'I' for Inactive)
REMARK    1  A    between atoms: C_2  and  C_3
REMARK    2  A    between atoms: C_4  and  C_5
REMARK    3  A    between atoms: C_14  and  C_15
REMARK    4  A    between atoms: C_16  and  C_17
REMARK    5  A    between atoms: C_19  and  C_20
REMARK                            x       y       z     vdW  Elec       q    Type
REMARK                         _______ _______ _______ _____ _____    ______ ____
ROOT
ATOM      1  C   UNL     1       1.709   5.642 -13.005  0.00  0.00    +0.031 C 
ATOM      2  C   UNL     1       1.929   5.746 -11.541  0.00  0.00    -0.022 C 
ATOM      3  C   UNL     1       0.930   5.880 -10.667  0.00  0.00    -0.004 C 
ENDROOT
BRANCH   3   4
ATOM      4  C   UNL     1       1.168   5.260  -9.356  0.00  0.00    -0.001 C 
ATOM      5  C   UNL     1       0.765   5.960  -8.306  0.00  0.00    -0.004 C 
BRANCH   5   6
ATOM      6  C   UNL     1       0.200   5.363  -7.106  0.00  0.00    -0.015 C 
ATOM      7  C   UNL     1       1.057   4.986  -6.157  0.00  0.00    +0.082 C 
ATOM      8  C   UNL     1      -1.273   5.181  -6.915  0.00  0.00    +0.031 C 
BRANCH   7   9
ATOM      9  C   UNL     1       2.301   5.733  -5.939  0.00  0.00    +0.388 C 
ATOM     10  O   UNL     1       3.465   4.969  -5.812  0.00  0.00    -0.241 OA
ATOM     11  O   UNL     1       2.201   6.890  -5.429  0.00  0.00    -0.241 OA
ENDBRANCH   7   9
ENDBRANCH   5   6
ENDBRANCH   3   4
BRANCH   2  12
ATOM     12  C   UNL     1       3.232   6.220 -11.057  0.00  0.00    -0.005 C 
ATOM     13  C   UNL     1       4.286   5.574 -11.554  0.00  0.00    -0.005 C 
BRANCH  13  14
ATOM     14  C   UNL     1       5.648   5.809 -11.126  0.00  0.00    -0.031 C 
ATOM     15  C   UNL     1       6.486   6.760 -11.924  0.00  0.00    +0.018 C 
ATOM     16  C   UNL     1       5.971   6.780 -13.338  0.00  0.00    +0.004 C 
ATOM     17  C   UNL     1       6.454   8.150 -11.337  0.00  0.00    +0.004 C 
ATOM     18  C   UNL     1       7.936   6.292 -11.896  0.00  0.00    +0.004 C 
ATOM     19  C   UNL     1       8.172   5.368 -10.721  0.00  0.00    +0.005 C 
ATOM     20  C   UNL     1       7.396   5.826  -9.494  0.00  0.00    +0.022 C 
ATOM     21  C   UNL     1       5.938   5.757  -9.825  0.00  0.00    -0.048 C 
ATOM     22  C   UNL     1       4.937   5.299  -8.828  0.00  0.00    +0.026 C 
ENDBRANCH  13  14
ENDBRANCH   2  12
TORSDOF 5
ENDMDL
MODEL 4
REMARK VINA RESULT:      -8.0      2.444      5.170
REMARK  Name = 
REMARK  5 active torsions:
REMARK  status: ('A' for Active; 'I' for Inactive)
REMARK    1  A    between atoms: C_2  and  C_3
REMARK    2  A    between atoms: C_4  and  C_5
REMARK    3  A    between atoms: C_14  and  C_15
REMARK    4  A    between atoms: C_16  and  C_17
REMARK    5  A    between atoms: C_19  and  C_20
REMARK                            x       y       z     vdW  Elec       q    Type
REMARK                         _______ _______ _______ _____ _____    ______ ____
ROOT
ATOM      1  C   UNL     1       6.046   7.793 -11.128  0.00  0.00    +0.031 C 
ATOM      2  C   UNL     1       5.599   6.507 -10.537  0.00  0.00    -0.022 C 
ATOM      3  C   UNL     1       6.371   5.772  -9.735  0.00  0.00    -0.004 C 
ENDROOT
BRANCH   3   4
ATOM      4  C   UNL     1       5.647   5.014  -8.705  0.00  0.00    -0.001 C 
ATOM      5  C   UNL     1       4.673   5.666  -8.087  0.00  0.00    -0.004 C 
BRANCH   5   6
ATOM      6  C   UNL     1       3.428   5.046  -7.663  0.00  0.00    -0.015 C 
ATOM      7  C   UNL     1       2.852   5.536  -6.565  0.00  0.00    +0.082 C 
ATOM      8  C   UNL     1       2.795   3.916  -8.414  0.00  0.00    +0.031 C 
BRANCH   7   9
ATOM      9  C   UNL     1       2.964   6.963  -6.240  0.00  0.00    +0.388 C 
ATOM     10  O   UNL     1       3.414   7.268  -4.952  0.00  0.00    -0.241 OA
ATOM     11  O   UNL     1       2.246   7.768  -6.906  0.00  0.00    -0.241 OA
ENDBRANCH   7   9
ENDBRANCH   5   6
ENDBRANCH   3   4
BRANCH   2  12
ATOM     12  C   UNL     1       4.529   5.757 -11.210  0.00  0.00    -0.005 C 
ATOM     13  C   UNL     1       3.464   6.481 -11.551  0.00  0.00    -0.005 C 
BRANCH  13  14
ATOM     14  C   UNL     1       2.259   5.919 -12.120  0.00  0.00    -0.031 C 
ATOM     15  C   UNL     1       0.945   6.302 -11.514  0.00  0.00    +0.018 C 
ATOM     16  C   UNL     1       1.172   6.669 -10.072  0.00  0.00    +0.004 C 
ATOM     17  C   UNL     1       0.311   7.456 -12.252  0.00  0.00    +0.004 C 
ATOM     18  C   UNL     1      -0.015   5.122 -11.613  0.00  0.00    +0.004 C 
ATOM     19  C   UNL     1       0.439   4.160 -12.690  0.00  0.00    +0.005 C 
ATOM     20  C   UNL     1       1.010   4.904 -13.890  0.00  0.00    +0.022 C 
ATOM     21  C   UNL     1       2.221   5.652 -13.427  0.00  0.00    -0.048 C 
ATOM     22  C   UNL     1       3.436   5.761 -14.274  0.00  0.00    +0.026 C 
ENDBRANCH  13  14
ENDBRANCH   2  12
TORSDOF 5
ENDMDL
MODEL 5
REMARK VINA RESULT:      -7.9      3.970      7.010
REMARK  Name = 
REMARK  5 active torsions:
REMARK  status: ('A' for Active; 'I' for Inactive)
REMARK    1  A    between atoms: C_2  and  C_3
REMARK    2  A    between atoms: C_4  and  C_5
REMARK    3  A    between atoms: C_14  and  C_15
REMARK    4  A    between atoms: C_16  and  C_17
REMARK    5  A    between atoms: C_19  and  C_20
REMARK                            x       y       z     vdW  Elec       q    Type
REMARK                         _______ _______ _______ _____ _____    ______ ____
ROOT
ATOM      1  C   UNL     1      -1.674   7.924  -4.528  0.00  0.00    +0.031 C 
ATOM      2  C   UNL     1      -1.135   6.620  -4.990  0.00  0.00    -0.022 C 
ATOM      3  C   UNL     1      -1.819   5.796  -5.786  0.00  0.00    -0.004 C 
ENDROOT
BRANCH   3   4
ATOM      4  C   UNL     1      -0.994   4.999  -6.705  0.00  0.00    -0.001 C 
ATOM      5  C   UNL     1      -0.025   5.655  -7.325  0.00  0.00    -0.004 C 
BRANCH   5   6
ATOM      6  C   UNL     1       1.276   5.080  -7.626  0.00  0.00    -0.015 C 
ATOM      7  C   UNL     1       1.886   5.509  -8.731  0.00  0.00    +0.082 C 
ATOM      8  C   UNL     1       1.928   4.059  -6.746  0.00  0.00    +0.031 C 
BRANCH   7   9
ATOM      9  C   UNL     1       1.712   6.893  -9.187  0.00  0.00    +0.388 C 
ATOM     10  O   UNL     1       2.068   7.891  -8.275  0.00  0.00    -0.241 OA
ATOM     11  O   UNL     1       0.865   7.098 -10.107  0.00  0.00    -0.241 OA
ENDBRANCH   7   9
ENDBRANCH   5   6
ENDBRANCH   3   4
BRANCH   2  12
ATOM     12  C   UNL     1      -0.087   5.969  -4.192  0.00  0.00    -0.005 C 
ATOM     13  C   UNL     1       0.900   6.773  -3.798  0.00  0.00    -0.005 C 
BRANCH  13  14
ATOM     14  C   UNL     1       2.081   6.313  -3.101  0.00  0.00    -0.031 C 
ATOM     15  C   UNL     1       3.418   6.756  -3.607  0.00  0.00    +0.018 C 
ATOM     16  C   UNL     1       3.300   7.051  -5.078  0.00  0.00    +0.004 C 
ATOM     17  C   UNL     1       3.911   7.977  -2.868  0.00  0.00    +0.004 C 
ATOM     18  C   UNL     1       4.436   5.646  -3.371  0.00  0.00    +0.004 C 
ATOM     19  C   UNL     1       3.947   4.699  -2.297  0.00  0.00    +0.005 C 
ATOM     20  C   UNL     1       3.225   5.450  -1.186  0.00  0.00    +0.022 C 
ATOM     21  C   UNL     1       2.018   6.100  -1.786  0.00  0.00    -0.048 C 
ATOM     22  C   UNL     1       0.727   6.162  -1.054  0.00  0.00    +0.026 C 
ENDBRANCH  13  14
ENDBRANCH   2  12
TORSDOF 5
ENDMDL
MODEL 6
REMARK VINA RESULT:      -7.7      1.946      4.699
REMARK  Name = 
REMARK  5 active torsions:
REMARK  status: ('A' for Active; 'I' for Inactive)
REMARK    1  A    between atoms: C_2  and  C_3
REMARK    2  A    between atoms: C_4  and  C_5
REMARK    3  A    between atoms: C_14  and  C_15
REMARK    4  A    between atoms: C_16  and  C_17
REMARK    5  A    between atoms: C_19  and  C_20
REMARK                            x       y       z     vdW  Elec       q    Type
REMARK                         _______ _______ _______ _____ _____    ______ ____
ROOT
ATOM      1  C   UNL     1       6.158   5.757 -10.688  0.00  0.00    +0.031 C 
ATOM      2  C   UNL     1       5.094   5.945  -9.671  0.00  0.00    -0.022 C 
ATOM      3  C   UNL     1       5.023   5.218  -8.555  0.00  0.00    -0.004 C 
ENDROOT
BRANCH   3   4
ATOM      4  C   UNL     1       4.468   5.923  -7.391  0.00  0.00    -0.001 C 
ATOM      5  C   UNL     1       3.641   5.220  -6.633  0.00  0.00    -0.004 C 
BRANCH   5   6
ATOM      6  C   UNL     1       3.572   5.342  -5.185  0.00  0.00    -0.015 C 
ATOM      7  C   UNL     1       2.493   5.939  -4.679  0.00  0.00    +0.082 C 
ATOM      8  C   UNL     1       4.645   4.819  -4.282  0.00  0.00    +0.031 C 
BRANCH   7   9
ATOM      9  C   UNL     1       1.190   5.807  -5.342  0.00  0.00    +0.388 C 
ATOM     10  O   UNL     1       0.426   6.974  -5.436  0.00  0.00    -0.241 OA
ATOM     11  O   UNL     1       0.659   4.656  -5.353  0.00  0.00    -0.241 OA
ENDBRANCH   7   9
ENDBRANCH   5   6
ENDBRANCH   3   4
BRANCH   2  12
ATOM     12  C   UNL     1       3.823   6.553 -10.086  0.00  0.00    -0.005 C 
ATOM     13  C   UNL     1       2.954   5.712 -10.646  0.00  0.00    -0.005 C 
BRANCH  13  14
ATOM     14  C   UNL     1       1.693   6.125 -11.222  0.00  0.00    -0.031 C 
ATOM     15  C   UNL     1       1.471   5.885 -12.683  0.00  0.00    +0.018 C 
ATOM     16  C   UNL     1       2.809   5.857 -13.372  0.00  0.00    +0.004 C 
ATOM     17  C   UNL     1       0.733   4.590 -12.924  0.00  0.00    +0.004 C 
ATOM     18  C   UNL     1       0.609   7.007 -13.249  0.00  0.00    +0.004 C 
ATOM     19  C   UNL     1      -0.152   7.700 -12.141  0.00  0.00    +0.005 C 
ATOM     20  C   UNL     1      -0.623   6.706 -11.088  0.00  0.00    +0.022 C 
ATOM     21  C   UNL     1       0.591   6.087 -10.471  0.00  0.00    -0.048 C 
ATOM     22  C   UNL     1       0.658   5.794  -9.016  0.00  0.00    +0.026 C 
ENDBRANCH  13  14
ENDBRANCH   2  12
TORSDOF 5
ENDMDL
MODEL 7
REMARK VINA RESULT:      -7.7      3.682      6.881
REMARK  Name = 
REMARK  5 active torsions:
REMARK  status: ('A' for Active; 'I' for Inactive)
REMARK    1  A    between atoms: C_2  and  C_3
REMARK    2  A    between atoms: C_4  and  C_5
REMARK    3  A    between atoms: C_14  and  C_15
REMARK    4  A    between atoms: C_16  and  C_17
REMARK    5  A    between atoms: C_19  and  C_20
REMARK                            x       y       z     vdW  Elec       q    Type
REMARK                         _______ _______ _______ _____ _____    ______ ____
ROOT
ATOM      1  C   UNL     1      -1.592   5.971  -5.049  0.00  0.00    +0.031 C 
ATOM      2  C   UNL     1      -0.474   6.102  -6.016  0.00  0.00    -0.022 C 
ATOM      3  C   UNL     1      -0.333   5.300  -7.073  0.00  0.00    -0.004 C 
ENDROOT
BRANCH   3   4
ATOM      4  C   UNL     1       0.280   5.930  -8.250  0.00  0.00    -0.001 C 
ATOM      5  C   UNL     1       1.079   5.154  -8.967  0.00  0.00    -0.004 C 
BRANCH   5   6
ATOM      6  C   UNL     1       1.180   5.219 -10.417  0.00  0.00    -0.015 C 
ATOM      7  C   UNL     1       2.220   5.881 -10.922  0.00  0.00    +0.082 C 
ATOM      8  C   UNL     1       0.180   4.570 -11.322  0.00  0.00    +0.031 C 
BRANCH   7   9
ATOM      9  C   UNL     1       3.510   5.887 -10.221  0.00  0.00    +0.388 C 
ATOM     10  O   UNL     1       3.972   7.134  -9.791  0.00  0.00    -0.241 OA
ATOM     11  O   UNL     1       4.301   4.924 -10.454  0.00  0.00    -0.241 OA
ENDBRANCH   7   9
ENDBRANCH   5   6
ENDBRANCH   3   4
BRANCH   2  12
ATOM     12  C   UNL     1       0.767   6.752  -5.574  0.00  0.00    -0.005 C 
ATOM     13  C   UNL     1       1.647   5.943  -4.986  0.00  0.00    -0.005 C 
BRANCH  13  14
ATOM     14  C   UNL     1       2.879   6.400  -4.381  0.00  0.00    -0.031 C 
ATOM     15  C   UNL     1       3.044   6.237  -2.902  0.00  0.00    +0.018 C 
ATOM     16  C   UNL     1       1.679   6.228  -2.267  0.00  0.00    +0.004 C 
ATOM     17  C   UNL     1       3.784   4.965  -2.565  0.00  0.00    +0.004 C 
ATOM     18  C   UNL     1       3.871   7.396  -2.360  0.00  0.00    +0.004 C 
ATOM     19  C   UNL     1       4.670   8.041  -3.471  0.00  0.00    +0.005 C 
ATOM     20  C   UNL     1       5.194   7.000  -4.451  0.00  0.00    +0.022 C 
ATOM     21  C   UNL     1       4.011   6.337  -5.085  0.00  0.00    -0.048 C 
ATOM     22  C   UNL     1       4.007   5.969  -6.523  0.00  0.00    +0.026 C 
ENDBRANCH  13  14
ENDBRANCH   2  12
TORSDOF 5
ENDMDL
MODEL 8
REMARK VINA RESULT:      -7.6      3.059      5.494
REMARK  Name = 
REMARK  5 active torsions:
REMARK  status: ('A' for Active; 'I' for Inactive)
REMARK    1  A    between atoms: C_2  and  C_3
REMARK    2  A    between atoms: C_4  and  C_5
REMARK    3  A    between atoms: C_14  and  C_15
REMARK    4  A    between atoms: C_16  and  C_17
REMARK    5  A    between atoms: C_19  and  C_20
REMARK                            x       y       z     vdW  Elec       q    Type
REMARK                         _______ _______ _______ _____ _____    ______ ____
ROOT
ATOM      1  C   UNL     1       3.661   7.236  -4.541  0.00  0.00    +0.031 C 
ATOM      2  C   UNL     1       2.451   6.402  -4.749  0.00  0.00    -0.022 C 
ATOM      3  C   UNL     1       1.825   5.774  -3.752  0.00  0.00    -0.004 C 
ENDROOT
BRANCH   3   4
ATOM      4  C   UNL     1       0.372   5.639  -3.923  0.00  0.00    -0.001 C 
ATOM      5  C   UNL     1      -0.370   6.518  -3.266  0.00  0.00    -0.004 C 
BRANCH   5   6
ATOM      6  C   UNL     1      -1.606   7.081  -3.786  0.00  0.00    -0.015 C 
ATOM      7  C   UNL     1      -2.746   6.587  -3.302  0.00  0.00    +0.082 C 
ATOM      8  C   UNL     1      -1.624   8.173  -4.810  0.00  0.00    +0.031 C 
BRANCH   7   9
ATOM      9  C   UNL     1      -2.825   6.124  -1.912  0.00  0.00    +0.388 C 
ATOM     10  O   UNL     1      -2.575   7.085  -0.928  0.00  0.00    -0.241 OA
ATOM     11  O   UNL     1      -2.644   4.888  -1.701  0.00  0.00    -0.241 OA
ENDBRANCH   7   9
ENDBRANCH   5   6
ENDBRANCH   3   4
BRANCH   2  12
ATOM     12  C   UNL     1       2.214   5.824  -6.078  0.00  0.00    -0.005 C 
ATOM     13  C   UNL     1       1.717   6.671  -6.979  0.00  0.00    -0.005 C 
BRANCH  13  14
ATOM     14  C   UNL     1       1.309   6.279  -8.310  0.00  0.00    -0.031 C 
ATOM     15  C   UNL     1       2.375   5.987  -9.320  0.00  0.00    +0.018 C 
ATOM     16  C   UNL     1       3.610   6.764  -8.950  0.00  0.00    +0.004 C 
ATOM     17  C   UNL     1       2.687   4.511  -9.383  0.00  0.00    +0.004 C 
ATOM     18  C   UNL     1       1.884   6.403 -10.701  0.00  0.00    +0.004 C 
ATOM     19  C   UNL     1       0.373   6.493 -10.720  0.00  0.00    +0.005 C 
ATOM     20  C   UNL     1      -0.257   5.388  -9.884  0.00  0.00    +0.022 C 
ATOM     21  C   UNL     1       0.180   5.586  -8.466  0.00  0.00    -0.048 C 
ATOM     22  C   UNL     1      -0.748   5.355  -7.330  0.00  0.00    +0.026 C 
ENDBRANCH  13  14
ENDBRANCH   2  12
TORSDOF 5
ENDMDL
MODEL 9
REMARK VINA RESULT:      -7.6      3.831      7.409
REMARK  Name = 
REMARK  5 active torsions:
REMARK  status: ('A' for Active; 'I' for Inactive)
REMARK    1  A    between atoms: C_2  and  C_3
REMARK    2  A    between atoms: C_4  and  C_5
REMARK    3  A    between atoms: C_14  and  C_15
REMARK    4  A    between atoms: C_16  and  C_17
REMARK    5  A    between atoms: C_19  and  C_20
REMARK                            x       y       z     vdW  Elec       q    Type
REMARK                         _______ _______ _______ _____ _____    ______ ____
ROOT
ATOM      1  C   UNL     1      -0.867   5.570  -5.871  0.00  0.00    +0.031 C 
ATOM      2  C   UNL     1       0.593   5.343  -5.737  0.00  0.00    -0.022 C 
ATOM      3  C   UNL     1       1.174   4.178  -6.027  0.00  0.00    -0.004 C 
ENDROOT
BRANCH   3   4
ATOM      4  C   UNL     1       2.544   4.282  -6.548  0.00  0.00    -0.001 C 
ATOM      5  C   UNL     1       2.651   4.634  -7.821  0.00  0.00    -0.004 C 
BRANCH   5   6
ATOM      6  C   UNL     1       3.709   5.487  -8.337  0.00  0.00    -0.015 C 
ATOM      7  C   UNL     1       3.334   6.590  -8.987  0.00  0.00    +0.082 C 
ATOM      8  C   UNL     1       5.160   5.171  -8.151  0.00  0.00    +0.031 C 
BRANCH   7   9
ATOM      9  C   UNL     1       2.111   7.302  -8.598  0.00  0.00    +0.388 C 
ATOM     10  O   UNL     1       1.026   7.186  -9.471  0.00  0.00    -0.241 OA
ATOM     11  O   UNL     1       2.241   8.295  -7.821  0.00  0.00    -0.241 OA
ENDBRANCH   7   9
ENDBRANCH   5   6
ENDBRANCH   3   4
BRANCH   2  12
ATOM     12  C   UNL     1       1.356   6.192  -4.812  0.00  0.00    -0.005 C 
ATOM     13  C   UNL     1       2.191   5.538  -4.006  0.00  0.00    -0.005 C 
BRANCH  13  14
ATOM     14  C   UNL     1       2.950   6.171  -2.950  0.00  0.00    -0.031 C 
ATOM     15  C   UNL     1       2.761   5.676  -1.550  0.00  0.00    +0.018 C 
ATOM     16  C   UNL     1       1.383   5.080  -1.435  0.00  0.00    +0.004 C 
ATOM     17  C   UNL     1       3.806   4.651  -1.180  0.00  0.00    +0.004 C 
ATOM     18  C   UNL     1       2.913   6.843  -0.582  0.00  0.00    +0.004 C 
ATOM     19  C   UNL     1       3.677   7.975  -1.234  0.00  0.00    +0.005 C 
ATOM     20  C   UNL     1       4.796   7.447  -2.122  0.00  0.00    +0.022 C 
ATOM     21  C   UNL     1       4.166   6.648  -3.220  0.00  0.00    -0.048 C 
ATOM     22  C   UNL     1       4.686   6.697  -4.610  0.00  0.00    +0.026 C 
ENDBRANCH  13  14
ENDBRANCH   2  12
TORSDOF 5
ENDMDL
