MODEL 1
REMARK VINA RESULT:      -9.0      0.000      0.000
REMARK  Name = 
REMARK  2 active torsions:
REMARK  status: ('A' for Active; 'I' for Inactive)
REMARK    1  A    between atoms: C_26  and  C_27
REMARK    2  A    between atoms: C_27  and  C_29
REMARK                            x       y       z     vdW  Elec       q    Type
REMARK                         _______ _______ _______ _____ _____    ______ ____
ROOT
ATOM      1  C   UNL     1       3.281   8.246  -2.608  0.00  0.00    +0.061 C 
ATOM      2  C   UNL     1       3.683   7.971  -2.276  0.00  0.00    +0.188 C 
ATOM      3  O   UNL     1       2.826   6.998  -2.185  0.00  0.00    -0.330 OA
ATOM      4  C   UNL     1       3.345   5.827  -2.635  0.00  0.00    +0.173 C 
ATOM      5  C   UNL     1       4.948   6.201  -2.778  0.00  0.00    +0.149 C 
ATOM      6  C   UNL     1       5.075   5.752  -4.379  0.00  0.00    +0.033 C 
ATOM      7  C   UNL     1       3.664   6.445  -4.773  0.00  0.00    +0.005 C 
ATOM      8  C   UNL     1       3.388   5.489  -6.144  0.00  0.00    +0.006 C 
ATOM      9  C   UNL     1       1.938   6.334  -6.281  0.00  0.00    +0.034 C 
ATOM     10  C   UNL     1       0.940   5.122  -5.562  0.00  0.00    +0.152 C 
ATOM     11  C   UNL     1       1.506   5.367  -4.036  0.00  0.00    +0.036 C 
ATOM     12  O   UNL     1       1.842   3.937  -5.879  0.00  0.00    -0.223 OA
ATOM     13  C   UNL     1       1.655   5.931  -7.792  0.00  0.00    +0.021 C 
ATOM     14  C   UNL     1       2.522   5.021  -8.404  0.00  0.00    -0.010 C 
ATOM     15  C   UNL     1       2.078   4.657  -9.614  0.00  0.00    +0.032 C 
ATOM     16  C   UNL     1       0.779   5.270  -9.992  0.00  0.00    +0.173 C 
ATOM     17  C   UNL     1       0.899   6.770  -9.918  0.00  0.00    +0.069 C 
ATOM     18  O   UNL     1       0.041   4.798 -10.873  0.00  0.00    -0.291 OA
ATOM     19  C   UNL     1       4.145   5.163  -8.311  0.00  0.00    +0.179 C 
ATOM     20  F   UNL     1       4.252   6.127  -9.488  0.00  0.00    -0.233 F 
ATOM     21  C   UNL     1       0.242   5.438  -7.893  0.00  0.00    +0.004 C 
ATOM     22  C   UNL     1       1.661   7.188  -8.658  0.00  0.00    +0.012 C 
ATOM     23  C   UNL     1       4.092   6.448  -7.232  0.00  0.00    +0.040 C 
ATOM     24  C   UNL     1       2.917   5.296  -3.895  0.00  0.00    +0.034 C 
ATOM     25  C   UNL     1       3.609   3.990  -4.140  0.00  0.00    +0.003 C 
ATOM     26  O   UNL     1       4.650   7.663  -3.139  0.00  0.00    -0.334 OA
ATOM     27  C   UNL     1       3.718   9.138  -1.441  0.00  0.00    +0.061 C 
ENDROOT
BRANCH   4  28
ATOM     28  C   UNL     1       3.388   4.884  -1.477  0.00  0.00    +0.210 C 
ATOM     29  O   UNL     1       4.402   4.841  -0.798  0.00  0.00    -0.291 OA
BRANCH  28  30
ATOM     30  C   UNL     1       2.128   4.401  -0.853  0.00  0.00    +0.248 C 
ATOM     31  O   UNL     1       1.388   5.420  -0.287  0.00  0.00    -0.212 OA
ENDBRANCH  28  30
ENDBRANCH   4  28
TORSDOF 2
ENDMDL
MODEL 2
REMARK VINA RESULT:      -8.3      1.711      2.174
REMARK  Name = 
REMARK  2 active torsions:
REMARK  status: ('A' for Active; 'I' for Inactive)
REMARK    1  A    between atoms: C_26  and  C_27
REMARK    2  A    between atoms: C_27  and  C_29
REMARK                            x       y       z     vdW  Elec       q    Type
REMARK                         _______ _______ _______ _____ _____    ______ ____
ROOT
ATOM      1  C   UNL     1       3.598   7.868  -3.299  0.00  0.00    +0.061 C 
ATOM      2  C   UNL     1       3.544   7.451  -2.887  0.00  0.00    +0.188 C 
ATOM      3  O   UNL     1       2.319   7.312  -3.300  0.00  0.00    -0.330 OA
ATOM      4  C   UNL     1       2.063   6.039  -3.695  0.00  0.00    +0.173 C 
ATOM      5  C   UNL     1       3.394   5.236  -3.135  0.00  0.00    +0.149 C 
ATOM      6  C   UNL     1       3.816   4.578  -4.608  0.00  0.00    +0.033 C 
ATOM      7  C   UNL     1       3.521   5.959  -5.404  0.00  0.00    +0.005 C 
ATOM      8  C   UNL     1       3.261   5.228  -6.910  0.00  0.00    +0.006 C 
ATOM      9  C   UNL     1       2.939   6.785  -7.465  0.00  0.00    +0.034 C 
ATOM     10  C   UNL     1       1.217   6.659  -7.403  0.00  0.00    +0.152 C 
ATOM     11  C   UNL     1       1.135   6.699  -5.759  0.00  0.00    +0.036 C 
ATOM     12  O   UNL     1       1.145   5.143  -7.531  0.00  0.00    -0.223 OA
ATOM     13  C   UNL     1       3.092   6.445  -9.009  0.00  0.00    +0.021 C 
ATOM     14  C   UNL     1       3.294   5.110  -9.372  0.00  0.00    -0.010 C 
ATOM     15  C   UNL     1       3.251   4.950 -10.701  0.00  0.00    +0.032 C 
ATOM     16  C   UNL     1       2.969   6.200 -11.452  0.00  0.00    +0.173 C 
ATOM     17  C   UNL     1       4.001   7.237 -11.093  0.00  0.00    +0.069 C 
ATOM     18  O   UNL     1       2.535   6.204 -12.616  0.00  0.00    -0.291 OA
ATOM     19  C   UNL     1       4.393   4.159  -8.628  0.00  0.00    +0.179 C 
ATOM     20  F   UNL     1       5.561   4.620  -9.494  0.00  0.00    -0.233 F 
ATOM     21  C   UNL     1       1.901   6.997  -9.735  0.00  0.00    +0.004 C 
ATOM     22  C   UNL     1       4.264   7.235  -9.585  0.00  0.00    +0.012 C 
ATOM     23  C   UNL     1       4.773   5.305  -7.462  0.00  0.00    +0.040 C 
ATOM     24  C   UNL     1       1.939   5.738  -5.090  0.00  0.00    +0.034 C 
ATOM     25  C   UNL     1       1.624   4.283  -5.255  0.00  0.00    +0.003 C 
ATOM     26  O   UNL     1       4.305   6.455  -3.339  0.00  0.00    -0.334 OA
ATOM     27  C   UNL     1       4.001   8.414  -1.926  0.00  0.00    +0.061 C 
ENDROOT
BRANCH   4  28
ATOM     28  C   UNL     1       1.012   5.492  -2.784  0.00  0.00    +0.210 C 
ATOM     29  O   UNL     1       1.365   4.900  -1.777  0.00  0.00    -0.291 OA
BRANCH  28  30
ATOM     30  C   UNL     1      -0.363   6.058  -2.797  0.00  0.00    +0.248 C 
ATOM     31  O   UNL     1      -1.332   5.112  -2.524  0.00  0.00    -0.212 OA
ENDBRANCH  28  30
ENDBRANCH   4  28
TORSDOF 2
ENDMDL
MODEL 3
REMARK VINA RESULT:      -8.1      2.540      7.025
REMARK  Name = 
REMARK  2 active torsions:
REMARK  status: ('A' for Active; 'I' for Inactive)
REMARK    1  A    between atoms: C_26  and  C_27
REMARK    2  A    between atoms: C_27  and  C_29
REMARK                            x       y       z     vdW  Elec       q    Type
REMARK                         _______ _______ _______ _____ _____    ______ ____
ROOT
ATOM      1  C   UNL     1       0.577   5.957  -7.163  0.00  0.00    +0.061 C 
ATOM      2  C   UNL     1       0.782   5.534  -7.517  0.00  0.00    +0.188 C 
ATOM      3  O   UNL     1       1.854   6.260  -7.631  0.00  0.00    -0.330 OA
ATOM      4  C   UNL     1       2.966   5.579  -7.250  0.00  0.00    +0.173 C 
ATOM      5  C   UNL     1       2.391   4.034  -7.132  0.00  0.00    +0.149 C 
ATOM      6  C   UNL     1       2.888   3.798  -5.558  0.00  0.00    +0.033 C 
ATOM      7  C   UNL     1       2.403   5.274  -5.095  0.00  0.00    +0.005 C 
ATOM      8  C   UNL     1       3.445   5.379  -3.763  0.00  0.00    +0.006 C 
ATOM      9  C   UNL     1       2.803   6.921  -3.548  0.00  0.00    +0.034 C 
ATOM     10  C   UNL     1       4.104   7.776  -4.296  0.00  0.00    +0.152 C 
ATOM     11  C   UNL     1       3.722   7.297  -5.824  0.00  0.00    +0.036 C 
ATOM     12  O   UNL     1       5.173   6.718  -4.058  0.00  0.00    -0.223 OA
ATOM     13  C   UNL     1       3.304   7.100  -2.051  0.00  0.00    +0.021 C 
ATOM     14  C   UNL     1       4.118   6.103  -1.505  0.00  0.00    -0.010 C 
ATOM     15  C   UNL     1       4.589   6.456  -0.302  0.00  0.00    +0.032 C 
ATOM     16  C   UNL     1       4.168   7.810   0.138  0.00  0.00    +0.173 C 
ATOM     17  C   UNL     1       2.663   7.888   0.132  0.00  0.00    +0.069 C 
ATOM     18  O   UNL     1       4.769   8.452   1.016  0.00  0.00    -0.291 OA
ATOM     19  C   UNL     1       3.761   4.516  -1.634  0.00  0.00    +0.179 C 
ATOM     20  F   UNL     1       2.843   4.497  -0.417  0.00  0.00    -0.233 F 
ATOM     21  C   UNL     1       3.982   8.433  -1.935  0.00  0.00    +0.004 C 
ATOM     22  C   UNL     1       2.095   7.229  -1.127  0.00  0.00    +0.012 C 
ATOM     23  C   UNL     1       2.449   4.770  -2.651  0.00  0.00    +0.040 C 
ATOM     24  C   UNL     1       3.602   5.894  -6.006  0.00  0.00    +0.034 C 
ATOM     25  C   UNL     1       4.815   5.031  -5.840  0.00  0.00    +0.003 C 
ATOM     26  O   UNL     1       0.998   4.508  -6.696  0.00  0.00    -0.334 OA
ATOM     27  C   UNL     1      -0.414   5.677  -8.298  0.00  0.00    +0.061 C 
ENDROOT
BRANCH   4  28
ATOM     28  C   UNL     1       3.845   5.452  -8.452  0.00  0.00    +0.210 C 
ATOM     29  O   UNL     1       4.073   4.336  -8.891  0.00  0.00    -0.291 OA
BRANCH  28  30
ATOM     30  C   UNL     1       4.020   6.600  -9.380  0.00  0.00    +0.248 C 
ATOM     31  O   UNL     1       3.439   6.383 -10.614  0.00  0.00    -0.212 OA
ENDBRANCH  28  30
ENDBRANCH   4  28
TORSDOF 2
ENDMDL
MODEL 4
REMARK VINA RESULT:      -7.6      2.338      7.672
REMARK  Name = 
REMARK  2 active torsions:
REMARK  status: ('A' for Active; 'I' for Inactive)
REMARK    1  A    between atoms: C_26  and  C_27
REMARK    2  A    between atoms: C_27  and  C_29
REMARK                            x       y       z     vdW  Elec       q    Type
REMARK                         _______ _______ _______ _____ _____    ______ ____
ROOT
ATOM      1  C   UNL     1       0.088   7.436 -11.098  0.00  0.00    +0.061 C 
ATOM      2  C   UNL     1       0.057   7.010 -11.504  0.00  0.00    +0.188 C 
ATOM      3  O   UNL     1       1.355   7.056 -11.539  0.00  0.00    -0.330 OA
ATOM      4  C   UNL     1       1.909   5.849 -11.254  0.00  0.00    +0.173 C 
ATOM      5  C   UNL     1       0.595   4.850 -11.318  0.00  0.00    +0.149 C 
ATOM      6  C   UNL     1       0.800   4.218  -9.789  0.00  0.00    +0.033 C 
ATOM      7  C   UNL     1       1.150   5.664  -9.146  0.00  0.00    +0.005 C 
ATOM      8  C   UNL     1       2.011   5.052  -7.822  0.00  0.00    +0.006 C 
ATOM      9  C   UNL     1       2.279   6.664  -7.416  0.00  0.00    +0.034 C 
ATOM     10  C   UNL     1       3.875   6.764  -8.069  0.00  0.00    +0.152 C 
ATOM     11  C   UNL     1       3.383   6.730  -9.639  0.00  0.00    +0.036 C 
ATOM     12  O   UNL     1       4.201   5.279  -7.971  0.00  0.00    -0.223 OA
ATOM     13  C   UNL     1       2.713   6.385  -5.913  0.00  0.00    +0.021 C 
ATOM     14  C   UNL     1       2.838   5.056  -5.500  0.00  0.00    -0.010 C 
ATOM     15  C   UNL     1       3.356   4.971  -4.267  0.00  0.00    +0.032 C 
ATOM     16  C   UNL     1       3.697   6.283  -3.663  0.00  0.00    +0.173 C 
ATOM     17  C   UNL     1       2.469   7.155  -3.645  0.00  0.00    +0.069 C 
ATOM     18  O   UNL     1       4.498   6.405  -2.721  0.00  0.00    -0.291 OA
ATOM     19  C   UNL     1       1.698   3.931  -5.816  0.00  0.00    +0.179 C 
ATOM     20  F   UNL     1       0.844   4.277  -4.601  0.00  0.00    -0.233 F 
ATOM     21  C   UNL     1       3.989   7.127  -5.645  0.00  0.00    +0.004 C 
ATOM     22  C   UNL     1       1.708   7.042  -4.969  0.00  0.00    +0.012 C 
ATOM     23  C   UNL     1       0.783   4.956  -6.781  0.00  0.00    +0.040 C 
ATOM     24  C   UNL     1       2.544   5.639  -9.987  0.00  0.00    +0.034 C 
ATOM     25  C   UNL     1       3.099   4.249  -9.939  0.00  0.00    +0.003 C 
ATOM     26  O   UNL     1      -0.354   5.947 -10.814  0.00  0.00    -0.334 OA
ATOM     27  C   UNL     1      -0.833   7.854 -12.249  0.00  0.00    +0.061 C 
ENDROOT
BRANCH   4  28
ATOM     28  C   UNL     1       2.651   5.401 -12.471  0.00  0.00    +0.210 C 
ATOM     29  O   UNL     1       2.009   5.062 -13.452  0.00  0.00    -0.291 OA
BRANCH  28  30
ATOM     30  C   UNL     1       4.061   5.818 -12.689  0.00  0.00    +0.248 C 
ATOM     31  O   UNL     1       4.859   4.786 -13.143  0.00  0.00    -0.212 OA
ENDBRANCH  28  30
ENDBRANCH   4  28
TORSDOF 2
ENDMDL
MODEL 5
REMARK VINA RESULT:      -7.3      2.047      6.951
REMARK  Name = 
REMARK  2 active torsions:
REMARK  status: ('A' for Active; 'I' for Inactive)
REMARK    1  A    between atoms: C_26  and  C_27
REMARK    2  A    between atoms: C_27  and  C_29
REMARK                            x       y       z     vdW  Elec       q    Type
REMARK                         _______ _______ _______ _____ _____    ______ ____
ROOT
ATOM      1  C   UNL     1       4.879   5.451 -10.011  0.00  0.00    +0.061 C 
ATOM      2  C   UNL     1       4.517   5.740 -10.376  0.00  0.00    +0.188 C 
ATOM      3  O   UNL     1       3.620   4.854 -10.060  0.00  0.00    -0.330 OA
ATOM      4  C   UNL     1       2.504   5.430  -9.542  0.00  0.00    +0.173 C 
ATOM      5  C   UNL     1       2.759   7.027  -9.884  0.00  0.00    +0.149 C 
ATOM      6  C   UNL     1       2.585   7.557  -8.313  0.00  0.00    +0.033 C 
ATOM      7  C   UNL     1       3.455   6.327  -7.712  0.00  0.00    +0.005 C 
ATOM      8  C   UNL     1       2.779   6.389  -6.160  0.00  0.00    +0.006 C 
ATOM      9  C   UNL     1       3.756   5.060  -5.823  0.00  0.00    +0.034 C 
ATOM     10  C   UNL     1       2.527   3.862  -6.022  0.00  0.00    +0.152 C 
ATOM     11  C   UNL     1       2.454   4.012  -7.660  0.00  0.00    +0.036 C 
ATOM     12  O   UNL     1       1.342   4.772  -5.724  0.00  0.00    -0.223 OA
ATOM     13  C   UNL     1       3.647   5.172  -4.242  0.00  0.00    +0.021 C 
ATOM     14  C   UNL     1       2.787   6.137  -3.709  0.00  0.00    -0.010 C 
ATOM     15  C   UNL     1       2.677   6.016  -2.379  0.00  0.00    +0.032 C 
ATOM     16  C   UNL     1       3.456   4.888  -1.808  0.00  0.00    +0.173 C 
ATOM     17  C   UNL     1       4.904   5.040  -2.193  0.00  0.00    +0.069 C 
ATOM     18  O   UNL     1       3.209   4.393  -0.696  0.00  0.00    -0.291 OA
ATOM     19  C   UNL     1       2.770   7.681  -4.235  0.00  0.00    +0.179 C 
ATOM     20  F   UNL     1       3.911   8.132  -3.329  0.00  0.00    -0.233 F 
ATOM     21  C   UNL     1       3.302   3.820  -3.695  0.00  0.00    +0.004 C 
ATOM     22  C   UNL     1       5.030   5.455  -3.661  0.00  0.00    +0.012 C 
ATOM     23  C   UNL     1       3.848   7.391  -5.489  0.00  0.00    +0.040 C 
ATOM     24  C   UNL     1       2.239   5.331  -8.138  0.00  0.00    +0.034 C 
ATOM     25  C   UNL     1       0.941   6.015  -7.833  0.00  0.00    +0.003 C 
ATOM     26  O   UNL     1       4.281   6.889  -9.744  0.00  0.00    -0.334 OA
ATOM     27  C   UNL     1       5.513   5.596 -11.399  0.00  0.00    +0.061 C 
ENDROOT
BRANCH   4  28
ATOM     28  C   UNL     1       1.374   5.129 -10.472  0.00  0.00    +0.210 C 
ATOM     29  O   UNL     1       0.660   4.170 -10.229  0.00  0.00    -0.291 OA
BRANCH  28  30
ATOM     30  C   UNL     1       0.814   6.195 -11.344  0.00  0.00    +0.248 C 
ATOM     31  O   UNL     1      -0.507   6.478 -11.060  0.00  0.00    -0.212 OA
ENDBRANCH  28  30
ENDBRANCH   4  28
TORSDOF 2
ENDMDL
MODEL 6
REMARK VINA RESULT:      -7.1      2.343      3.407
REMARK  Name = 
REMARK  2 active torsions:
REMARK  status: ('A' for Active; 'I' for Inactive)
REMARK    1  A    between atoms: C_26  and  C_27
REMARK    2  A    between atoms: C_27  and  C_29
REMARK                            x       y       z     vdW  Elec       q    Type
REMARK                         _______ _______ _______ _____ _____    ______ ____
ROOT
ATOM      1  C   UNL     1       3.254   9.753  -0.510  0.00  0.00    +0.061 C 
ATOM      2  C   UNL     1       3.367   9.525   0.021  0.00  0.00    +0.188 C 
ATOM      3  O   UNL     1       2.183   8.993  -0.041  0.00  0.00    -0.330 OA
ATOM      4  C   UNL     1       2.232   7.642   0.087  0.00  0.00    +0.173 C 
ATOM      5  C   UNL     1       3.791   7.405   0.581  0.00  0.00    +0.149 C 
ATOM      6  C   UNL     1       4.183   6.333  -0.634  0.00  0.00    +0.033 C 
ATOM      7  C   UNL     1       3.427   7.211  -1.768  0.00  0.00    +0.005 C 
ATOM      8  C   UNL     1       3.183   5.921  -2.840  0.00  0.00    +0.006 C 
ATOM      9  C   UNL     1       2.384   7.045  -3.806  0.00  0.00    +0.034 C 
ATOM     10  C   UNL     1       0.783   6.605  -3.330  0.00  0.00    +0.152 C 
ATOM     11  C   UNL     1       0.905   7.255  -1.823  0.00  0.00    +0.036 C 
ATOM     12  O   UNL     1       1.108   5.175  -2.915  0.00  0.00    -0.223 OA
ATOM     13  C   UNL     1       2.425   6.176  -5.136  0.00  0.00    +0.021 C 
ATOM     14  C   UNL     1       2.933   4.876  -5.058  0.00  0.00    -0.010 C 
ATOM     15  C   UNL     1       2.764   4.213  -6.209  0.00  0.00    +0.032 C 
ATOM     16  C   UNL     1       2.062   4.993  -7.259  0.00  0.00    +0.173 C 
ATOM     17  C   UNL     1       2.812   6.275  -7.510  0.00  0.00    +0.069 C 
ATOM     18  O   UNL     1       1.497   4.462  -8.230  0.00  0.00    -0.291 OA
ATOM     19  C   UNL     1       4.333   4.529  -4.295  0.00  0.00    +0.179 C 
ATOM     20  F   UNL     1       5.212   4.849  -5.499  0.00  0.00    -0.233 F 
ATOM     21  C   UNL     1       1.047   6.153  -5.727  0.00  0.00    +0.004 C 
ATOM     22  C   UNL     1       3.257   6.906  -6.188  0.00  0.00    +0.012 C 
ATOM     23  C   UNL     1       4.535   6.086  -3.701  0.00  0.00    +0.040 C 
ATOM     24  C   UNL     1       2.017   6.810  -1.060  0.00  0.00    +0.034 C 
ATOM     25  C   UNL     1       2.088   5.373  -0.646  0.00  0.00    +0.003 C 
ATOM     26  O   UNL     1       4.304   8.610  -0.220  0.00  0.00    -0.334 OA
ATOM     27  C   UNL     1       3.666  10.855   0.472  0.00  0.00    +0.061 C 
ENDROOT
BRANCH   4  28
ATOM     28  C   UNL     1       1.493   7.285   1.336  0.00  0.00    +0.210 C 
ATOM     29  O   UNL     1       2.082   7.365   2.403  0.00  0.00    -0.291 OA
BRANCH  28  30
ATOM     30  C   UNL     1       0.008   7.330   1.370  0.00  0.00    +0.248 C 
ATOM     31  O   UNL     1      -0.479   8.505   1.907  0.00  0.00    -0.212 OA
ENDBRANCH  28  30
ENDBRANCH   4  28
TORSDOF 2
ENDMDL
MODEL 7
REMARK VINA RESULT:      -6.9      2.469      3.902
REMARK  Name = 
REMARK  2 active torsions:
REMARK  status: ('A' for Active; 'I' for Inactive)
REMARK    1  A    between atoms: C_26  and  C_27
REMARK    2  A    between atoms: C_27  and  C_29
REMARK                            x       y       z     vdW  Elec       q    Type
REMARK                         _______ _______ _______ _____ _____    ______ ____
ROOT
ATOM      1  C   UNL     1       2.461   6.634  -3.144  0.00  0.00    +0.061 C 
ATOM      2  C   UNL     1       1.956   6.407  -2.943  0.00  0.00    +0.188 C 
ATOM      3  O   UNL     1       1.357   7.270  -3.709  0.00  0.00    -0.330 OA
ATOM      4  C   UNL     1       0.523   6.664  -4.592  0.00  0.00    +0.173 C 
ATOM      5  C   UNL     1       0.471   5.121  -4.005  0.00  0.00    +0.149 C 
ATOM      6  C   UNL     1       0.937   4.391  -5.430  0.00  0.00    +0.033 C 
ATOM      7  C   UNL     1       2.081   5.503  -5.723  0.00  0.00    +0.005 C 
ATOM      8  C   UNL     1       2.125   5.255  -7.398  0.00  0.00    +0.006 C 
ATOM      9  C   UNL     1       3.262   6.497  -7.421  0.00  0.00    +0.034 C 
ATOM     10  C   UNL     1       2.172   7.747  -7.902  0.00  0.00    +0.152 C 
ATOM     11  C   UNL     1       1.397   7.819  -6.452  0.00  0.00    +0.036 C 
ATOM     12  O   UNL     1       1.153   6.842  -8.583  0.00  0.00    -0.223 OA
ATOM     13  C   UNL     1       3.826   6.177  -8.871  0.00  0.00    +0.021 C 
ATOM     14  C   UNL     1       3.196   5.177  -9.617  0.00  0.00    -0.010 C 
ATOM     15  C   UNL     1       3.673   5.123 -10.868  0.00  0.00    +0.032 C 
ATOM     16  C   UNL     1       4.712   6.140 -11.164  0.00  0.00    +0.173 C 
ATOM     17  C   UNL     1       5.841   5.997 -10.177  0.00  0.00    +0.069 C 
ATOM     18  O   UNL     1       5.004   6.490 -12.320  0.00  0.00    -0.291 OA
ATOM     19  C   UNL     1       2.826   3.718  -8.987  0.00  0.00    +0.179 C 
ATOM     20  F   UNL     1       4.201   3.116  -9.256  0.00  0.00    -0.233 F 
ATOM     21  C   UNL     1       3.863   7.455  -9.656  0.00  0.00    +0.004 C 
ATOM     22  C   UNL     1       5.296   5.778  -8.763  0.00  0.00    +0.012 C 
ATOM     23  C   UNL     1       3.289   4.140  -7.429  0.00  0.00    +0.040 C 
ATOM     24  C   UNL     1       0.888   6.583  -5.975  0.00  0.00    +0.034 C 
ATOM     25  C   UNL     1      -0.209   5.905  -6.736  0.00  0.00    +0.003 C 
ATOM     26  O   UNL     1       1.915   5.192  -3.486  0.00  0.00    -0.334 OA
ATOM     27  C   UNL     1       2.431   6.656  -1.612  0.00  0.00    +0.061 C 
ENDROOT
BRANCH   4  28
ATOM     28  C   UNL     1      -0.866   7.121  -4.280  0.00  0.00    +0.210 C 
ATOM     29  O   UNL     1      -1.305   8.094  -4.871  0.00  0.00    -0.291 OA
BRANCH  28  30
ATOM     30  C   UNL     1      -1.851   6.179  -3.687  0.00  0.00    +0.248 C 
ATOM     31  O   UNL     1      -2.816   5.777  -4.589  0.00  0.00    -0.212 OA
ENDBRANCH  28  30
ENDBRANCH   4  28
TORSDOF 2
ENDMDL
MODEL 8
REMARK VINA RESULT:      -6.7      3.682      6.810
REMARK  Name = 
REMARK  2 active torsions:
REMARK  status: ('A' for Active; 'I' for Inactive)
REMARK    1  A    between atoms: C_26  and  C_27
REMARK    2  A    between atoms: C_27  and  C_29
REMARK                            x       y       z     vdW  Elec       q    Type
REMARK                         _______ _______ _______ _____ _____    ______ ____
ROOT
ATOM      1  C   UNL     1       0.885   4.463 -10.537  0.00  0.00    +0.061 C 
ATOM      2  C   UNL     1       0.561   4.776 -10.157  0.00  0.00    +0.188 C 
ATOM      3  O   UNL     1       1.326   4.288  -9.226  0.00  0.00    -0.330 OA
ATOM      4  C   UNL     1       1.935   5.268  -8.510  0.00  0.00    +0.173 C 
ATOM      5  C   UNL     1       1.116   6.612  -9.013  0.00  0.00    +0.149 C 
ATOM      6  C   UNL     1       2.472   7.457  -9.489  0.00  0.00    +0.033 C 
ATOM      7  C   UNL     1       3.142   6.155 -10.186  0.00  0.00    +0.005 C 
ATOM      8  C   UNL     1       4.737   6.716 -10.084  0.00  0.00    +0.006 C 
ATOM      9  C   UNL     1       5.162   5.238 -10.771  0.00  0.00    +0.034 C 
ATOM     10  C   UNL     1       5.620   4.465  -9.296  0.00  0.00    +0.152 C 
ATOM     11  C   UNL     1       4.080   4.318  -8.735  0.00  0.00    +0.036 C 
ATOM     12  O   UNL     1       5.952   5.736  -8.524  0.00  0.00    -0.223 OA
ATOM     13  C   UNL     1       6.625   5.676 -11.210  0.00  0.00    +0.021 C 
ATOM     14  C   UNL     1       7.077   6.942 -10.825  0.00  0.00    -0.010 C 
ATOM     15  C   UNL     1       8.370   7.115 -11.127  0.00  0.00    +0.032 C 
ATOM     16  C   UNL     1       9.009   5.931 -11.755  0.00  0.00    +0.173 C 
ATOM     17  C   UNL     1       8.239   5.551 -12.993  0.00  0.00    +0.069 C 
ATOM     18  O   UNL     1      10.239   5.756 -11.771  0.00  0.00    -0.291 OA
ATOM     19  C   UNL     1       6.170   8.287 -11.008  0.00  0.00    +0.179 C 
ATOM     20  F   UNL     1       6.595   8.525 -12.454  0.00  0.00    -0.233 F 
ATOM     21  C   UNL     1       7.591   4.626 -10.749  0.00  0.00    +0.004 C 
ATOM     22  C   UNL     1       6.732   5.621 -12.732  0.00  0.00    +0.012 C 
ATOM     23  C   UNL     1       4.811   7.446 -11.520  0.00  0.00    +0.040 C 
ATOM     24  C   UNL     1       3.332   5.524  -8.698  0.00  0.00    +0.034 C 
ATOM     25  C   UNL     1       3.760   6.619  -7.771  0.00  0.00    +0.003 C 
ATOM     26  O   UNL     1       0.892   6.038 -10.420  0.00  0.00    -0.334 OA
ATOM     27  C   UNL     1      -0.604   4.139 -10.704  0.00  0.00    +0.061 C 
ENDROOT
BRANCH   4  28
ATOM     28  C   UNL     1       1.444   5.161  -7.102  0.00  0.00    +0.210 C 
ATOM     29  O   UNL     1       0.480   5.831  -6.770  0.00  0.00    -0.291 OA
BRANCH  28  30
ATOM     30  C   UNL     1       1.753   3.957  -6.287  0.00  0.00    +0.248 C 
ATOM     31  O   UNL     1       2.694   4.202  -5.308  0.00  0.00    -0.212 OA
ENDBRANCH  28  30
ENDBRANCH   4  28
TORSDOF 2
ENDMDL
MODEL 9
REMARK VINA RESULT:      -6.6      3.381      7.153
REMARK  Name = 
REMARK  2 active torsions:
REMARK  status: ('A' for Active; 'I' for Inactive)
REMARK    1  A    between atoms: C_26  and  C_27
REMARK    2  A    between atoms: C_27  and  C_29
REMARK                            x       y       z     vdW  Elec       q    Type
REMARK                         _______ _______ _______ _____ _____    ______ ____
ROOT
ATOM      1  C   UNL     1       3.124   6.001 -12.191  0.00  0.00    +0.061 C 
ATOM      2  C   UNL     1       3.687   5.842 -12.264  0.00  0.00    +0.188 C 
ATOM      3  O   UNL     1       3.992   6.893 -11.562  0.00  0.00    -0.330 OA
ATOM      4  C   UNL     1       4.721   6.570 -10.463  0.00  0.00    +0.173 C 
ATOM      5  C   UNL     1       5.115   4.995 -10.770  0.00  0.00    +0.149 C 
ATOM      6  C   UNL     1       4.497   4.394  -9.343  0.00  0.00    +0.033 C 
ATOM      7  C   UNL     1       3.166   5.315  -9.433  0.00  0.00    +0.005 C 
ATOM      8  C   UNL     1       2.837   5.292  -7.771  0.00  0.00    +0.006 C 
ATOM      9  C   UNL     1       1.544   6.305  -8.145  0.00  0.00    +0.034 C 
ATOM     10  C   UNL     1       2.322   7.782  -7.702  0.00  0.00    +0.152 C 
ATOM     11  C   UNL     1       3.342   7.793  -8.994  0.00  0.00    +0.036 C 
ATOM     12  O   UNL     1       3.315   7.172  -6.719  0.00  0.00    -0.223 OA
ATOM     13  C   UNL     1       0.766   6.091  -6.777  0.00  0.00    +0.021 C 
ATOM     14  C   UNL     1       1.383   5.328  -5.781  0.00  0.00    -0.010 C 
ATOM     15  C   UNL     1       0.688   5.360  -4.636  0.00  0.00    +0.032 C 
ATOM     16  C   UNL     1      -0.529   6.208  -4.691  0.00  0.00    +0.173 C 
ATOM     17  C   UNL     1      -1.413   5.735  -5.816  0.00  0.00    +0.069 C 
ATOM     18  O   UNL     1      -1.088   6.654  -3.675  0.00  0.00    -0.291 OA
ATOM     19  C   UNL     1       2.081   3.886  -6.090  0.00  0.00    +0.179 C 
ATOM     20  F   UNL     1       0.785   3.092  -5.959  0.00  0.00    -0.233 F 
ATOM     21  C   UNL     1       0.388   7.436  -6.232  0.00  0.00    +0.004 C 
ATOM     22  C   UNL     1      -0.579   5.426  -7.062  0.00  0.00    +0.012 C 
ATOM     23  C   UNL     1       1.868   4.004  -7.751  0.00  0.00    +0.040 C 
ATOM     24  C   UNL     1       4.112   6.613  -9.167  0.00  0.00    +0.034 C 
ATOM     25  C   UNL     1       5.132   6.250  -8.132  0.00  0.00    +0.003 C 
ATOM     26  O   UNL     1       3.804   4.739 -11.528  0.00  0.00    -0.334 OA
ATOM     27  C   UNL     1       3.445   5.820 -13.678  0.00  0.00    +0.061 C 
ENDROOT
BRANCH   4  28
ATOM     28  C   UNL     1       6.059   7.219 -10.610  0.00  0.00    +0.210 C 
ATOM     29  O   UNL     1       7.055   6.564 -10.347  0.00  0.00    -0.291 OA
BRANCH  28  30
ATOM     30  C   UNL     1       6.231   8.395 -11.502  0.00  0.00    +0.248 C 
ATOM     31  O   UNL     1       6.562   8.041 -12.795  0.00  0.00    -0.212 OA
ENDBRANCH  28  30
ENDBRANCH   4  28
TORSDOF 2
ENDMDL
