MODEL 1
REMARK VINA RESULT:      -7.9      0.000      0.000
REMARK  Name = 
REMARK  3 active torsions:
REMARK  status: ('A' for Active; 'I' for Inactive)
REMARK    1  A    between atoms: C_4  and  O_5
REMARK    2  A    between atoms: O_5  and  C_6
REMARK    3  A    between atoms: C_35  and  C_36
REMARK                            x       y       z     vdW  Elec       q    Type
REMARK                         _______ _______ _______ _____ _____    ______ ____
ROOT
ATOM      1  C   UNL     1       0.622   6.170  -0.339  0.00  0.00    +0.142 C 
ATOM      2  C   UNL     1       1.706   6.654  -1.506  0.00  0.00    +0.064 C 
ATOM      3  C   UNL     1       2.246   8.055  -0.839  0.00  0.00    +0.134 C 
ATOM      4  O   UNL     1       3.143   8.386  -1.985  0.00  0.00    -0.334 OA
ATOM      5  C   UNL     1       3.930   7.516  -2.510  0.00  0.00    +0.224 C 
ATOM      6  C   UNL     1       4.959   6.914  -1.599  0.00  0.00    +0.093 C 
ATOM      7  C   UNL     1       4.763   7.957  -0.338  0.00  0.00    +0.170 C 
ATOM      8  O   UNL     1       5.536   7.037   0.584  0.00  0.00    -0.222 OA
ATOM      9  O   UNL     1       4.749   8.311  -3.362  0.00  0.00    -0.195 OA
ATOM     10  C   UNL     1       3.412   6.524  -3.549  0.00  0.00    +0.092 C 
ATOM     11  C   UNL     1       4.680   5.479  -3.720  0.00  0.00    +0.159 C 
ATOM     12  O   UNL     1       3.805   4.427  -4.387  0.00  0.00    -0.223 OA
ATOM     13  C   UNL     1       5.155   6.152  -5.146  0.00  0.00    +0.065 C 
ATOM     14  C   UNL     1       3.707   6.266  -5.939  0.00  0.00    +0.149 C 
ATOM     15  C   UNL     1       4.344   5.478  -7.301  0.00  0.00    +0.164 C 
ATOM     16  C   UNL     1       2.918   5.516  -8.051  0.00  0.00    +0.012 C 
ATOM     17  C   UNL     1       2.519   4.270  -7.699  0.00  0.00    +0.080 C 
ATOM     18  C   UNL     1       2.161   3.550  -8.931  0.00  0.00    +0.341 C 
ATOM     19  O   UNL     1       2.658   2.511  -9.364  0.00  0.00    -0.245 OA
ATOM     20  O   UNL     1       1.642   4.608  -9.696  0.00  0.00    -0.449 OA
ATOM     21  C   UNL     1       0.389   5.290  -9.122  0.00  0.00    +0.174 C 
ATOM     22  C   UNL     1       0.912   6.868  -9.088  0.00  0.00    +0.048 C 
ATOM     23  C   UNL     1       0.503   4.946  -7.509  0.00  0.00    +0.070 C 
ATOM     24  C   UNL     1      -0.872   5.033  -6.992  0.00  0.00    -0.022 C 
ATOM     25  C   UNL     1      -1.497   6.176  -6.882  0.00  0.00    -0.004 C 
ATOM     26  C   UNL     1      -1.966   6.648  -5.591  0.00  0.00    -0.000 C 
ATOM     27  C   UNL     1      -2.357   5.714  -4.717  0.00  0.00    -0.000 C 
ATOM     28  C   UNL     1      -1.924   6.024  -3.379  0.00  0.00    -0.000 C 
ATOM     29  C   UNL     1      -0.639   6.344  -3.213  0.00  0.00    -0.000 C 
ATOM     30  C   UNL     1       0.024   5.214  -2.601  0.00  0.00    -0.002 C 
ATOM     31  O   UNL     1       4.407   7.143  -7.170  0.00  0.00    -0.349 OA
ATOM     32  C   UNL     1       3.337   7.169   0.121  0.00  0.00    +0.161 C 
ATOM     33  C   UNL     1      -0.070   5.089  -1.346  0.00  0.00    +0.003 C 
ENDROOT
BRANCH  32  34
ATOM     34  C   UNL     1       3.159   8.117   1.372  0.00  0.00    +0.369 C 
ATOM     35  O   UNL     1       3.444   7.455   2.577  0.00  0.00    -0.245 OA
ATOM     36  O   UNL     1       3.609   9.267   1.325  0.00  0.00    -0.245 OA
ENDBRANCH  32  34
BRANCH   1  37
ATOM     37  O   UNL     1      -0.327   7.260  -0.743  0.00  0.00    -0.327 OA
BRANCH  37  46
ATOM     38  C   UNL     1       0.507   7.635   3.749  0.00  0.00    +0.035 C 
ATOM     39  C   UNL     1      -0.117   8.409   2.441  0.00  0.00    +0.150 C 
ATOM     40  C   UNL     1      -1.708   8.154   3.048  0.00  0.00    +0.199 C 
ATOM     41  O   UNL     1      -1.725   9.554   3.610  0.00  0.00    -0.219 OA
ATOM     42  C   UNL     1      -2.544   8.716   1.680  0.00  0.00    +0.160 C 
ATOM     43  N   UNL     1      -3.877   8.129   2.219  0.00  0.00    -0.127 NA
ATOM     44  C   UNL     1      -2.280   7.354   0.690  0.00  0.00    +0.228 C 
ATOM     45  O   UNL     1      -2.011   6.348   1.762  0.00  0.00    -0.216 OA
ATOM     46  C   UNL     1      -0.688   8.037   0.506  0.00  0.00    +0.268 C 
ATOM     47  O   UNL     1      -0.030   7.156   1.572  0.00  0.00    -0.328 OA
ENDBRANCH  37  46
ENDBRANCH   1  37
TORSDOF 3
ENDMDL
MODEL 2
REMARK VINA RESULT:      -6.9      3.079      9.836
REMARK  Name = 
REMARK  3 active torsions:
REMARK  status: ('A' for Active; 'I' for Inactive)
REMARK    1  A    between atoms: C_4  and  O_5
REMARK    2  A    between atoms: O_5  and  C_6
REMARK    3  A    between atoms: C_35  and  C_36
REMARK                            x       y       z     vdW  Elec       q    Type
REMARK                         _______ _______ _______ _____ _____    ______ ____
ROOT
ATOM      1  C   UNL     1       2.041   5.121  -6.032  0.00  0.00    +0.142 C 
ATOM      2  C   UNL     1       0.874   5.941  -5.175  0.00  0.00    +0.064 C 
ATOM      3  C   UNL     1       0.088   6.697  -6.403  0.00  0.00    +0.134 C 
ATOM      4  O   UNL     1      -0.867   7.408  -5.504  0.00  0.00    -0.334 OA
ATOM      5  C   UNL     1      -1.483   6.808  -4.549  0.00  0.00    +0.224 C 
ATOM      6  C   UNL     1      -2.371   5.665  -4.944  0.00  0.00    +0.093 C 
ATOM      7  C   UNL     1      -2.361   5.940  -6.569  0.00  0.00    +0.170 C 
ATOM      8  O   UNL     1      -2.938   4.566  -6.836  0.00  0.00    -0.222 OA
ATOM      9  O   UNL     1      -2.445   7.776  -4.142  0.00  0.00    -0.195 OA
ATOM     10  C   UNL     1      -0.799   6.583  -3.202  0.00  0.00    +0.092 C 
ATOM     11  C   UNL     1      -1.850   5.575  -2.422  0.00  0.00    +0.159 C 
ATOM     12  O   UNL     1      -0.800   5.170  -1.398  0.00  0.00    -0.223 OA
ATOM     13  C   UNL     1      -2.458   6.788  -1.490  0.00  0.00    +0.065 C 
ATOM     14  C   UNL     1      -1.065   7.529  -0.989  0.00  0.00    +0.149 C 
ATOM     15  C   UNL     1      -1.557   7.447   0.634  0.00  0.00    +0.164 C 
ATOM     16  C   UNL     1      -0.171   8.098   1.138  0.00  0.00    +0.012 C 
ATOM     17  C   UNL     1       0.458   6.932   1.424  0.00  0.00    +0.080 C 
ATOM     18  C   UNL     1       0.932   7.008   2.814  0.00  0.00    +0.341 C 
ATOM     19  O   UNL     1       0.633   6.267   3.750  0.00  0.00    -0.245 OA
ATOM     20  O   UNL     1       1.235   8.378   2.900  0.00  0.00    -0.449 OA
ATOM     21  C   UNL     1       2.344   8.872   1.956  0.00  0.00    +0.174 C 
ATOM     22  C   UNL     1       1.534  10.102   1.183  0.00  0.00    +0.048 C 
ATOM     23  C   UNL     1       2.313   7.744   0.748  0.00  0.00    +0.070 C 
ATOM     24  C   UNL     1       3.653   7.784   0.141  0.00  0.00    -0.022 C 
ATOM     25  C   UNL     1       4.053   8.799  -0.581  0.00  0.00    -0.004 C 
ATOM     26  C   UNL     1       4.439   8.621  -1.969  0.00  0.00    -0.000 C 
ATOM     27  C   UNL     1       5.007   7.454  -2.289  0.00  0.00    -0.000 C 
ATOM     28  C   UNL     1       4.538   6.965  -3.559  0.00  0.00    -0.000 C 
ATOM     29  C   UNL     1       3.217   6.937  -3.752  0.00  0.00    -0.000 C 
ATOM     30  C   UNL     1       2.785   5.560  -3.656  0.00  0.00    -0.002 C 
ATOM     31  O   UNL     1      -1.930   8.777  -0.306  0.00  0.00    -0.349 OA
ATOM     32  C   UNL     1      -0.808   5.278  -6.693  0.00  0.00    +0.161 C 
ATOM     33  C   UNL     1       2.913   4.833  -4.684  0.00  0.00    +0.003 C 
ENDROOT
BRANCH  32  34
ATOM     34  C   UNL     1      -0.798   5.475  -8.261  0.00  0.00    +0.369 C 
ATOM     35  O   UNL     1      -0.122   6.648  -8.637  0.00  0.00    -0.245 OA
ATOM     36  O   UNL     1      -0.547   4.509  -8.988  0.00  0.00    -0.245 OA
ENDBRANCH  32  34
BRANCH   1  37
ATOM     37  O   UNL     1       2.764   6.405  -6.312  0.00  0.00    -0.327 OA
BRANCH  37  46
ATOM     38  C   UNL     1       2.110   4.282 -10.320  0.00  0.00    +0.035 C 
ATOM     39  C   UNL     1       2.692   5.647  -9.615  0.00  0.00    +0.150 C 
ATOM     40  C   UNL     1       4.302   5.121  -9.925  0.00  0.00    +0.199 C 
ATOM     41  O   UNL     1       4.358   5.994 -11.154  0.00  0.00    -0.219 OA
ATOM     42  C   UNL     1       5.092   6.342  -9.047  0.00  0.00    +0.160 C 
ATOM     43  N   UNL     1       6.437   5.571  -9.130  0.00  0.00    -0.127 NA
ATOM     44  C   UNL     1       4.772   5.730  -7.489  0.00  0.00    +0.228 C 
ATOM     45  O   UNL     1       4.532   4.301  -7.856  0.00  0.00    -0.216 OA
ATOM     46  C   UNL     1       3.183   6.387  -7.766  0.00  0.00    +0.268 C 
ATOM     47  O   UNL     1       2.556   5.062  -8.212  0.00  0.00    -0.328 OA
ENDBRANCH  37  46
ENDBRANCH   1  37
TORSDOF 3
ENDMDL
MODEL 3
REMARK VINA RESULT:      -6.5      2.904      9.482
REMARK  Name = 
REMARK  3 active torsions:
REMARK  status: ('A' for Active; 'I' for Inactive)
REMARK    1  A    between atoms: C_4  and  O_5
REMARK    2  A    between atoms: O_5  and  C_6
REMARK    3  A    between atoms: C_35  and  C_36
REMARK                            x       y       z     vdW  Elec       q    Type
REMARK                         _______ _______ _______ _____ _____    ______ ____
ROOT
ATOM      1  C   UNL     1       0.762   4.703  -5.478  0.00  0.00    +0.142 C 
ATOM      2  C   UNL     1       0.183   5.787  -4.355  0.00  0.00    +0.064 C 
ATOM      3  C   UNL     1      -0.944   6.569  -5.259  0.00  0.00    +0.134 C 
ATOM      4  O   UNL     1      -1.328   7.511  -4.168  0.00  0.00    -0.334 OA
ATOM      5  C   UNL     1      -1.555   7.111  -2.968  0.00  0.00    +0.224 C 
ATOM      6  C   UNL     1      -2.666   6.118  -2.795  0.00  0.00    +0.093 C 
ATOM      7  C   UNL     1      -3.308   6.253  -4.307  0.00  0.00    +0.170 C 
ATOM      8  O   UNL     1      -4.117   4.988  -4.110  0.00  0.00    -0.222 OA
ATOM      9  O   UNL     1      -2.121   8.265  -2.355  0.00  0.00    -0.195 OA
ATOM     10  C   UNL     1      -0.401   6.877  -1.994  0.00  0.00    +0.092 C 
ATOM     11  C   UNL     1      -1.145   6.141  -0.715  0.00  0.00    +0.159 C 
ATOM     12  O   UNL     1       0.178   5.639  -0.154  0.00  0.00    -0.223 OA
ATOM     13  C   UNL     1      -1.139   7.516   0.191  0.00  0.00    +0.065 C 
ATOM     14  C   UNL     1       0.418   8.032  -0.029  0.00  0.00    +0.149 C 
ATOM     15  C   UNL     1       0.652   8.173   1.646  0.00  0.00    +0.164 C 
ATOM     16  C   UNL     1       2.192   8.603   1.445  0.00  0.00    +0.012 C 
ATOM     17  C   UNL     1       2.726   7.370   1.622  0.00  0.00    +0.080 C 
ATOM     18  C   UNL     1       3.749   7.473   2.675  0.00  0.00    +0.341 C 
ATOM     19  O   UNL     1       3.781   6.876   3.750  0.00  0.00    -0.245 OA
ATOM     20  O   UNL     1       4.234   8.768   2.425  0.00  0.00    -0.449 OA
ATOM     21  C   UNL     1       4.893   8.977   1.052  0.00  0.00    +0.174 C 
ATOM     22  C   UNL     1       3.999  10.265   0.498  0.00  0.00    +0.048 C 
ATOM     23  C   UNL     1       4.210   7.778   0.142  0.00  0.00    +0.070 C 
ATOM     24  C   UNL     1       5.160   7.528  -0.953  0.00  0.00    -0.022 C 
ATOM     25  C   UNL     1       5.346   8.392  -1.917  0.00  0.00    -0.004 C 
ATOM     26  C   UNL     1       5.082   8.035  -3.300  0.00  0.00    -0.000 C 
ATOM     27  C   UNL     1       5.306   6.762  -3.644  0.00  0.00    -0.000 C 
ATOM     28  C   UNL     1       4.285   6.264  -4.528  0.00  0.00    -0.000 C 
ATOM     29  C   UNL     1       3.015   6.458  -4.164  0.00  0.00    -0.000 C 
ATOM     30  C   UNL     1       2.490   5.193  -3.698  0.00  0.00    -0.002 C 
ATOM     31  O   UNL     1       0.092   9.467   0.750  0.00  0.00    -0.349 OA
ATOM     32  C   UNL     1      -2.053   5.316  -4.947  0.00  0.00    +0.161 C 
ATOM     33  C   UNL     1       2.077   4.374  -4.569  0.00  0.00    +0.003 C 
ENDROOT
BRANCH  32  34
ATOM     34  C   UNL     1      -2.681   5.379  -6.396  0.00  0.00    +0.369 C 
ATOM     35  O   UNL     1      -3.355   6.590  -6.622  0.00  0.00    -0.245 OA
ATOM     36  O   UNL     1      -2.007   5.004  -7.362  0.00  0.00    -0.245 OA
ENDBRANCH  32  34
BRANCH   1  37
ATOM     37  O   UNL     1       1.459   5.810  -6.213  0.00  0.00    -0.327 OA
BRANCH  37  46
ATOM     38  C   UNL     1       4.370   5.037  -9.668  0.00  0.00    +0.035 C 
ATOM     39  C   UNL     1       2.837   4.779  -9.134  0.00  0.00    +0.150 C 
ATOM     40  C   UNL     1       2.248   5.933 -10.267  0.00  0.00    +0.199 C 
ATOM     41  O   UNL     1       1.871   4.821 -11.214  0.00  0.00    -0.219 OA
ATOM     42  C   UNL     1       0.644   5.972  -9.708  0.00  0.00    +0.160 C 
ATOM     43  N   UNL     1       0.349   7.239 -10.556  0.00  0.00    -0.127 NA
ATOM     44  C   UNL     1       0.925   6.904  -8.309  0.00  0.00    +0.228 C 
ATOM     45  O   UNL     1       2.201   7.559  -8.730  0.00  0.00    -0.216 OA
ATOM     46  C   UNL     1       1.545   5.407  -7.670  0.00  0.00    +0.268 C 
ATOM     47  O   UNL     1       3.016   5.730  -7.953  0.00  0.00    -0.328 OA
ENDBRANCH  37  46
ENDBRANCH   1  37
TORSDOF 3
ENDMDL
