MODEL 1
REMARK VINA RESULT:      -6.2      0.000      0.000
REMARK  Name = 
REMARK  3 active torsions:
REMARK  status: ('A' for Active; 'I' for Inactive)
REMARK    1  A    between atoms: C_2  and  C_4
REMARK    2  A    between atoms: C_2  and  C_12
REMARK    3  A    between atoms: C_4  and  C_5
REMARK                            x       y       z     vdW  Elec       q    Type
REMARK                         _______ _______ _______ _____ _____    ______ ____
ROOT
ATOM      1  C   UNL     1       5.948   5.521 -11.145  0.00  0.00    +0.055 C 
ENDROOT
BRANCH   1   2
ATOM      2  C   UNL     1       5.331   6.064  -9.895  0.00  0.00    -0.020 A 
ATOM      3  C   UNL     1       5.567   5.425  -8.683  0.00  0.00    -0.001 A 
ATOM      4  C   UNL     1       4.543   5.299  -7.752  0.00  0.00    +0.042 A 
ATOM      5  C   UNL     1       3.329   5.934  -7.947  0.00  0.00    +0.196 A 
ATOM      6  O   UNL     1       2.135   5.451  -7.411  0.00  0.00    -0.287 OA
ATOM      7  C   UNL     1       3.262   6.871  -8.971  0.00  0.00    +0.042 A 
ATOM      8  C   UNL     1       4.190   6.848 -10.005  0.00  0.00    -0.001 A 
ENDBRANCH   1   2
BRANCH   1  10
ATOM      9  C   UNL     1       7.630   7.204 -10.533  0.00  0.00    +0.031 C 
ATOM     10  C   UNL     1       7.056   6.408 -11.649  0.00  0.00    +0.174 C 
ATOM     11  N   UNL     1       6.528   7.328 -12.653  0.00  0.00    -0.123 NA
BRANCH  10  12
ATOM     12  C   UNL     1       8.088   5.520 -12.266  0.00  0.00    +0.380 C 
ATOM     13  O   UNL     1       9.422   5.856 -12.199  0.00  0.00    -0.244 OA
ATOM     14  O   UNL     1       7.659   4.648 -13.070  0.00  0.00    -0.244 OA
ENDBRANCH  10  12
ENDBRANCH   1  10
TORSDOF 3
ENDMDL
MODEL 2
REMARK VINA RESULT:      -6.0      2.376      5.586
REMARK  Name = 
REMARK  3 active torsions:
REMARK  status: ('A' for Active; 'I' for Inactive)
REMARK    1  A    between atoms: C_2  and  C_4
REMARK    2  A    between atoms: C_2  and  C_12
REMARK    3  A    between atoms: C_4  and  C_5
REMARK                            x       y       z     vdW  Elec       q    Type
REMARK                         _______ _______ _______ _____ _____    ______ ____
ROOT
ATOM      1  C   UNL     1       3.653   5.468  -9.526  0.00  0.00    +0.055 C 
ENDROOT
BRANCH   1   2
ATOM      2  C   UNL     1       4.929   6.238  -9.654  0.00  0.00    -0.020 A 
ATOM      3  C   UNL     1       5.012   7.276 -10.575  0.00  0.00    -0.001 A 
ATOM      4  C   UNL     1       6.177   7.465 -11.308  0.00  0.00    +0.042 A 
ATOM      5  C   UNL     1       7.315   6.729 -11.028  0.00  0.00    +0.196 A 
ATOM      6  O   UNL     1       8.284   6.449 -11.991  0.00  0.00    -0.287 OA
ATOM      7  C   UNL     1       7.312   5.981  -9.857  0.00  0.00    +0.042 A 
ATOM      8  C   UNL     1       6.112   5.633  -9.249  0.00  0.00    -0.001 A 
ENDBRANCH   1   2
BRANCH   1  10
ATOM      9  C   UNL     1       3.768   6.098  -7.154  0.00  0.00    +0.031 C 
ATOM     10  C   UNL     1       2.864   5.897  -8.316  0.00  0.00    +0.174 C 
ATOM     11  N   UNL     1       1.891   4.863  -7.974  0.00  0.00    -0.123 NA
BRANCH  10  12
ATOM     12  C   UNL     1       2.156   7.163  -8.675  0.00  0.00    +0.380 C 
ATOM     13  O   UNL     1       2.218   8.254  -7.837  0.00  0.00    -0.244 OA
ATOM     14  O   UNL     1       1.296   7.075  -9.594  0.00  0.00    -0.244 OA
ENDBRANCH  10  12
ENDBRANCH   1  10
TORSDOF 3
ENDMDL
MODEL 3
REMARK VINA RESULT:      -6.0      5.323      6.882
REMARK  Name = 
REMARK  3 active torsions:
REMARK  status: ('A' for Active; 'I' for Inactive)
REMARK    1  A    between atoms: C_2  and  C_4
REMARK    2  A    between atoms: C_2  and  C_12
REMARK    3  A    between atoms: C_4  and  C_5
REMARK                            x       y       z     vdW  Elec       q    Type
REMARK                         _______ _______ _______ _____ _____    ______ ____
ROOT
ATOM      1  C   UNL     1       1.320   5.392  -6.765  0.00  0.00    +0.055 C 
ENDROOT
BRANCH   1   2
ATOM      2  C   UNL     1      -0.023   5.977  -6.465  0.00  0.00    -0.020 A 
ATOM      3  C   UNL     1      -0.156   6.886  -5.422  0.00  0.00    -0.001 A 
ATOM      4  C   UNL     1      -1.275   6.846  -4.600  0.00  0.00    +0.042 A 
ATOM      5  C   UNL     1      -2.338   6.011  -4.897  0.00  0.00    +0.196 A 
ATOM      6  O   UNL     1      -3.192   5.505  -3.916  0.00  0.00    -0.287 OA
ATOM      7  C   UNL     1      -2.338   5.405  -6.147  0.00  0.00    +0.042 A 
ATOM      8  C   UNL     1      -1.155   5.280  -6.867  0.00  0.00    -0.001 A 
ENDBRANCH   1   2
BRANCH   1  10
ATOM      9  C   UNL     1       1.002   6.340  -9.009  0.00  0.00    +0.031 C 
ATOM     10  C   UNL     1       1.985   6.089  -7.923  0.00  0.00    +0.174 C 
ATOM     11  N   UNL     1       3.056   5.248  -8.451  0.00  0.00    -0.123 NA
BRANCH  10  12
ATOM     12  C   UNL     1       2.553   7.369  -7.401  0.00  0.00    +0.380 C 
ATOM     13  O   UNL     1       3.270   7.381  -6.225  0.00  0.00    -0.244 OA
ATOM     14  O   UNL     1       2.102   8.428  -7.919  0.00  0.00    -0.244 OA
ENDBRANCH  10  12
ENDBRANCH   1  10
TORSDOF 3
ENDMDL
MODEL 4
REMARK VINA RESULT:      -5.8      5.730      9.208
REMARK  Name = 
REMARK  3 active torsions:
REMARK  status: ('A' for Active; 'I' for Inactive)
REMARK    1  A    between atoms: C_2  and  C_4
REMARK    2  A    between atoms: C_2  and  C_12
REMARK    3  A    between atoms: C_4  and  C_5
REMARK                            x       y       z     vdW  Elec       q    Type
REMARK                         _______ _______ _______ _____ _____    ______ ____
ROOT
ATOM      1  C   UNL     1      -1.305   5.350  -5.785  0.00  0.00    +0.055 C 
ENDROOT
BRANCH   1   2
ATOM      2  C   UNL     1       0.133   5.378  -6.198  0.00  0.00    -0.020 A 
ATOM      3  C   UNL     1       0.492   6.015  -7.380  0.00  0.00    -0.001 A 
ATOM      4  C   UNL     1       1.468   5.462  -8.201  0.00  0.00    +0.042 A 
ATOM      5  C   UNL     1       2.200   4.364  -7.786  0.00  0.00    +0.196 A 
ATOM      6  O   UNL     1       2.756   3.450  -8.682  0.00  0.00    -0.287 OA
ATOM      7  C   UNL     1       2.083   3.992  -6.452  0.00  0.00    +0.042 A 
ATOM      8  C   UNL     1       0.984   4.398  -5.704  0.00  0.00    -0.001 A 
ENDBRANCH   1   2
BRANCH   1  10
ATOM      9  C   UNL     1      -2.627   7.273  -5.015  0.00  0.00    +0.031 C 
ATOM     10  C   UNL     1      -1.572   6.295  -4.642  0.00  0.00    +0.174 C 
ATOM     11  N   UNL     1      -0.352   7.028  -4.317  0.00  0.00    -0.123 NA
BRANCH  10  12
ATOM     12  C   UNL     1      -1.994   5.465  -3.472  0.00  0.00    +0.380 C 
ATOM     13  O   UNL     1      -1.061   5.031  -2.557  0.00  0.00    -0.244 OA
ATOM     14  O   UNL     1      -3.149   4.962  -3.538  0.00  0.00    -0.244 OA
ENDBRANCH  10  12
ENDBRANCH   1  10
TORSDOF 3
ENDMDL
MODEL 5
REMARK VINA RESULT:      -5.7      1.925      5.567
REMARK  Name = 
REMARK  3 active torsions:
REMARK  status: ('A' for Active; 'I' for Inactive)
REMARK    1  A    between atoms: C_2  and  C_4
REMARK    2  A    between atoms: C_2  and  C_12
REMARK    3  A    between atoms: C_4  and  C_5
REMARK                            x       y       z     vdW  Elec       q    Type
REMARK                         _______ _______ _______ _____ _____    ______ ____
ROOT
ATOM      1  C   UNL     1       4.393   4.940  -8.605  0.00  0.00    +0.055 C 
ENDROOT
BRANCH   1   2
ATOM      2  C   UNL     1       5.169   5.588  -9.708  0.00  0.00    -0.020 A 
ATOM      3  C   UNL     1       4.664   5.567 -11.003  0.00  0.00    -0.001 A 
ATOM      4  C   UNL     1       5.519   5.374 -12.081  0.00  0.00    +0.042 A 
ATOM      5  C   UNL     1       6.890   5.354 -11.899  0.00  0.00    +0.196 A 
ATOM      6  O   UNL     1       7.749   4.652 -12.746  0.00  0.00    -0.287 OA
ATOM      7  C   UNL     1       7.371   5.761 -10.660  0.00  0.00    +0.042 A 
ATOM      8  C   UNL     1       6.538   5.753  -9.547  0.00  0.00    -0.001 A 
ENDBRANCH   1   2
BRANCH   1  10
ATOM      9  C   UNL     1       1.991   5.185  -8.149  0.00  0.00    +0.031 C 
ATOM     10  C   UNL     1       3.318   5.850  -8.072  0.00  0.00    +0.174 C 
ATOM     11  N   UNL     1       3.272   7.073  -8.869  0.00  0.00    -0.123 NA
BRANCH  10  12
ATOM     12  C   UNL     1       3.677   6.178  -6.659  0.00  0.00    +0.380 C 
ATOM     13  O   UNL     1       3.146   7.293  -6.049  0.00  0.00    -0.244 OA
ATOM     14  O   UNL     1       4.677   5.571  -6.186  0.00  0.00    -0.244 OA
ENDBRANCH  10  12
ENDBRANCH   1  10
TORSDOF 3
ENDMDL
MODEL 6
REMARK VINA RESULT:      -5.6      4.830      6.594
REMARK  Name = 
REMARK  3 active torsions:
REMARK  status: ('A' for Active; 'I' for Inactive)
REMARK    1  A    between atoms: C_2  and  C_4
REMARK    2  A    between atoms: C_2  and  C_12
REMARK    3  A    between atoms: C_4  and  C_5
REMARK                            x       y       z     vdW  Elec       q    Type
REMARK                         _______ _______ _______ _____ _____    ______ ____
ROOT
ATOM      1  C   UNL     1       1.404   5.679  -7.639  0.00  0.00    +0.055 C 
ENDROOT
BRANCH   1   2
ATOM      2  C   UNL     1       0.354   5.664  -6.574  0.00  0.00    -0.020 A 
ATOM      3  C   UNL     1      -0.898   5.131  -6.856  0.00  0.00    -0.001 A 
ATOM      4  C   UNL     1      -2.042   5.738  -6.355  0.00  0.00    +0.042 A 
ATOM      5  C   UNL     1      -1.950   6.781  -5.450  0.00  0.00    +0.196 A 
ATOM      6  O   UNL     1      -2.934   7.763  -5.332  0.00  0.00    -0.287 OA
ATOM      7  C   UNL     1      -0.699   7.031  -4.898  0.00  0.00    +0.042 A 
ATOM      8  C   UNL     1       0.452   6.579  -5.534  0.00  0.00    -0.001 A 
ENDBRANCH   1   2
BRANCH   1  10
ATOM      9  C   UNL     1       2.698   3.840  -8.629  0.00  0.00    +0.031 C 
ATOM     10  C   UNL     1       2.460   4.632  -7.395  0.00  0.00    +0.174 C 
ATOM     11  N   UNL     1       2.014   3.726  -6.340  0.00  0.00    -0.123 NA
BRANCH  10  12
ATOM     12  C   UNL     1       3.700   5.346  -6.963  0.00  0.00    +0.380 C 
ATOM     13  O   UNL     1       4.748   5.508  -7.841  0.00  0.00    -0.244 OA
ATOM     14  O   UNL     1       3.837   5.515  -5.720  0.00  0.00    -0.244 OA
ENDBRANCH  10  12
ENDBRANCH   1  10
TORSDOF 3
ENDMDL
MODEL 7
REMARK VINA RESULT:      -5.6      6.474      9.812
REMARK  Name = 
REMARK  3 active torsions:
REMARK  status: ('A' for Active; 'I' for Inactive)
REMARK    1  A    between atoms: C_2  and  C_4
REMARK    2  A    between atoms: C_2  and  C_12
REMARK    3  A    between atoms: C_4  and  C_5
REMARK                            x       y       z     vdW  Elec       q    Type
REMARK                         _______ _______ _______ _____ _____    ______ ____
ROOT
ATOM      1  C   UNL     1      -0.259   5.542  -4.113  0.00  0.00    +0.055 C 
ENDROOT
BRANCH   1   2
ATOM      2  C   UNL     1      -0.185   6.088  -5.504  0.00  0.00    -0.020 A 
ATOM      3  C   UNL     1      -0.954   5.511  -6.508  0.00  0.00    -0.001 A 
ATOM      4  C   UNL     1      -0.428   5.351  -7.784  0.00  0.00    +0.042 A 
ATOM      5  C   UNL     1       0.800   5.897  -8.115  0.00  0.00    +0.196 A 
ATOM      6  O   UNL     1       1.619   5.357  -9.106  0.00  0.00    -0.287 OA
ATOM      7  C   UNL     1       1.360   6.790  -7.209  0.00  0.00    +0.042 A 
ATOM      8  C   UNL     1       0.952   6.791  -5.880  0.00  0.00    -0.001 A 
ENDBRANCH   1   2
BRANCH   1  10
ATOM      9  C   UNL     1      -1.781   7.468  -4.005  0.00  0.00    +0.031 C 
ATOM     10  C   UNL     1      -1.296   6.260  -3.289  0.00  0.00    +0.174 C 
ATOM     11  N   UNL     1      -0.709   6.677  -2.019  0.00  0.00    -0.123 NA
BRANCH  10  12
ATOM     12  C   UNL     1      -2.410   5.294  -3.042  0.00  0.00    +0.380 C 
ATOM     13  O   UNL     1      -3.357   5.063  -4.015  0.00  0.00    -0.244 OA
ATOM     14  O   UNL     1      -2.591   4.952  -1.841  0.00  0.00    -0.244 OA
ENDBRANCH  10  12
ENDBRANCH   1  10
TORSDOF 3
ENDMDL
MODEL 8
REMARK VINA RESULT:      -5.5      4.997      6.990
REMARK  Name = 
REMARK  3 active torsions:
REMARK  status: ('A' for Active; 'I' for Inactive)
REMARK    1  A    between atoms: C_2  and  C_4
REMARK    2  A    between atoms: C_2  and  C_12
REMARK    3  A    between atoms: C_4  and  C_5
REMARK                            x       y       z     vdW  Elec       q    Type
REMARK                         _______ _______ _______ _____ _____    ______ ____
ROOT
ATOM      1  C   UNL     1       1.789   5.310  -6.141  0.00  0.00    +0.055 C 
ENDROOT
BRANCH   1   2
ATOM      2  C   UNL     1       0.882   5.868  -5.090  0.00  0.00    -0.020 A 
ATOM      3  C   UNL     1       1.107   5.553  -3.755  0.00  0.00    -0.001 A 
ATOM      4  C   UNL     1       0.035   5.307  -2.907  0.00  0.00    +0.042 A 
ATOM      5  C   UNL     1      -1.265   5.520  -3.333  0.00  0.00    +0.196 A 
ATOM      6  O   UNL     1      -2.351   4.819  -2.808  0.00  0.00    -0.287 OA
ATOM      7  C   UNL     1      -1.435   6.198  -4.534  0.00  0.00    +0.042 A 
ATOM      8  C   UNL     1      -0.399   6.257  -5.459  0.00  0.00    -0.001 A 
ENDBRANCH   1   2
BRANCH   1  10
ATOM      9  C   UNL     1       3.909   5.750  -7.302  0.00  0.00    +0.031 C 
ATOM     10  C   UNL     1       2.692   6.370  -6.716  0.00  0.00    +0.174 C 
ATOM     11  N   UNL     1       3.101   7.290  -5.659  0.00  0.00    -0.123 NA
BRANCH  10  12
ATOM     12  C   UNL     1       1.906   7.104  -7.754  0.00  0.00    +0.380 C 
ATOM     13  O   UNL     1       1.252   6.411  -8.748  0.00  0.00    -0.244 OA
ATOM     14  O   UNL     1       2.118   8.345  -7.834  0.00  0.00    -0.244 OA
ENDBRANCH  10  12
ENDBRANCH   1  10
TORSDOF 3
ENDMDL
MODEL 9
REMARK VINA RESULT:      -5.5      2.234      5.261
REMARK  Name = 
REMARK  3 active torsions:
REMARK  status: ('A' for Active; 'I' for Inactive)
REMARK    1  A    between atoms: C_2  and  C_4
REMARK    2  A    between atoms: C_2  and  C_12
REMARK    3  A    between atoms: C_4  and  C_5
REMARK                            x       y       z     vdW  Elec       q    Type
REMARK                         _______ _______ _______ _____ _____    ______ ____
ROOT
ATOM      1  C   UNL     1       4.471   6.712 -10.216  0.00  0.00    +0.055 C 
ENDROOT
BRANCH   1   2
ATOM      2  C   UNL     1       5.629   5.831 -10.562  0.00  0.00    -0.020 A 
ATOM      3  C   UNL     1       6.742   5.806  -9.730  0.00  0.00    -0.001 A 
ATOM      4  C   UNL     1       8.018   5.739 -10.275  0.00  0.00    +0.042 A 
ATOM      5  C   UNL     1       8.196   5.542 -11.633  0.00  0.00    +0.196 A 
ATOM      6  O   UNL     1       9.326   5.997 -12.315  0.00  0.00    -0.287 OA
ATOM      7  C   UNL     1       7.076   5.188 -12.374  0.00  0.00    +0.042 A 
ATOM      8  C   UNL     1       5.801   5.451 -11.887  0.00  0.00    -0.001 A 
ENDBRANCH   1   2
BRANCH   1  10
ATOM      9  C   UNL     1       2.868   6.600  -8.357  0.00  0.00    +0.031 C 
ATOM     10  C   UNL     1       3.344   5.929  -9.594  0.00  0.00    +0.174 C 
ATOM     11  N   UNL     1       3.812   4.590  -9.246  0.00  0.00    -0.123 NA
BRANCH  10  12
ATOM     12  C   UNL     1       2.254   5.838 -10.613  0.00  0.00    +0.380 C 
ATOM     13  O   UNL     1       2.400   6.443 -11.841  0.00  0.00    -0.244 OA
ATOM     14  O   UNL     1       1.130   5.450 -10.190  0.00  0.00    -0.244 OA
ENDBRANCH  10  12
ENDBRANCH   1  10
TORSDOF 3
ENDMDL
