MODEL 1
REMARK VINA RESULT:      -9.0      0.000      0.000
REMARK  Name = 
REMARK  8 active torsions:
REMARK  status: ('A' for Active; 'I' for Inactive)
REMARK    1  A    between atoms: N_4  and  C_5
REMARK    2  A    between atoms: C_5  and  C_6
REMARK    3  A    between atoms: C_6  and  C_7
REMARK    4  A    between atoms: C_6  and  C_14
REMARK    5  A    between atoms: C_7  and  C_8
REMARK    6  A    between atoms: N_16  and  C_17
REMARK    7  A    between atoms: C_17  and  C_18
REMARK    8  A    between atoms: C_23  and  C_25
REMARK                            x       y       z     vdW  Elec       q    Type
REMARK                         _______ _______ _______ _____ _____    ______ ____
ROOT
ATOM      1  C   UNL     1       1.133   4.664  -6.885  0.00  0.00    +0.082 C 
ENDROOT
BRANCH   1   8
ATOM      2  C   UNL     1       0.250   4.320 -10.917  0.00  0.00    +0.002 C 
ATOM      3  C   UNL     1       0.405   5.185  -9.539  0.00  0.00    +0.020 C 
ATOM      4  C   UNL     1       1.175   6.420 -10.278  0.00  0.00    +0.022 C 
ATOM      5  C   UNL     1       0.110   7.159 -11.068  0.00  0.00    +0.004 C 
ATOM      6  C   UNL     1       1.658   7.246  -9.140  0.00  0.00    +0.021 C 
ATOM      7  C   UNL     1       2.213   6.535  -7.977  0.00  0.00    +0.072 C 
ATOM      8  N   UNL     1       2.032   5.150  -7.866  0.00  0.00    -0.272 NA
ATOM      9  C   UNL     1       1.809   4.448  -9.126  0.00  0.00    +0.072 C 
BRANCH   4  10
ATOM     10  C   UNL     1       2.226   5.843 -11.126  0.00  0.00    -0.020 A 
ATOM     11  C   UNL     1       2.043   5.727 -12.500  0.00  0.00    +0.038 A 
ATOM     12  C   UNL     1       3.080   5.313 -13.311  0.00  0.00    +0.195 A 
ATOM     13  O   UNL     1       2.736   5.038 -14.635  0.00  0.00    -0.287 OA
ATOM     14  C   UNL     1       4.342   5.755 -12.947  0.00  0.00    +0.042 A 
ATOM     15  C   UNL     1       4.568   6.185 -11.647  0.00  0.00    +0.003 A 
ATOM     16  C   UNL     1       3.522   6.201 -10.767  0.00  0.00    -0.004 A 
ENDBRANCH   4  10
ENDBRANCH   1   8
BRANCH   1  17
ATOM     17  C   UNL     1       0.792   5.885  -5.848  0.00  0.00    +0.098 C 
BRANCH  17  18
ATOM     18  C   UNL     1      -0.731   5.392  -5.661  0.00  0.00    +0.243 C 
ATOM     19  N   UNL     1      -1.300   5.611  -4.363  0.00  0.00    -0.193 NA
ATOM     20  O   UNL     1      -1.452   5.945  -6.554  0.00  0.00    -0.273 OA
BRANCH  19  21
ATOM     21  C   UNL     1      -2.742   5.749  -4.220  0.00  0.00    +0.228 C 
BRANCH  21  22
ATOM     22  C   UNL     1      -3.137   5.678  -2.797  0.00  0.00    +0.387 C 
ATOM     23  O   UNL     1      -2.354   4.848  -1.988  0.00  0.00    -0.244 OA
ATOM     24  O   UNL     1      -3.597   6.758  -2.315  0.00  0.00    -0.244 OA
ENDBRANCH  21  22
ENDBRANCH  19  21
ENDBRANCH  17  18
BRANCH  17  25
ATOM     25  C   UNL     1       1.346   5.022  -4.567  0.00  0.00    +0.037 C 
BRANCH  25  26
ATOM     26  C   UNL     1       2.708   5.507  -4.303  0.00  0.00    -0.022 A 
ATOM     27  C   UNL     1       3.864   4.765  -4.520  0.00  0.00    -0.004 A 
ATOM     28  C   UNL     1       4.976   5.276  -3.857  0.00  0.00    -0.000 A 
ATOM     29  C   UNL     1       5.240   6.621  -4.093  0.00  0.00    -0.000 A 
ATOM     30  C   UNL     1       4.156   7.442  -4.374  0.00  0.00    -0.000 A 
ATOM     31  C   UNL     1       2.884   6.882  -4.397  0.00  0.00    -0.004 A 
ENDBRANCH  25  26
ENDBRANCH  17  25
ENDBRANCH   1  17
TORSDOF 8
ENDMDL
MODEL 2
REMARK VINA RESULT:      -8.8      2.826      8.826
REMARK  Name = 
REMARK  8 active torsions:
REMARK  status: ('A' for Active; 'I' for Inactive)
REMARK    1  A    between atoms: N_4  and  C_5
REMARK    2  A    between atoms: C_5  and  C_6
REMARK    3  A    between atoms: C_6  and  C_7
REMARK    4  A    between atoms: C_6  and  C_14
REMARK    5  A    between atoms: C_7  and  C_8
REMARK    6  A    between atoms: N_16  and  C_17
REMARK    7  A    between atoms: C_17  and  C_18
REMARK    8  A    between atoms: C_23  and  C_25
REMARK                            x       y       z     vdW  Elec       q    Type
REMARK                         _______ _______ _______ _____ _____    ______ ____
ROOT
ATOM      1  C   UNL     1       2.977   4.448  -8.128  0.00  0.00    +0.082 C 
ENDROOT
BRANCH   1   8
ATOM      2  C   UNL     1       4.827   4.717  -4.432  0.00  0.00    +0.002 C 
ATOM      3  C   UNL     1       4.204   5.381  -5.789  0.00  0.00    +0.020 C 
ATOM      4  C   UNL     1       3.424   6.564  -4.978  0.00  0.00    +0.022 C 
ATOM      5  C   UNL     1       4.499   7.543  -4.540  0.00  0.00    +0.004 C 
ATOM      6  C   UNL     1       2.551   7.168  -6.018  0.00  0.00    +0.021 C 
ATOM      7  C   UNL     1       1.872   6.250  -6.948  0.00  0.00    +0.072 C 
ATOM      8  N   UNL     1       2.262   4.905  -6.994  0.00  0.00    -0.272 NA
ATOM      9  C   UNL     1       2.894   4.397  -5.779  0.00  0.00    +0.072 C 
BRANCH   4  10
ATOM     10  C   UNL     1       2.720   5.938  -3.852  0.00  0.00    -0.020 A 
ATOM     11  C   UNL     1       3.302   5.891  -2.590  0.00  0.00    +0.038 A 
ATOM     12  C   UNL     1       2.586   5.427  -1.506  0.00  0.00    +0.195 A 
ATOM     13  O   UNL     1       3.322   5.232  -0.336  0.00  0.00    -0.287 OA
ATOM     14  C   UNL     1       1.239   5.752  -1.491  0.00  0.00    +0.042 A 
ATOM     15  C   UNL     1       0.608   6.112  -2.674  0.00  0.00    +0.003 A 
ATOM     16  C   UNL     1       1.349   6.177  -3.821  0.00  0.00    -0.004 A 
ENDBRANCH   4  10
ENDBRANCH   1   8
BRANCH   1  17
ATOM     17  C   UNL     1       2.953   5.630  -9.263  0.00  0.00    +0.098 C 
BRANCH  17  18
ATOM     18  C   UNL     1       4.330   5.117  -9.925  0.00  0.00    +0.243 C 
ATOM     19  N   UNL     1       4.829   5.909 -11.011  0.00  0.00    -0.193 NA
ATOM     20  O   UNL     1       5.211   5.020  -9.011  0.00  0.00    -0.273 OA
BRANCH  19  21
ATOM     21  C   UNL     1       6.254   5.914 -11.305  0.00  0.00    +0.228 C 
BRANCH  21  22
ATOM     22  C   UNL     1       6.521   5.290 -12.619  0.00  0.00    +0.387 C 
ATOM     23  O   UNL     1       7.728   4.590 -12.725  0.00  0.00    -0.244 OA
ATOM     24  O   UNL     1       5.495   4.851 -13.221  0.00  0.00    -0.244 OA
ENDBRANCH  21  22
ENDBRANCH  19  21
ENDBRANCH  17  18
BRANCH  17  25
ATOM     25  C   UNL     1       2.008   4.728 -10.256  0.00  0.00    +0.037 C 
BRANCH  25  26
ATOM     26  C   UNL     1       1.190   5.681 -11.021  0.00  0.00    -0.022 A 
ATOM     27  C   UNL     1       0.516   6.763 -10.464  0.00  0.00    -0.004 A 
ATOM     28  C   UNL     1      -0.471   7.281 -11.297  0.00  0.00    -0.000 A 
ATOM     29  C   UNL     1      -0.051   7.609 -12.582  0.00  0.00    -0.000 A 
ATOM     30  C   UNL     1       0.996   6.871 -13.116  0.00  0.00    -0.000 A 
ATOM     31  C   UNL     1       1.555   5.855 -12.350  0.00  0.00    -0.004 A 
ENDBRANCH  25  26
ENDBRANCH  17  25
ENDBRANCH   1  17
TORSDOF 8
ENDMDL
MODEL 3
REMARK VINA RESULT:      -8.7      1.078      1.429
REMARK  Name = 
REMARK  8 active torsions:
REMARK  status: ('A' for Active; 'I' for Inactive)
REMARK    1  A    between atoms: N_4  and  C_5
REMARK    2  A    between atoms: C_5  and  C_6
REMARK    3  A    between atoms: C_6  and  C_7
REMARK    4  A    between atoms: C_6  and  C_14
REMARK    5  A    between atoms: C_7  and  C_8
REMARK    6  A    between atoms: N_16  and  C_17
REMARK    7  A    between atoms: C_17  and  C_18
REMARK    8  A    between atoms: C_23  and  C_25
REMARK                            x       y       z     vdW  Elec       q    Type
REMARK                         _______ _______ _______ _____ _____    ______ ____
ROOT
ATOM      1  C   UNL     1       1.763   4.497  -7.131  0.00  0.00    +0.082 C 
ENDROOT
BRANCH   1   8
ATOM      2  C   UNL     1      -0.158   4.317 -10.797  0.00  0.00    +0.002 C 
ATOM      3  C   UNL     1       0.437   5.137  -9.513  0.00  0.00    +0.020 C 
ATOM      4  C   UNL     1       1.115   6.299 -10.438  0.00  0.00    +0.022 C 
ATOM      5  C   UNL     1      -0.034   7.158 -10.934  0.00  0.00    +0.004 C 
ATOM      6  C   UNL     1       1.957   7.050  -9.471  0.00  0.00    +0.021 C 
ATOM      7  C   UNL     1       2.716   6.266  -8.482  0.00  0.00    +0.072 C 
ATOM      8  N   UNL     1       2.426   4.905  -8.315  0.00  0.00    -0.272 NA
ATOM      9  C   UNL     1       1.814   4.252  -9.469  0.00  0.00    +0.072 C 
BRANCH   4  10
ATOM     10  C   UNL     1       1.846   5.631 -11.522  0.00  0.00    -0.020 A 
ATOM     11  C   UNL     1       1.229   5.380 -12.743  0.00  0.00    +0.038 A 
ATOM     12  C   UNL     1       1.955   4.878 -13.803  0.00  0.00    +0.195 A 
ATOM     13  O   UNL     1       1.206   4.474 -14.909  0.00  0.00    -0.287 OA
ATOM     14  C   UNL     1       3.255   5.343 -13.917  0.00  0.00    +0.042 A 
ATOM     15  C   UNL     1       3.882   5.900 -12.810  0.00  0.00    +0.003 A 
ATOM     16  C   UNL     1       3.179   6.013 -11.643  0.00  0.00    -0.004 A 
ENDBRANCH   4  10
ENDBRANCH   1   8
BRANCH   1  17
ATOM     17  C   UNL     1       1.837   5.726  -6.050  0.00  0.00    +0.098 C 
BRANCH  17  18
ATOM     18  C   UNL     1       0.441   5.300  -5.367  0.00  0.00    +0.243 C 
ATOM     19  N   UNL     1       0.100   5.999  -4.163  0.00  0.00    -0.193 NA
ATOM     20  O   UNL     1      -0.490   5.427  -6.226  0.00  0.00    -0.273 OA
BRANCH  19  21
ATOM     21  C   UNL     1      -1.297   6.137  -3.778  0.00  0.00    +0.228 C 
BRANCH  21  22
ATOM     22  C   UNL     1      -1.569   5.408  -2.520  0.00  0.00    +0.387 C 
ATOM     23  O   UNL     1      -2.779   4.708  -2.473  0.00  0.00    -0.244 OA
ATOM     24  O   UNL     1      -0.546   4.916  -1.954  0.00  0.00    -0.244 OA
ENDBRANCH  21  22
ENDBRANCH  19  21
ENDBRANCH  17  18
BRANCH  17  25
ATOM     25  C   UNL     1       2.745   4.832  -5.016  0.00  0.00    +0.037 C 
BRANCH  25  26
ATOM     26  C   UNL     1       3.654   5.774  -4.348  0.00  0.00    -0.022 A 
ATOM     27  C   UNL     1       3.987   7.031  -4.842  0.00  0.00    -0.004 A 
ATOM     28  C   UNL     1       5.127   7.568  -4.250  0.00  0.00    -0.000 A 
ATOM     29  C   UNL     1       5.109   7.607  -2.859  0.00  0.00    -0.000 A 
ATOM     30  C   UNL     1       4.379   6.625  -2.205  0.00  0.00    -0.000 A 
ATOM     31  C   UNL     1       3.720   5.665  -2.965  0.00  0.00    -0.004 A 
ENDBRANCH  25  26
ENDBRANCH  17  25
ENDBRANCH   1  17
TORSDOF 8
ENDMDL
MODEL 4
REMARK VINA RESULT:      -8.7      3.010      8.709
REMARK  Name = 
REMARK  8 active torsions:
REMARK  status: ('A' for Active; 'I' for Inactive)
REMARK    1  A    between atoms: N_4  and  C_5
REMARK    2  A    between atoms: C_5  and  C_6
REMARK    3  A    between atoms: C_6  and  C_7
REMARK    4  A    between atoms: C_6  and  C_14
REMARK    5  A    between atoms: C_7  and  C_8
REMARK    6  A    between atoms: N_16  and  C_17
REMARK    7  A    between atoms: C_17  and  C_18
REMARK    8  A    between atoms: C_23  and  C_25
REMARK                            x       y       z     vdW  Elec       q    Type
REMARK                         _______ _______ _______ _____ _____    ______ ____
ROOT
ATOM      1  C   UNL     1       3.266   6.600  -6.153  0.00  0.00    +0.082 C 
ENDROOT
BRANCH   1   8
ATOM      2  C   UNL     1       1.655   5.438  -2.518  0.00  0.00    +0.002 C 
ATOM      3  C   UNL     1       2.901   5.595  -3.564  0.00  0.00    +0.020 C 
ATOM      4  C   UNL     1       3.932   6.135  -2.418  0.00  0.00    +0.022 C 
ATOM      5  C   UNL     1       4.294   4.922  -1.581  0.00  0.00    +0.004 C 
ATOM      6  C   UNL     1       5.101   6.599  -3.209  0.00  0.00    +0.021 C 
ATOM      7  C   UNL     1       4.827   7.336  -4.454  0.00  0.00    +0.072 C 
ATOM      8  N   UNL     1       3.526   7.345  -4.976  0.00  0.00    -0.272 NA
ATOM      9  C   UNL     1       2.463   7.110  -4.003  0.00  0.00    +0.072 C 
BRANCH   4  10
ATOM     10  C   UNL     1       3.236   7.177  -1.654  0.00  0.00    -0.020 A 
ATOM     11  C   UNL     1       2.640   6.881  -0.432  0.00  0.00    +0.038 A 
ATOM     12  C   UNL     1       2.107   7.886   0.348  0.00  0.00    +0.195 A 
ATOM     13  O   UNL     1       1.359   7.464   1.447  0.00  0.00    -0.287 OA
ATOM     14  C   UNL     1       2.798   9.088   0.337  0.00  0.00    +0.042 A 
ATOM     15  C   UNL     1       3.668   9.367  -0.709  0.00  0.00    +0.003 A 
ATOM     16  C   UNL     1       3.852   8.425  -1.682  0.00  0.00    -0.004 A 
ENDBRANCH   4  10
ENDBRANCH   1   8
BRANCH   1  17
ATOM     17  C   UNL     1       2.016   7.306  -6.943  0.00  0.00    +0.098 C 
BRANCH  17  18
ATOM     18  C   UNL     1       2.767   7.200  -8.365  0.00  0.00    +0.243 C 
ATOM     19  N   UNL     1       3.803   6.212  -8.448  0.00  0.00    -0.193 NA
ATOM     20  O   UNL     1       1.897   7.001  -9.272  0.00  0.00    -0.273 OA
BRANCH  19  21
ATOM     21  C   UNL     1       4.147   5.633  -9.738  0.00  0.00    +0.228 C 
BRANCH  21  22
ATOM     22  C   UNL     1       5.424   6.186 -10.238  0.00  0.00    +0.387 C 
ATOM     23  O   UNL     1       5.343   7.433 -10.866  0.00  0.00    -0.244 OA
ATOM     24  O   UNL     1       6.439   5.916  -9.526  0.00  0.00    -0.244 OA
ENDBRANCH  21  22
ENDBRANCH  19  21
ENDBRANCH  17  18
BRANCH  17  25
ATOM     25  C   UNL     1       1.246   5.868  -7.116  0.00  0.00    +0.037 C 
BRANCH  25  26
ATOM     26  C   UNL     1      -0.015   5.985  -6.368  0.00  0.00    -0.022 A 
ATOM     27  C   UNL     1      -0.357   7.069  -5.567  0.00  0.00    -0.004 A 
ATOM     28  C   UNL     1      -1.396   6.792  -4.684  0.00  0.00    -0.000 A 
ATOM     29  C   UNL     1      -2.545   6.268  -5.267  0.00  0.00    -0.000 A 
ATOM     30  C   UNL     1      -2.383   5.506  -6.416  0.00  0.00    -0.000 A 
ATOM     31  C   UNL     1      -1.099   5.308  -6.911  0.00  0.00    -0.004 A 
ENDBRANCH  25  26
ENDBRANCH  17  25
ENDBRANCH   1  17
TORSDOF 8
ENDMDL
MODEL 5
REMARK VINA RESULT:      -8.2      1.486      1.726
REMARK  Name = 
REMARK  8 active torsions:
REMARK  status: ('A' for Active; 'I' for Inactive)
REMARK    1  A    between atoms: N_4  and  C_5
REMARK    2  A    between atoms: C_5  and  C_6
REMARK    3  A    between atoms: C_6  and  C_7
REMARK    4  A    between atoms: C_6  and  C_14
REMARK    5  A    between atoms: C_7  and  C_8
REMARK    6  A    between atoms: N_16  and  C_17
REMARK    7  A    between atoms: C_17  and  C_18
REMARK    8  A    between atoms: C_23  and  C_25
REMARK                            x       y       z     vdW  Elec       q    Type
REMARK                         _______ _______ _______ _____ _____    ______ ____
ROOT
ATOM      1  C   UNL     1       1.946   4.972  -5.917  0.00  0.00    +0.082 C 
ENDROOT
BRANCH   1   8
ATOM      2  C   UNL     1       1.412   4.223  -9.955  0.00  0.00    +0.002 C 
ATOM      3  C   UNL     1       1.288   5.174  -8.632  0.00  0.00    +0.020 C 
ATOM      4  C   UNL     1       1.812   6.508  -9.413  0.00  0.00    +0.022 C 
ATOM      5  C   UNL     1       0.661   6.947 -10.300  0.00  0.00    +0.004 C 
ATOM      6  C   UNL     1       2.030   7.481  -8.310  0.00  0.00    +0.021 C 
ATOM      7  C   UNL     1       2.655   6.976  -7.076  0.00  0.00    +0.072 C 
ATOM      8  N   UNL     1       2.776   5.593  -6.883  0.00  0.00    -0.272 NA
ATOM      9  C   UNL     1       2.790   4.792  -8.104  0.00  0.00    +0.072 C 
BRANCH   4  10
ATOM     10  C   UNL     1       3.014   6.135 -10.169  0.00  0.00    -0.020 A 
ATOM     11  C   UNL     1       2.929   5.810 -11.519  0.00  0.00    +0.038 A 
ATOM     12  C   UNL     1       4.073   5.594 -12.259  0.00  0.00    +0.195 A 
ATOM     13  O   UNL     1       3.874   5.079 -13.540  0.00  0.00    -0.287 OA
ATOM     14  C   UNL     1       5.157   6.397 -11.941  0.00  0.00    +0.042 A 
ATOM     15  C   UNL     1       5.204   7.025 -10.704  0.00  0.00    +0.003 A 
ATOM     16  C   UNL     1       4.152   6.867  -9.845  0.00  0.00    -0.004 A 
ENDBRANCH   4  10
ENDBRANCH   1   8
BRANCH   1  17
ATOM     17  C   UNL     1       1.682   6.039  -4.702  0.00  0.00    +0.098 C 
BRANCH  17  18
ATOM     18  C   UNL     1       0.180   5.504  -4.468  0.00  0.00    +0.243 C 
ATOM     19  N   UNL     1      -0.717   6.429  -3.839  0.00  0.00    -0.193 NA
ATOM     20  O   UNL     1      -0.297   5.122  -5.584  0.00  0.00    -0.273 OA
BRANCH  19  21
ATOM     21  C   UNL     1      -2.149   6.320  -4.074  0.00  0.00    +0.228 C 
BRANCH  21  22
ATOM     22  C   UNL     1      -2.848   5.863  -2.853  0.00  0.00    +0.387 C 
ATOM     23  O   UNL     1      -4.033   6.538  -2.542  0.00  0.00    -0.244 OA
ATOM     24  O   UNL     1      -2.766   4.617  -2.624  0.00  0.00    -0.244 OA
ENDBRANCH  21  22
ENDBRANCH  19  21
ENDBRANCH  17  18
BRANCH  17  25
ATOM     25  C   UNL     1       2.337   5.022  -3.595  0.00  0.00    +0.037 C 
BRANCH  25  26
ATOM     26  C   UNL     1       3.021   5.873  -2.610  0.00  0.00    -0.022 A 
ATOM     27  C   UNL     1       3.885   5.402  -1.628  0.00  0.00    -0.004 A 
ATOM     28  C   UNL     1       4.103   6.318  -0.603  0.00  0.00    -0.000 A 
ATOM     29  C   UNL     1       4.516   7.580  -1.015  0.00  0.00    -0.000 A 
ATOM     30  C   UNL     1       4.084   8.015  -2.261  0.00  0.00    -0.000 A 
ATOM     31  C   UNL     1       3.269   7.178  -3.014  0.00  0.00    -0.004 A 
ENDBRANCH  25  26
ENDBRANCH  17  25
ENDBRANCH   1  17
TORSDOF 8
ENDMDL
MODEL 6
REMARK VINA RESULT:      -8.2      2.711      8.944
REMARK  Name = 
REMARK  8 active torsions:
REMARK  status: ('A' for Active; 'I' for Inactive)
REMARK    1  A    between atoms: N_4  and  C_5
REMARK    2  A    between atoms: C_5  and  C_6
REMARK    3  A    between atoms: C_6  and  C_7
REMARK    4  A    between atoms: C_6  and  C_14
REMARK    5  A    between atoms: C_7  and  C_8
REMARK    6  A    between atoms: N_16  and  C_17
REMARK    7  A    between atoms: C_17  and  C_18
REMARK    8  A    between atoms: C_23  and  C_25
REMARK                            x       y       z     vdW  Elec       q    Type
REMARK                         _______ _______ _______ _____ _____    ______ ____
ROOT
ATOM      1  C   UNL     1       3.275   5.142  -9.585  0.00  0.00    +0.082 C 
ENDROOT
BRANCH   1   8
ATOM      2  C   UNL     1       3.311   4.395  -5.511  0.00  0.00    +0.002 C 
ATOM      3  C   UNL     1       3.482   5.383  -6.802  0.00  0.00    +0.020 C 
ATOM      4  C   UNL     1       2.648   6.603  -6.110  0.00  0.00    +0.022 C 
ATOM      5  C   UNL     1       3.571   7.194  -5.060  0.00  0.00    +0.004 C 
ATOM      6  C   UNL     1       2.449   7.555  -7.234  0.00  0.00    +0.021 C 
ATOM      7  C   UNL     1       2.100   6.988  -8.547  0.00  0.00    +0.072 C 
ATOM      8  N   UNL     1       2.225   5.608  -8.755  0.00  0.00    -0.272 NA
ATOM      9  C   UNL     1       2.152   4.787  -7.550  0.00  0.00    +0.072 C 
BRANCH   4  10
ATOM     10  C   UNL     1       1.419   6.035  -5.543  0.00  0.00    -0.020 A 
ATOM     11  C   UNL     1       1.357   5.678  -4.200  0.00  0.00    +0.038 A 
ATOM     12  C   UNL     1       0.164   5.272  -3.639  0.00  0.00    +0.195 A 
ATOM     13  O   UNL     1       0.253   4.747  -2.349  0.00  0.00    -0.287 OA
ATOM     14  C   UNL     1      -0.970   5.921  -4.100  0.00  0.00    +0.042 A 
ATOM     15  C   UNL     1      -0.933   6.580  -5.322  0.00  0.00    +0.003 A 
ATOM     16  C   UNL     1       0.243   6.605  -6.020  0.00  0.00    -0.004 A 
ENDBRANCH   4  10
ENDBRANCH   1   8
BRANCH   1  17
ATOM     17  C   UNL     1       3.602   6.298 -10.699  0.00  0.00    +0.098 C 
BRANCH  17  18
ATOM     18  C   UNL     1       5.161   5.895 -10.760  0.00  0.00    +0.243 C 
ATOM     19  N   UNL     1       5.941   6.580 -11.748  0.00  0.00    -0.193 NA
ATOM     20  O   UNL     1       5.671   6.061  -9.606  0.00  0.00    -0.273 OA
BRANCH  19  21
ATOM     21  C   UNL     1       7.374   6.745 -11.551  0.00  0.00    +0.228 C 
BRANCH  21  22
ATOM     22  C   UNL     1       8.133   5.801 -12.398  0.00  0.00    +0.387 C 
ATOM     23  O   UNL     1       9.519   5.796 -12.212  0.00  0.00    -0.244 OA
ATOM     24  O   UNL     1       7.538   4.709 -12.650  0.00  0.00    -0.244 OA
ENDBRANCH  21  22
ENDBRANCH  19  21
ENDBRANCH  17  18
BRANCH  17  25
ATOM     25  C   UNL     1       3.180   5.302 -11.933  0.00  0.00    +0.037 C 
BRANCH  25  26
ATOM     26  C   UNL     1       2.140   6.009 -12.694  0.00  0.00    -0.022 A 
ATOM     27  C   UNL     1       1.305   6.987 -12.165  0.00  0.00    -0.004 A 
ATOM     28  C   UNL     1       0.180   7.230 -12.948  0.00  0.00    -0.000 A 
ATOM     29  C   UNL     1       0.440   7.518 -14.284  0.00  0.00    -0.000 A 
ATOM     30  C   UNL     1       1.574   6.950 -14.847  0.00  0.00    -0.000 A 
ATOM     31  C   UNL     1       2.373   6.131 -14.058  0.00  0.00    -0.004 A 
ENDBRANCH  25  26
ENDBRANCH  17  25
ENDBRANCH   1  17
TORSDOF 8
ENDMDL
MODEL 7
REMARK VINA RESULT:      -8.0      2.623      4.907
REMARK  Name = 
REMARK  8 active torsions:
REMARK  status: ('A' for Active; 'I' for Inactive)
REMARK    1  A    between atoms: N_4  and  C_5
REMARK    2  A    between atoms: C_5  and  C_6
REMARK    3  A    between atoms: C_6  and  C_7
REMARK    4  A    between atoms: C_6  and  C_14
REMARK    5  A    between atoms: C_7  and  C_8
REMARK    6  A    between atoms: N_16  and  C_17
REMARK    7  A    between atoms: C_17  and  C_18
REMARK    8  A    between atoms: C_23  and  C_25
REMARK                            x       y       z     vdW  Elec       q    Type
REMARK                         _______ _______ _______ _____ _____    ______ ____
ROOT
ATOM      1  C   UNL     1       1.180   6.626  -5.271  0.00  0.00    +0.082 C 
ENDROOT
BRANCH   1   8
ATOM      2  C   UNL     1       3.200   7.322  -8.820  0.00  0.00    +0.002 C 
ATOM      3  C   UNL     1       2.828   6.397  -7.524  0.00  0.00    +0.020 C 
ATOM      4  C   UNL     1       2.668   5.036  -8.411  0.00  0.00    +0.022 C 
ATOM      5  C   UNL     1       4.079   4.614  -8.781  0.00  0.00    +0.004 C 
ATOM      6  C   UNL     1       2.065   4.076  -7.450  0.00  0.00    +0.021 C 
ATOM      7  C   UNL     1       1.007   4.584  -6.561  0.00  0.00    +0.072 C 
ATOM      8  N   UNL     1       0.795   5.966  -6.464  0.00  0.00    -0.272 NA
ATOM      9  C   UNL     1       1.231   6.745  -7.619  0.00  0.00    +0.072 C 
BRANCH   4  10
ATOM     10  C   UNL     1       1.838   5.362  -9.577  0.00  0.00    -0.020 A 
ATOM     11  C   UNL     1       2.425   5.644 -10.807  0.00  0.00    +0.038 A 
ATOM     12  C   UNL     1       1.643   5.816 -11.931  0.00  0.00    +0.195 A 
ATOM     13  O   UNL     1       2.310   6.291 -13.061  0.00  0.00    -0.287 OA
ATOM     14  C   UNL     1       0.523   5.005 -12.015  0.00  0.00    +0.042 A 
ATOM     15  C   UNL     1       0.015   4.417 -10.865  0.00  0.00    +0.003 A 
ATOM     16  C   UNL     1       0.665   4.622  -9.679  0.00  0.00    -0.004 A 
ENDBRANCH   4  10
ENDBRANCH   1   8
BRANCH   1  17
ATOM     17  C   UNL     1       1.311   5.506  -4.082  0.00  0.00    +0.098 C 
BRANCH  17  18
ATOM     18  C   UNL     1       2.828   5.937  -3.750  0.00  0.00    +0.243 C 
ATOM     19  N   UNL     1       3.024   6.596  -2.492  0.00  0.00    -0.193 NA
ATOM     20  O   UNL     1       3.571   4.906  -3.826  0.00  0.00    -0.273 OA
BRANCH  19  21
ATOM     21  C   UNL     1       4.321   6.525  -1.834  0.00  0.00    +0.228 C 
BRANCH  21  22
ATOM     22  C   UNL     1       4.239   5.719  -0.597  0.00  0.00    +0.387 C 
ATOM     23  O   UNL     1       4.634   6.367   0.578  0.00  0.00    -0.244 OA
ATOM     24  O   UNL     1       3.273   4.897  -0.557  0.00  0.00    -0.244 OA
ENDBRANCH  21  22
ENDBRANCH  19  21
ENDBRANCH  17  18
BRANCH  17  25
ATOM     25  C   UNL     1       0.660   6.529  -2.976  0.00  0.00    +0.037 C 
BRANCH  25  26
ATOM     26  C   UNL     1      -0.798   6.361  -3.071  0.00  0.00    -0.022 A 
ATOM     27  C   UNL     1      -1.429   5.226  -3.567  0.00  0.00    -0.004 A 
ATOM     28  C   UNL     1      -2.762   5.443  -3.905  0.00  0.00    -0.000 A 
ATOM     29  C   UNL     1      -3.544   6.004  -2.901  0.00  0.00    -0.000 A 
ATOM     30  C   UNL     1      -2.908   6.841  -1.994  0.00  0.00    -0.000 A 
ATOM     31  C   UNL     1      -1.545   7.072  -2.140  0.00  0.00    -0.004 A 
ENDBRANCH  25  26
ENDBRANCH  17  25
ENDBRANCH   1  17
TORSDOF 8
ENDMDL
MODEL 8
REMARK VINA RESULT:      -7.8      2.755      5.144
REMARK  Name = 
REMARK  8 active torsions:
REMARK  status: ('A' for Active; 'I' for Inactive)
REMARK    1  A    between atoms: N_4  and  C_5
REMARK    2  A    between atoms: C_5  and  C_6
REMARK    3  A    between atoms: C_6  and  C_7
REMARK    4  A    between atoms: C_6  and  C_14
REMARK    5  A    between atoms: C_7  and  C_8
REMARK    6  A    between atoms: N_16  and  C_17
REMARK    7  A    between atoms: C_17  and  C_18
REMARK    8  A    between atoms: C_23  and  C_25
REMARK                            x       y       z     vdW  Elec       q    Type
REMARK                         _______ _______ _______ _____ _____    ______ ____
ROOT
ATOM      1  C   UNL     1       2.577   5.670  -9.675  0.00  0.00    +0.082 C 
ENDROOT
BRANCH   1   8
ATOM      2  C   UNL     1       3.282   5.192 -13.729  0.00  0.00    +0.002 C 
ATOM      3  C   UNL     1       2.357   5.023 -12.391  0.00  0.00    +0.020 C 
ATOM      4  C   UNL     1       0.992   5.502 -13.148  0.00  0.00    +0.022 C 
ATOM      5  C   UNL     1       0.583   4.341 -14.037  0.00  0.00    +0.004 C 
ATOM      6  C   UNL     1       0.030   5.675 -12.029  0.00  0.00    +0.021 C 
ATOM      7  C   UNL     1       0.530   6.310 -10.798  0.00  0.00    +0.072 C 
ATOM      8  N   UNL     1       1.910   6.481 -10.625  0.00  0.00    -0.272 NA
ATOM      9  C   UNL     1       2.691   6.535 -11.858  0.00  0.00    +0.072 C 
BRANCH   4  10
ATOM     10  C   UNL     1       1.308   6.722 -13.900  0.00  0.00    -0.020 A 
ATOM     11  C   UNL     1       1.482   6.679 -15.280  0.00  0.00    +0.038 A 
ATOM     12  C   UNL     1       1.643   7.843 -16.001  0.00  0.00    +0.195 A 
ATOM     13  O   UNL     1       2.011   7.679 -17.337  0.00  0.00    -0.287 OA
ATOM     14  C   UNL     1       0.903   8.930 -15.563  0.00  0.00    +0.042 A 
ATOM     15  C   UNL     1       0.414   8.946 -14.264  0.00  0.00    +0.003 A 
ATOM     16  C   UNL     1       0.641   7.862 -13.462  0.00  0.00    -0.004 A 
ENDBRANCH   4  10
ENDBRANCH   1   8
BRANCH   1  17
ATOM     17  C   UNL     1       3.819   6.531  -9.043  0.00  0.00    +0.098 C 
BRANCH  17  18
ATOM     18  C   UNL     1       3.392   6.167  -7.532  0.00  0.00    +0.243 C 
ATOM     19  N   UNL     1       2.389   5.152  -7.399  0.00  0.00    -0.193 NA
ATOM     20  O   UNL     1       4.436   5.840  -6.880  0.00  0.00    -0.273 OA
BRANCH  19  21
ATOM     21  C   UNL     1       2.325   4.354  -6.183  0.00  0.00    +0.228 C 
BRANCH  21  22
ATOM     22  C   UNL     1       1.581   5.070  -5.124  0.00  0.00    +0.387 C 
ATOM     23  O   UNL     1       0.190   4.924  -5.153  0.00  0.00    -0.244 OA
ATOM     24  O   UNL     1       2.174   5.134  -4.004  0.00  0.00    -0.244 OA
ENDBRANCH  21  22
ENDBRANCH  19  21
ENDBRANCH  17  18
BRANCH  17  25
ATOM     25  C   UNL     1       4.843   5.256  -9.181  0.00  0.00    +0.037 C 
BRANCH  25  26
ATOM     26  C   UNL     1       5.974   5.724  -9.995  0.00  0.00    -0.022 A 
ATOM     27  C   UNL     1       7.241   6.004  -9.495  0.00  0.00    -0.004 A 
ATOM     28  C   UNL     1       8.013   6.775 -10.359  0.00  0.00    -0.000 A 
ATOM     29  C   UNL     1       8.126   6.280 -11.654  0.00  0.00    -0.000 A 
ATOM     30  C   UNL     1       7.062   5.535 -12.145  0.00  0.00    -0.000 A 
ATOM     31  C   UNL     1       5.956   5.332 -11.327  0.00  0.00    -0.004 A 
ENDBRANCH  25  26
ENDBRANCH  17  25
ENDBRANCH   1  17
TORSDOF 8
ENDMDL
MODEL 9
REMARK VINA RESULT:      -7.7      3.402      4.810
REMARK  Name = 
REMARK  8 active torsions:
REMARK  status: ('A' for Active; 'I' for Inactive)
REMARK    1  A    between atoms: N_4  and  C_5
REMARK    2  A    between atoms: C_5  and  C_6
REMARK    3  A    between atoms: C_6  and  C_7
REMARK    4  A    between atoms: C_6  and  C_14
REMARK    5  A    between atoms: C_7  and  C_8
REMARK    6  A    between atoms: N_16  and  C_17
REMARK    7  A    between atoms: C_17  and  C_18
REMARK    8  A    between atoms: C_23  and  C_25
REMARK                            x       y       z     vdW  Elec       q    Type
REMARK                         _______ _______ _______ _____ _____    ______ ____
ROOT
ATOM      1  C   UNL     1       3.642   4.977  -2.403  0.00  0.00    +0.082 C 
ENDROOT
BRANCH   1   8
ATOM      2  C   UNL     1       1.193   4.469  -5.705  0.00  0.00    +0.002 C 
ATOM      3  C   UNL     1       2.009   5.402  -4.638  0.00  0.00    +0.020 C 
ATOM      4  C   UNL     1       2.596   6.393  -5.795  0.00  0.00    +0.022 C 
ATOM      5  C   UNL     1       1.428   7.257  -6.233  0.00  0.00    +0.004 C 
ATOM      6  C   UNL     1       3.607   7.201  -5.064  0.00  0.00    +0.021 C 
ATOM      7  C   UNL     1       4.466   6.498  -4.098  0.00  0.00    +0.072 C 
ATOM      8  N   UNL     1       4.140   5.191  -3.712  0.00  0.00    -0.272 NA
ATOM      9  C   UNL     1       3.335   4.441  -4.671  0.00  0.00    +0.072 C 
BRANCH   4  10
ATOM     10  C   UNL     1       3.127   5.549  -6.873  0.00  0.00    -0.020 A 
ATOM     11  C   UNL     1       2.427   5.401  -8.066  0.00  0.00    +0.038 A 
ATOM     12  C   UNL     1       2.989   4.722  -9.127  0.00  0.00    +0.195 A 
ATOM     13  O   UNL     1       2.132   4.458 -10.196  0.00  0.00    -0.287 OA
ATOM     14  C   UNL     1       4.355   4.888  -9.293  0.00  0.00    +0.042 A 
ATOM     15  C   UNL     1       5.126   5.328  -8.226  0.00  0.00    +0.003 A 
ATOM     16  C   UNL     1       4.505   5.627  -7.045  0.00  0.00    -0.004 A 
ENDBRANCH   4  10
ENDBRANCH   1   8
BRANCH   1  17
ATOM     17  C   UNL     1       3.387   6.437  -1.705  0.00  0.00    +0.098 C 
BRANCH  17  18
ATOM     18  C   UNL     1       2.068   5.916  -0.939  0.00  0.00    +0.243 C 
ATOM     19  N   UNL     1       0.817   6.308  -1.520  0.00  0.00    -0.193 NA
ATOM     20  O   UNL     1       2.127   4.648  -0.840  0.00  0.00    -0.273 OA
BRANCH  19  21
ATOM     21  C   UNL     1      -0.368   5.491  -1.303  0.00  0.00    +0.228 C 
BRANCH  21  22
ATOM     22  C   UNL     1      -1.203   5.442  -2.522  0.00  0.00    +0.387 C 
ATOM     23  O   UNL     1      -2.445   4.813  -2.384  0.00  0.00    -0.244 OA
ATOM     24  O   UNL     1      -1.102   6.454  -3.281  0.00  0.00    -0.244 OA
ENDBRANCH  21  22
ENDBRANCH  19  21
ENDBRANCH  17  18
BRANCH  17  25
ATOM     25  C   UNL     1       4.390   6.075  -0.458  0.00  0.00    +0.037 C 
BRANCH  25  26
ATOM     26  C   UNL     1       4.380   7.247   0.430  0.00  0.00    -0.022 A 
ATOM     27  C   UNL     1       5.238   7.423   1.511  0.00  0.00    -0.004 A 
ATOM     28  C   UNL     1       4.800   8.394   2.405  0.00  0.00    -0.000 A 
ATOM     29  C   UNL     1       4.509   9.632   1.840  0.00  0.00    -0.000 A 
ATOM     30  C   UNL     1       4.064   9.641   0.525  0.00  0.00    -0.000 A 
ATOM     31  C   UNL     1       3.929   8.429  -0.142  0.00  0.00    -0.004 A 
ENDBRANCH  25  26
ENDBRANCH  17  25
ENDBRANCH   1  17
TORSDOF 8
ENDMDL
