MODEL 1
REMARK VINA RESULT:      -5.4      0.000      0.000
REMARK  Name = 
REMARK  2 active torsions:
REMARK  status: ('A' for Active; 'I' for Inactive)
REMARK    1  A    between atoms: O_2  and  C_3
REMARK    2  A    between atoms: C_3  and  C_5
REMARK                            x       y       z     vdW  Elec       q    Type
REMARK                         _______ _______ _______ _____ _____    ______ ____
ROOT
ATOM      1  C   UNL     1       7.405   6.255 -11.030  0.00  0.00    +0.114 A 
ATOM      2  C   UNL     1       6.389   7.186 -11.151  0.00  0.00    +0.202 A 
ATOM      3  O   UNL     1       6.489   8.110 -12.183  0.00  0.00    -0.286 OA
ATOM      4  C   UNL     1       5.201   7.053 -10.444  0.00  0.00    +0.042 A 
ATOM      5  C   UNL     1       5.077   6.027  -9.518  0.00  0.00    +0.003 A 
ATOM      6  C   UNL     1       6.270   5.481  -9.067  0.00  0.00    +0.000 A 
ATOM      7  C   UNL     1       7.422   5.539  -9.842  0.00  0.00    +0.010 A 
ENDROOT
BRANCH   1   8
ATOM      8  C   UNL     1       8.229   5.850 -12.175  0.00  0.00    +0.344 C 
ATOM      9  O   UNL     1       9.488   5.875 -12.062  0.00  0.00    -0.245 OA
BRANCH   8  11
ATOM     10  C   UNL     1       6.953   5.436 -14.252  0.00  0.00    +0.256 C 
ATOM     11  O   UNL     1       7.716   5.024 -13.149  0.00  0.00    -0.441 OA
ENDBRANCH   8  11
ENDBRANCH   1   8
TORSDOF 2
ENDMDL
MODEL 2
REMARK VINA RESULT:      -5.3      2.914      4.151
REMARK  Name = 
REMARK  2 active torsions:
REMARK  status: ('A' for Active; 'I' for Inactive)
REMARK    1  A    between atoms: O_2  and  C_3
REMARK    2  A    between atoms: C_3  and  C_5
REMARK                            x       y       z     vdW  Elec       q    Type
REMARK                         _______ _______ _______ _____ _____    ______ ____
ROOT
ATOM      1  C   UNL     1       5.595   5.713  -9.770  0.00  0.00    +0.114 A 
ATOM      2  C   UNL     1       5.050   6.552 -10.726  0.00  0.00    +0.202 A 
ATOM      3  O   UNL     1       3.696   6.411 -11.002  0.00  0.00    -0.286 OA
ATOM      4  C   UNL     1       5.751   7.649 -11.206  0.00  0.00    +0.042 A 
ATOM      5  C   UNL     1       7.064   7.844 -10.798  0.00  0.00    +0.003 A 
ATOM      6  C   UNL     1       7.703   6.723 -10.289  0.00  0.00    +0.000 A 
ATOM      7  C   UNL     1       6.981   5.682  -9.721  0.00  0.00    +0.010 A 
ENDROOT
BRANCH   1   8
ATOM      8  C   UNL     1       4.780   5.119  -8.703  0.00  0.00    +0.344 C 
ATOM      9  O   UNL     1       4.433   5.843  -7.725  0.00  0.00    -0.245 OA
BRANCH   8  11
ATOM     10  C   UNL     1       2.669   3.841  -8.571  0.00  0.00    +0.256 C 
ATOM     11  O   UNL     1       4.010   4.006  -8.947  0.00  0.00    -0.441 OA
ENDBRANCH   8  11
ENDBRANCH   1   8
TORSDOF 2
ENDMDL
MODEL 3
REMARK VINA RESULT:      -5.2      9.913     11.987
REMARK  Name = 
REMARK  2 active torsions:
REMARK  status: ('A' for Active; 'I' for Inactive)
REMARK    1  A    between atoms: O_2  and  C_3
REMARK    2  A    between atoms: C_3  and  C_5
REMARK                            x       y       z     vdW  Elec       q    Type
REMARK                         _______ _______ _______ _____ _____    ______ ____
ROOT
ATOM      1  C   UNL     1      -1.894   6.041  -4.306  0.00  0.00    +0.114 A 
ATOM      2  C   UNL     1      -0.523   5.866  -4.360  0.00  0.00    +0.202 A 
ATOM      3  O   UNL     1       0.187   6.019  -3.176  0.00  0.00    -0.286 OA
ATOM      4  C   UNL     1       0.091   5.316  -5.477  0.00  0.00    +0.042 A 
ATOM      5  C   UNL     1      -0.674   5.038  -6.601  0.00  0.00    +0.003 A 
ATOM      6  C   UNL     1      -1.887   5.708  -6.678  0.00  0.00    +0.000 A 
ATOM      7  C   UNL     1      -2.531   6.159  -5.533  0.00  0.00    +0.010 A 
ENDROOT
BRANCH   1   8
ATOM      8  C   UNL     1      -2.656   5.831  -3.069  0.00  0.00    +0.344 C 
ATOM      9  O   UNL     1      -2.706   4.670  -2.571  0.00  0.00    -0.245 OA
BRANCH   8  11
ATOM     10  C   UNL     1      -2.266   7.084  -0.975  0.00  0.00    +0.256 C 
ATOM     11  O   UNL     1      -2.897   6.878  -2.210  0.00  0.00    -0.441 OA
ENDBRANCH   8  11
ENDBRANCH   1   8
TORSDOF 2
ENDMDL
MODEL 4
REMARK VINA RESULT:      -5.1      2.630      3.841
REMARK  Name = 
REMARK  2 active torsions:
REMARK  status: ('A' for Active; 'I' for Inactive)
REMARK    1  A    between atoms: O_2  and  C_3
REMARK    2  A    between atoms: C_3  and  C_5
REMARK                            x       y       z     vdW  Elec       q    Type
REMARK                         _______ _______ _______ _____ _____    ______ ____
ROOT
ATOM      1  C   UNL     1       4.933   6.571 -10.568  0.00  0.00    +0.114 A 
ATOM      2  C   UNL     1       5.633   5.808  -9.650  0.00  0.00    +0.202 A 
ATOM      3  O   UNL     1       4.918   4.859  -8.932  0.00  0.00    -0.286 OA
ATOM      4  C   UNL     1       7.020   5.807  -9.622  0.00  0.00    +0.042 A 
ATOM      5  C   UNL     1       7.714   6.670 -10.460  0.00  0.00    +0.003 A 
ATOM      6  C   UNL     1       6.985   7.747 -10.944  0.00  0.00    +0.000 A 
ATOM      7  C   UNL     1       5.602   7.683 -11.057  0.00  0.00    +0.010 A 
ENDROOT
BRANCH   1   8
ATOM      8  C   UNL     1       3.695   6.090 -11.195  0.00  0.00    +0.344 C 
ATOM      9  O   UNL     1       2.586   6.389 -10.666  0.00  0.00    -0.245 OA
BRANCH   8  11
ATOM     10  C   UNL     1       4.662   5.041 -13.213  0.00  0.00    +0.256 C 
ATOM     11  O   UNL     1       3.670   5.760 -12.530  0.00  0.00    -0.441 OA
ENDBRANCH   8  11
ENDBRANCH   1   8
TORSDOF 2
ENDMDL
MODEL 5
REMARK VINA RESULT:      -5.0      9.215     10.838
REMARK  Name = 
REMARK  2 active torsions:
REMARK  status: ('A' for Active; 'I' for Inactive)
REMARK    1  A    between atoms: O_2  and  C_3
REMARK    2  A    between atoms: C_3  and  C_5
REMARK                            x       y       z     vdW  Elec       q    Type
REMARK                         _______ _______ _______ _____ _____    ______ ____
ROOT
ATOM      1  C   UNL     1      -0.384   5.925  -4.583  0.00  0.00    +0.114 A 
ATOM      2  C   UNL     1      -0.323   5.247  -5.787  0.00  0.00    +0.202 A 
ATOM      3  O   UNL     1       0.769   4.415  -5.997  0.00  0.00    -0.286 OA
ATOM      4  C   UNL     1      -1.416   5.195  -6.642  0.00  0.00    +0.042 A 
ATOM      5  C   UNL     1      -2.553   5.928  -6.330  0.00  0.00    +0.003 A 
ATOM      6  C   UNL     1      -2.365   6.969  -5.432  0.00  0.00    +0.000 A 
ATOM      7  C   UNL     1      -1.320   6.947  -4.518  0.00  0.00    +0.010 A 
ENDROOT
BRANCH   1   8
ATOM      8  C   UNL     1       0.282   5.424  -3.374  0.00  0.00    +0.344 C 
ATOM      9  O   UNL     1       1.458   5.812  -3.118  0.00  0.00    -0.245 OA
BRANCH   8  11
ATOM     10  C   UNL     1      -0.662   5.637  -1.100  0.00  0.00    +0.256 C 
ATOM     11  O   UNL     1      -0.457   4.959  -2.310  0.00  0.00    -0.441 OA
ENDBRANCH   8  11
ENDBRANCH   1   8
TORSDOF 2
ENDMDL
MODEL 6
REMARK VINA RESULT:      -5.0      7.215      8.946
REMARK  Name = 
REMARK  2 active torsions:
REMARK  status: ('A' for Active; 'I' for Inactive)
REMARK    1  A    between atoms: O_2  and  C_3
REMARK    2  A    between atoms: C_3  and  C_5
REMARK                            x       y       z     vdW  Elec       q    Type
REMARK                         _______ _______ _______ _____ _____    ______ ____
ROOT
ATOM      1  C   UNL     1      -0.057   5.898  -6.338  0.00  0.00    +0.114 A 
ATOM      2  C   UNL     1      -0.102   6.588  -5.139  0.00  0.00    +0.202 A 
ATOM      3  O   UNL     1       1.109   6.877  -4.523  0.00  0.00    -0.286 OA
ATOM      4  C   UNL     1      -1.273   7.186  -4.695  0.00  0.00    +0.042 A 
ATOM      5  C   UNL     1      -2.445   6.996  -5.415  0.00  0.00    +0.003 A 
ATOM      6  C   UNL     1      -2.451   5.901  -6.267  0.00  0.00    +0.000 A 
ATOM      7  C   UNL     1      -1.267   5.384  -6.779  0.00  0.00    +0.010 A 
ENDROOT
BRANCH   1   8
ATOM      8  C   UNL     1       1.116   5.949  -7.220  0.00  0.00    +0.344 C 
ATOM      9  O   UNL     1       1.418   7.045  -7.773  0.00  0.00    -0.245 OA
BRANCH   8  11
ATOM     10  C   UNL     1       2.048   3.818  -6.384  0.00  0.00    +0.256 C 
ATOM     11  O   UNL     1       2.129   5.027  -7.090  0.00  0.00    -0.441 OA
ENDBRANCH   8  11
ENDBRANCH   1   8
TORSDOF 2
ENDMDL
MODEL 7
REMARK VINA RESULT:      -4.9     10.854     12.288
REMARK  Name = 
REMARK  2 active torsions:
REMARK  status: ('A' for Active; 'I' for Inactive)
REMARK    1  A    between atoms: O_2  and  C_3
REMARK    2  A    between atoms: C_3  and  C_5
REMARK                            x       y       z     vdW  Elec       q    Type
REMARK                         _______ _______ _______ _____ _____    ______ ____
ROOT
ATOM      1  C   UNL     1      -0.855   5.642  -3.008  0.00  0.00    +0.114 A 
ATOM      2  C   UNL     1      -2.163   5.563  -3.452  0.00  0.00    +0.202 A 
ATOM      3  O   UNL     1      -2.996   4.646  -2.824  0.00  0.00    -0.286 OA
ATOM      4  C   UNL     1      -2.694   6.521  -4.304  0.00  0.00    +0.042 A 
ATOM      5  C   UNL     1      -1.864   7.516  -4.805  0.00  0.00    +0.003 A 
ATOM      6  C   UNL     1      -0.505   7.239  -4.759  0.00  0.00    +0.000 A 
ATOM      7  C   UNL     1       0.014   6.350  -3.826  0.00  0.00    +0.010 A 
ENDROOT
BRANCH   1   8
ATOM      8  C   UNL     1      -0.473   5.257  -1.644  0.00  0.00    +0.344 C 
ATOM      9  O   UNL     1       0.569   4.562  -1.473  0.00  0.00    -0.245 OA
BRANCH   8  11
ATOM     10  C   UNL     1      -1.184   7.367  -0.568  0.00  0.00    +0.256 C 
ATOM     11  O   UNL     1      -0.905   5.992  -0.563  0.00  0.00    -0.441 OA
ENDBRANCH   8  11
ENDBRANCH   1   8
TORSDOF 2
ENDMDL
MODEL 8
REMARK VINA RESULT:      -4.9      2.836      4.539
REMARK  Name = 
REMARK  2 active torsions:
REMARK  status: ('A' for Active; 'I' for Inactive)
REMARK    1  A    between atoms: O_2  and  C_3
REMARK    2  A    between atoms: C_3  and  C_5
REMARK                            x       y       z     vdW  Elec       q    Type
REMARK                         _______ _______ _______ _____ _____    ______ ____
ROOT
ATOM      1  C   UNL     1       4.994   6.628 -10.231  0.00  0.00    +0.114 A 
ATOM      2  C   UNL     1       5.853   5.838  -9.488  0.00  0.00    +0.202 A 
ATOM      3  O   UNL     1       5.283   4.947  -8.587  0.00  0.00    -0.286 OA
ATOM      4  C   UNL     1       7.203   5.749  -9.799  0.00  0.00    +0.042 A 
ATOM      5  C   UNL     1       7.718   6.553 -10.808  0.00  0.00    +0.003 A 
ATOM      6  C   UNL     1       6.955   7.665 -11.134  0.00  0.00    +0.000 A 
ATOM      7  C   UNL     1       5.586   7.687 -10.903  0.00  0.00    +0.010 A 
ENDROOT
BRANCH   1   8
ATOM      8  C   UNL     1       3.615   6.216 -10.521  0.00  0.00    +0.344 C 
ATOM      9  O   UNL     1       3.411   5.356 -11.425  0.00  0.00    -0.245 OA
BRANCH   8  11
ATOM     10  C   UNL     1       2.615   7.305  -8.540  0.00  0.00    +0.256 C 
ATOM     11  O   UNL     1       2.630   6.353  -9.570  0.00  0.00    -0.441 OA
ENDBRANCH   8  11
ENDBRANCH   1   8
TORSDOF 2
ENDMDL
MODEL 9
REMARK VINA RESULT:      -4.8      6.052      7.832
REMARK  Name = 
REMARK  2 active torsions:
REMARK  status: ('A' for Active; 'I' for Inactive)
REMARK    1  A    between atoms: O_2  and  C_3
REMARK    2  A    between atoms: C_3  and  C_5
REMARK                            x       y       z     vdW  Elec       q    Type
REMARK                         _______ _______ _______ _____ _____    ______ ____
ROOT
ATOM      1  C   UNL     1       1.156   6.272  -6.891  0.00  0.00    +0.114 A 
ATOM      2  C   UNL     1       0.846   6.421  -5.551  0.00  0.00    +0.202 A 
ATOM      3  O   UNL     1       1.843   6.907  -4.715  0.00  0.00    -0.286 OA
ATOM      4  C   UNL     1      -0.464   6.335  -5.100  0.00  0.00    +0.042 A 
ATOM      5  C   UNL     1      -1.466   5.986  -5.996  0.00  0.00    +0.003 A 
ATOM      6  C   UNL     1      -1.038   5.347  -7.151  0.00  0.00    +0.000 A 
ATOM      7  C   UNL     1       0.251   5.532  -7.637  0.00  0.00    +0.010 A 
ENDROOT
BRANCH   1   8
ATOM      8  C   UNL     1       2.205   7.069  -7.539  0.00  0.00    +0.344 C 
ATOM      9  O   UNL     1       1.997   8.299  -7.748  0.00  0.00    -0.245 OA
BRANCH   8  11
ATOM     10  C   UNL     1       3.970   5.340  -7.458  0.00  0.00    +0.256 C 
ATOM     11  O   UNL     1       3.521   6.669  -7.487  0.00  0.00    -0.441 OA
ENDBRANCH   8  11
ENDBRANCH   1   8
TORSDOF 2
ENDMDL
