MODEL 1
REMARK VINA RESULT:      -8.1      0.000      0.000
REMARK  Name = 
REMARK  6 active torsions:
REMARK  status: ('A' for Active; 'I' for Inactive)
REMARK    1  A    between atoms: N_2  and  C_3
REMARK    2  A    between atoms: N_2  and  C_12
REMARK    3  A    between atoms: C_3  and  C_4
REMARK    4  A    between atoms: C_5  and  C_6
REMARK    5  A    between atoms: C_7  and  C_8
REMARK    6  A    between atoms: C_12  and  C_13
REMARK                            x       y       z     vdW  Elec       q    Type
REMARK                         _______ _______ _______ _____ _____    ______ ____
ROOT
ATOM      1  C   UNL     1       1.268   5.042 -10.060  0.00  0.00    +0.090 C 
ATOM      2  N   UNL     1       1.425   4.667  -8.681  0.00  0.00    -0.264 NA
ENDROOT
BRANCH   2   3
ATOM      3  C   UNL     1       1.002   5.670  -7.746  0.00  0.00    +0.099 C 
BRANCH   3   4
ATOM      4  C   UNL     1      -0.095   5.202  -6.848  0.00  0.00    -0.006 A 
ATOM      5  C   UNL     1       0.102   5.220  -5.480  0.00  0.00    -0.003 A 
ATOM      6  C   UNL     1      -0.913   5.570  -4.597  0.00  0.00    -0.000 A 
ATOM      7  C   UNL     1      -0.651   5.815  -3.261  0.00  0.00    -0.000 A 
ATOM      8  C   UNL     1       0.666   6.005  -2.883  0.00  0.00    -0.000 A 
ATOM      9  C   UNL     1       1.625   5.348  -3.634  0.00  0.00    -0.000 A 
ATOM     10  C   UNL     1      -2.180   5.847  -5.066  0.00  0.00    -0.000 A 
ATOM     11  C   UNL     1      -2.433   5.690  -6.408  0.00  0.00    -0.000 A 
ATOM     12  C   UNL     1       1.380   5.079  -4.971  0.00  0.00    -0.000 A 
ATOM     13  C   UNL     1      -1.400   5.374  -7.281  0.00  0.00    -0.003 A 
ENDBRANCH   3   4
ENDBRANCH   2   3
BRANCH   2  14
ATOM     14  C   UNL     1       2.716   4.096  -8.381  0.00  0.00    +0.100 C 
BRANCH  14  15
ATOM     15  C   UNL     1       3.718   5.184  -8.612  0.00  0.00    +0.000 C 
ATOM     16  C   UNL     1       4.983   5.088  -8.272  0.00  0.00    +0.046 C 
BRANCH  16  17
ATOM     17  C   UNL     1       6.073   5.540  -9.107  0.00  0.00    -0.064 C 
ATOM     18  C   UNL     1       6.766   5.853 -10.057  0.00  0.00    -0.088 C 
BRANCH  18  19
ATOM     19  C   UNL     1       7.167   6.227 -11.425  0.00  0.00    +0.054 C 
ATOM     20  C   UNL     1       6.915   7.726 -11.509  0.00  0.00    +0.013 C 
ATOM     21  C   UNL     1       6.288   5.530 -12.454  0.00  0.00    +0.013 C 
ATOM     22  C   UNL     1       8.623   5.911 -11.664  0.00  0.00    +0.013 C 
ENDBRANCH  18  19
ENDBRANCH  16  17
ENDBRANCH  14  15
ENDBRANCH   2  14
TORSDOF 6
ENDMDL
MODEL 2
REMARK VINA RESULT:      -8.1      1.409      8.981
REMARK  Name = 
REMARK  6 active torsions:
REMARK  status: ('A' for Active; 'I' for Inactive)
REMARK    1  A    between atoms: N_2  and  C_3
REMARK    2  A    between atoms: N_2  and  C_12
REMARK    3  A    between atoms: C_3  and  C_4
REMARK    4  A    between atoms: C_5  and  C_6
REMARK    5  A    between atoms: C_7  and  C_8
REMARK    6  A    between atoms: C_12  and  C_13
REMARK                            x       y       z     vdW  Elec       q    Type
REMARK                         _______ _______ _______ _____ _____    ______ ____
ROOT
ATOM      1  C   UNL     1       2.626   7.461  -8.116  0.00  0.00    +0.090 C 
ATOM      2  N   UNL     1       3.088   6.281  -8.797  0.00  0.00    -0.264 NA
ENDROOT
BRANCH   2   3
ATOM      3  C   UNL     1       3.821   6.545 -10.001  0.00  0.00    +0.099 C 
BRANCH   3   4
ATOM      4  C   UNL     1       5.056   5.716 -10.124  0.00  0.00    -0.006 A 
ATOM      5  C   UNL     1       5.578   5.467 -11.379  0.00  0.00    -0.003 A 
ATOM      6  C   UNL     1       6.947   5.441 -11.614  0.00  0.00    -0.000 A 
ATOM      7  C   UNL     1       7.456   5.427 -12.900  0.00  0.00    -0.000 A 
ATOM      8  C   UNL     1       6.601   5.747 -13.939  0.00  0.00    -0.000 A 
ATOM      9  C   UNL     1       5.264   5.439 -13.755  0.00  0.00    -0.000 A 
ATOM     10  C   UNL     1       7.836   5.599 -10.571  0.00  0.00    -0.000 A 
ATOM     11  C   UNL     1       7.339   5.700  -9.294  0.00  0.00    -0.000 A 
ATOM     12  C   UNL     1       4.734   5.432 -12.476  0.00  0.00    -0.000 A 
ATOM     13  C   UNL     1       5.967   5.760  -9.081  0.00  0.00    -0.003 A 
ENDBRANCH   3   4
ENDBRANCH   2   3
BRANCH   2  14
ATOM     14  C   UNL     1       2.074   5.263  -8.940  0.00  0.00    +0.100 C 
BRANCH  14  15
ATOM     15  C   UNL     1       0.786   5.893  -8.509  0.00  0.00    +0.000 C 
ATOM     16  C   UNL     1      -0.308   5.209  -8.263  0.00  0.00    +0.046 C 
BRANCH  16  17
ATOM     17  C   UNL     1      -1.183   5.475  -7.144  0.00  0.00    -0.064 C 
ATOM     18  C   UNL     1      -1.623   5.746  -6.042  0.00  0.00    -0.088 C 
BRANCH  18  19
ATOM     19  C   UNL     1      -1.697   6.238  -4.654  0.00  0.00    +0.054 C 
ATOM     20  C   UNL     1      -0.344   5.896  -4.047  0.00  0.00    +0.013 C 
ATOM     21  C   UNL     1      -2.777   5.497  -3.878  0.00  0.00    +0.013 C 
ATOM     22  C   UNL     1      -1.942   7.726  -4.624  0.00  0.00    +0.013 C 
ENDBRANCH  18  19
ENDBRANCH  16  17
ENDBRANCH  14  15
ENDBRANCH   2  14
TORSDOF 6
ENDMDL
MODEL 3
REMARK VINA RESULT:      -8.0      2.380      4.648
REMARK  Name = 
REMARK  6 active torsions:
REMARK  status: ('A' for Active; 'I' for Inactive)
REMARK    1  A    between atoms: N_2  and  C_3
REMARK    2  A    between atoms: N_2  and  C_12
REMARK    3  A    between atoms: C_3  and  C_4
REMARK    4  A    between atoms: C_5  and  C_6
REMARK    5  A    between atoms: C_7  and  C_8
REMARK    6  A    between atoms: C_12  and  C_13
REMARK                            x       y       z     vdW  Elec       q    Type
REMARK                         _______ _______ _______ _____ _____    ______ ____
ROOT
ATOM      1  C   UNL     1       1.756   6.632  -0.925  0.00  0.00    +0.090 C 
ATOM      2  N   UNL     1       1.958   5.756  -2.048  0.00  0.00    -0.264 NA
ENDROOT
BRANCH   2   3
ATOM      3  C   UNL     1       0.840   4.907  -2.342  0.00  0.00    +0.099 C 
BRANCH   3   4
ATOM      4  C   UNL     1      -0.350   5.662  -2.833  0.00  0.00    -0.006 A 
ATOM      5  C   UNL     1      -0.553   5.789  -4.194  0.00  0.00    -0.003 A 
ATOM      6  C   UNL     1      -1.822   5.730  -4.757  0.00  0.00    -0.000 A 
ATOM      7  C   UNL     1      -1.998   5.620  -6.124  0.00  0.00    -0.000 A 
ATOM      8  C   UNL     1      -0.904   5.265  -6.892  0.00  0.00    -0.000 A 
ATOM      9  C   UNL     1       0.336   5.651  -6.416  0.00  0.00    -0.000 A 
ATOM     10  C   UNL     1      -2.935   5.608  -3.952  0.00  0.00    -0.000 A 
ATOM     11  C   UNL     1      -2.767   5.629  -2.588  0.00  0.00    -0.000 A 
ATOM     12  C   UNL     1       0.534   5.781  -5.051  0.00  0.00    -0.000 A 
ATOM     13  C   UNL     1      -1.489   5.653  -2.043  0.00  0.00    -0.003 A 
ENDBRANCH   3   4
ENDBRANCH   2   3
BRANCH   2  14
ATOM     14  C   UNL     1       3.226   5.064  -2.019  0.00  0.00    +0.100 C 
BRANCH  14  15
ATOM     15  C   UNL     1       4.034   5.628  -3.146  0.00  0.00    +0.000 C 
ATOM     16  C   UNL     1       4.277   4.976  -4.260  0.00  0.00    +0.046 C 
BRANCH  16  17
ATOM     17  C   UNL     1       4.224   5.583  -5.571  0.00  0.00    -0.064 C 
ATOM     18  C   UNL     1       4.189   5.767  -6.774  0.00  0.00    -0.088 C 
BRANCH  18  19
ATOM     19  C   UNL     1       4.026   5.517  -8.217  0.00  0.00    +0.054 C 
ATOM     20  C   UNL     1       3.265   6.727  -8.739  0.00  0.00    +0.013 C 
ATOM     21  C   UNL     1       3.180   4.273  -8.455  0.00  0.00    +0.013 C 
ATOM     22  C   UNL     1       5.368   5.389  -8.894  0.00  0.00    +0.013 C 
ENDBRANCH  18  19
ENDBRANCH  16  17
ENDBRANCH  14  15
ENDBRANCH   2  14
TORSDOF 6
ENDMDL
MODEL 4
REMARK VINA RESULT:      -8.0      3.134      4.464
REMARK  Name = 
REMARK  6 active torsions:
REMARK  status: ('A' for Active; 'I' for Inactive)
REMARK    1  A    between atoms: N_2  and  C_3
REMARK    2  A    between atoms: N_2  and  C_12
REMARK    3  A    between atoms: C_3  and  C_4
REMARK    4  A    between atoms: C_5  and  C_6
REMARK    5  A    between atoms: C_7  and  C_8
REMARK    6  A    between atoms: C_12  and  C_13
REMARK                            x       y       z     vdW  Elec       q    Type
REMARK                         _______ _______ _______ _____ _____    ______ ____
ROOT
ATOM      1  C   UNL     1       3.012   7.388  -3.461  0.00  0.00    +0.090 C 
ATOM      2  N   UNL     1       2.559   6.558  -4.544  0.00  0.00    -0.264 NA
ENDROOT
BRANCH   2   3
ATOM      3  C   UNL     1       2.041   5.284  -4.134  0.00  0.00    +0.099 C 
BRANCH   3   4
ATOM      4  C   UNL     1       0.702   4.984  -4.719  0.00  0.00    -0.006 A 
ATOM      5  C   UNL     1      -0.413   5.628  -4.215  0.00  0.00    -0.003 A 
ATOM      6  C   UNL     1      -1.449   6.054  -5.036  0.00  0.00    -0.000 A 
ATOM      7  C   UNL     1      -2.439   6.898  -4.565  0.00  0.00    -0.000 A 
ATOM      8  C   UNL     1      -2.218   7.552  -3.367  0.00  0.00    -0.000 A 
ATOM      9  C   UNL     1      -1.414   6.900  -2.448  0.00  0.00    -0.000 A 
ATOM     10  C   UNL     1      -1.424   5.781  -6.388  0.00  0.00    -0.000 A 
ATOM     11  C   UNL     1      -0.398   5.014  -6.885  0.00  0.00    -0.000 A 
ATOM     12  C   UNL     1      -0.425   6.039  -2.893  0.00  0.00    -0.000 A 
ATOM     13  C   UNL     1       0.648   4.626  -6.056  0.00  0.00    -0.003 A 
ENDBRANCH   3   4
ENDBRANCH   2   3
BRANCH   2  14
ATOM     14  C   UNL     1       3.491   6.483  -5.644  0.00  0.00    +0.100 C 
BRANCH  14  15
ATOM     15  C   UNL     1       2.870   7.251  -6.770  0.00  0.00    +0.000 C 
ATOM     16  C   UNL     1       2.891   6.847  -8.020  0.00  0.00    +0.046 C 
BRANCH  16  17
ATOM     17  C   UNL     1       1.755   6.939  -8.910  0.00  0.00    -0.064 C 
ATOM     18  C   UNL     1       1.008   6.842  -9.866  0.00  0.00    -0.088 C 
BRANCH  18  19
ATOM     19  C   UNL     1       0.431   6.380 -11.141  0.00  0.00    +0.054 C 
ATOM     20  C   UNL     1       1.579   6.452 -12.137  0.00  0.00    +0.013 C 
ATOM     21  C   UNL     1      -0.672   7.322 -11.604  0.00  0.00    +0.013 C 
ATOM     22  C   UNL     1      -0.089   4.969 -11.016  0.00  0.00    +0.013 C 
ENDBRANCH  18  19
ENDBRANCH  16  17
ENDBRANCH  14  15
ENDBRANCH   2  14
TORSDOF 6
ENDMDL
MODEL 5
REMARK VINA RESULT:      -8.0      1.188      1.731
REMARK  Name = 
REMARK  6 active torsions:
REMARK  status: ('A' for Active; 'I' for Inactive)
REMARK    1  A    between atoms: N_2  and  C_3
REMARK    2  A    between atoms: N_2  and  C_12
REMARK    3  A    between atoms: C_3  and  C_4
REMARK    4  A    between atoms: C_5  and  C_6
REMARK    5  A    between atoms: C_7  and  C_8
REMARK    6  A    between atoms: C_12  and  C_13
REMARK                            x       y       z     vdW  Elec       q    Type
REMARK                         _______ _______ _______ _____ _____    ______ ____
ROOT
ATOM      1  C   UNL     1       2.402   7.435  -7.742  0.00  0.00    +0.090 C 
ATOM      2  N   UNL     1       1.872   6.225  -7.172  0.00  0.00    -0.264 NA
ENDROOT
BRANCH   2   3
ATOM      3  C   UNL     1       1.341   6.382  -5.848  0.00  0.00    +0.099 C 
BRANCH   3   4
ATOM      4  C   UNL     1       0.072   5.625  -5.637  0.00  0.00    -0.006 A 
ATOM      5  C   UNL     1      -0.378   5.411  -4.348  0.00  0.00    -0.003 A 
ATOM      6  C   UNL     1      -1.727   5.464  -4.023  0.00  0.00    -0.000 A 
ATOM      7  C   UNL     1      -2.150   5.485  -2.706  0.00  0.00    -0.000 A 
ATOM      8  C   UNL     1      -1.211   5.760  -1.728  0.00  0.00    -0.000 A 
ATOM      9  C   UNL     1       0.091   5.376  -1.998  0.00  0.00    -0.000 A 
ATOM     10  C   UNL     1      -2.673   5.668  -5.006  0.00  0.00    -0.000 A 
ATOM     11  C   UNL     1      -2.258   5.735  -6.314  0.00  0.00    -0.000 A 
ATOM     12  C   UNL     1       0.534   5.333  -3.310  0.00  0.00    -0.000 A 
ATOM     13  C   UNL     1      -0.903   5.716  -6.618  0.00  0.00    -0.003 A 
ENDBRANCH   3   4
ENDBRANCH   2   3
BRANCH   2  14
ATOM     14  C   UNL     1       2.746   5.086  -7.320  0.00  0.00    +0.100 C 
BRANCH  14  15
ATOM     15  C   UNL     1       4.131   5.637  -7.464  0.00  0.00    +0.000 C 
ATOM     16  C   UNL     1       5.106   4.997  -8.067  0.00  0.00    +0.046 C 
BRANCH  16  17
ATOM     17  C   UNL     1       6.044   5.630  -8.966  0.00  0.00    -0.064 C 
ATOM     18  C   UNL     1       6.629   6.025  -9.958  0.00  0.00    -0.088 C 
BRANCH  18  19
ATOM     19  C   UNL     1       6.909   6.378 -11.361  0.00  0.00    +0.054 C 
ATOM     20  C   UNL     1       5.962   5.510 -12.178  0.00  0.00    +0.013 C 
ATOM     21  C   UNL     1       8.340   6.016 -11.732  0.00  0.00    +0.013 C 
ATOM     22  C   UNL     1       6.647   7.843 -11.609  0.00  0.00    +0.013 C 
ENDBRANCH  18  19
ENDBRANCH  16  17
ENDBRANCH  14  15
ENDBRANCH   2  14
TORSDOF 6
ENDMDL
MODEL 6
REMARK VINA RESULT:      -7.6      1.652      8.584
REMARK  Name = 
REMARK  6 active torsions:
REMARK  status: ('A' for Active; 'I' for Inactive)
REMARK    1  A    between atoms: N_2  and  C_3
REMARK    2  A    between atoms: N_2  and  C_12
REMARK    3  A    between atoms: C_3  and  C_4
REMARK    4  A    between atoms: C_5  and  C_6
REMARK    5  A    between atoms: C_7  and  C_8
REMARK    6  A    between atoms: C_12  and  C_13
REMARK                            x       y       z     vdW  Elec       q    Type
REMARK                         _______ _______ _______ _____ _____    ______ ____
ROOT
ATOM      1  C   UNL     1       1.016   5.460  -9.581  0.00  0.00    +0.090 C 
ATOM      2  N   UNL     1       2.253   6.159  -9.806  0.00  0.00    -0.264 NA
ENDROOT
BRANCH   2   3
ATOM      3  C   UNL     1       3.333   5.321 -10.243  0.00  0.00    +0.099 C 
BRANCH   3   4
ATOM      4  C   UNL     1       4.093   5.900 -11.389  0.00  0.00    -0.006 A 
ATOM      5  C   UNL     1       5.469   5.995 -11.304  0.00  0.00    -0.003 A 
ATOM      6  C   UNL     1       6.291   5.758 -12.399  0.00  0.00    -0.000 A 
ATOM      7  C   UNL     1       7.660   5.622 -12.255  0.00  0.00    -0.000 A 
ATOM      8  C   UNL     1       8.161   5.423 -10.981  0.00  0.00    -0.000 A 
ATOM      9  C   UNL     1       7.440   5.980  -9.940  0.00  0.00    -0.000 A 
ATOM     10  C   UNL     1       5.742   5.482 -13.634  0.00  0.00    -0.000 A 
ATOM     11  C   UNL     1       4.376   5.528 -13.773  0.00  0.00    -0.000 A 
ATOM     12  C   UNL     1       6.070   6.139 -10.066  0.00  0.00    -0.000 A 
ATOM     13  C   UNL     1       3.569   5.733 -12.660  0.00  0.00    -0.003 A 
ENDBRANCH   3   4
ENDBRANCH   2   3
BRANCH   2  14
ATOM     14  C   UNL     1       2.609   7.062  -8.738  0.00  0.00    +0.100 C 
BRANCH  14  15
ATOM     15  C   UNL     1       2.145   6.413  -7.471  0.00  0.00    +0.000 C 
ATOM     16  C   UNL     1       1.825   7.085  -6.388  0.00  0.00    +0.046 C 
BRANCH  16  17
ATOM     17  C   UNL     1       0.679   6.775  -5.564  0.00  0.00    -0.064 C 
ATOM     18  C   UNL     1      -0.454   6.596  -5.156  0.00  0.00    -0.088 C 
BRANCH  18  19
ATOM     19  C   UNL     1      -1.912   6.383  -5.142  0.00  0.00    +0.054 C 
ATOM     20  C   UNL     1      -2.175   5.567  -3.885  0.00  0.00    +0.013 C 
ATOM     21  C   UNL     1      -2.348   5.566  -6.351  0.00  0.00    +0.013 C 
ATOM     22  C   UNL     1      -2.647   7.700  -5.095  0.00  0.00    +0.013 C 
ENDBRANCH  18  19
ENDBRANCH  16  17
ENDBRANCH  14  15
ENDBRANCH   2  14
TORSDOF 6
ENDMDL
MODEL 7
REMARK VINA RESULT:      -7.4      3.458      5.910
REMARK  Name = 
REMARK  6 active torsions:
REMARK  status: ('A' for Active; 'I' for Inactive)
REMARK    1  A    between atoms: N_2  and  C_3
REMARK    2  A    between atoms: N_2  and  C_12
REMARK    3  A    between atoms: C_3  and  C_4
REMARK    4  A    between atoms: C_5  and  C_6
REMARK    5  A    between atoms: C_7  and  C_8
REMARK    6  A    between atoms: C_12  and  C_13
REMARK                            x       y       z     vdW  Elec       q    Type
REMARK                         _______ _______ _______ _____ _____    ______ ____
ROOT
ATOM      1  C   UNL     1       2.214   7.088  -7.575  0.00  0.00    +0.090 C 
ATOM      2  N   UNL     1       2.036   5.965  -6.694  0.00  0.00    -0.264 NA
ENDROOT
BRANCH   2   3
ATOM      3  C   UNL     1       1.330   6.272  -5.484  0.00  0.00    +0.099 C 
BRANCH   3   4
ATOM      4  C   UNL     1       0.027   5.552  -5.372  0.00  0.00    -0.006 A 
ATOM      5  C   UNL     1      -0.551   5.395  -4.126  0.00  0.00    -0.003 A 
ATOM      6  C   UNL     1      -1.923   5.490  -3.936  0.00  0.00    -0.000 A 
ATOM      7  C   UNL     1      -2.470   5.569  -2.668  0.00  0.00    -0.000 A 
ATOM      8  C   UNL     1      -1.623   5.858  -1.614  0.00  0.00    -0.000 A 
ATOM      9  C   UNL     1      -0.312   5.435  -1.742  0.00  0.00    -0.000 A 
ATOM     10  C   UNL     1      -2.764   5.679  -5.013  0.00  0.00    -0.000 A 
ATOM     11  C   UNL     1      -2.223   5.690  -6.276  0.00  0.00    -0.000 A 
ATOM     12  C   UNL     1       0.254   5.335  -3.002  0.00  0.00    -0.000 A 
ATOM     13  C   UNL     1      -0.846   5.629  -6.446  0.00  0.00    -0.003 A 
ENDBRANCH   3   4
ENDBRANCH   2   3
BRANCH   2  14
ATOM     14  C   UNL     1       3.240   5.195  -6.490  0.00  0.00    +0.100 C 
BRANCH  14  15
ATOM     15  C   UNL     1       3.205   4.735  -5.066  0.00  0.00    +0.000 C 
ATOM     16  C   UNL     1       4.186   4.936  -4.215  0.00  0.00    +0.046 C 
BRANCH  16  17
ATOM     17  C   UNL     1       3.984   5.340  -2.842  0.00  0.00    -0.064 C 
ATOM     18  C   UNL     1       3.909   5.984  -1.811  0.00  0.00    -0.088 C 
BRANCH  18  19
ATOM     19  C   UNL     1       3.827   7.129  -0.887  0.00  0.00    +0.054 C 
ATOM     20  C   UNL     1       3.918   8.358  -1.781  0.00  0.00    +0.013 C 
ATOM     21  C   UNL     1       5.012   7.135   0.068  0.00  0.00    +0.013 C 
ATOM     22  C   UNL     1       2.525   7.111  -0.125  0.00  0.00    +0.013 C 
ENDBRANCH  18  19
ENDBRANCH  16  17
ENDBRANCH  14  15
ENDBRANCH   2  14
TORSDOF 6
ENDMDL
MODEL 8
REMARK VINA RESULT:      -7.4      3.461      7.727
REMARK  Name = 
REMARK  6 active torsions:
REMARK  status: ('A' for Active; 'I' for Inactive)
REMARK    1  A    between atoms: N_2  and  C_3
REMARK    2  A    between atoms: N_2  and  C_12
REMARK    3  A    between atoms: C_3  and  C_4
REMARK    4  A    between atoms: C_5  and  C_6
REMARK    5  A    between atoms: C_7  and  C_8
REMARK    6  A    between atoms: C_12  and  C_13
REMARK                            x       y       z     vdW  Elec       q    Type
REMARK                         _______ _______ _______ _____ _____    ______ ____
ROOT
ATOM      1  C   UNL     1       3.136   4.246  -8.869  0.00  0.00    +0.090 C 
ATOM      2  N   UNL     1       2.687   5.400  -9.602  0.00  0.00    -0.264 NA
ENDROOT
BRANCH   2   3
ATOM      3  C   UNL     1       3.688   6.413  -9.777  0.00  0.00    +0.099 C 
BRANCH   3   4
ATOM      4  C   UNL     1       4.230   6.461 -11.167  0.00  0.00    -0.006 A 
ATOM      5  C   UNL     1       5.597   6.387 -11.360  0.00  0.00    -0.003 A 
ATOM      6  C   UNL     1       6.152   5.683 -12.421  0.00  0.00    -0.000 A 
ATOM      7  C   UNL     1       7.508   5.415 -12.475  0.00  0.00    -0.000 A 
ATOM      8  C   UNL     1       8.250   5.589 -11.321  0.00  0.00    -0.000 A 
ATOM      9  C   UNL     1       7.804   6.559 -10.441  0.00  0.00    -0.000 A 
ATOM     10  C   UNL     1       5.339   5.086 -13.362  0.00  0.00    -0.000 A 
ATOM     11  C   UNL     1       3.981   5.272 -13.271  0.00  0.00    -0.000 A 
ATOM     12  C   UNL     1       6.452   6.855 -10.377  0.00  0.00    -0.000 A 
ATOM     13  C   UNL     1       3.440   5.949 -12.184  0.00  0.00    -0.003 A 
ENDBRANCH   3   4
ENDBRANCH   2   3
BRANCH   2  14
ATOM     14  C   UNL     1       1.413   5.908  -9.155  0.00  0.00    +0.100 C 
BRANCH  14  15
ATOM     15  C   UNL     1       0.545   5.989 -10.372  0.00  0.00    +0.000 C 
ATOM     16  C   UNL     1       0.121   7.121 -10.885  0.00  0.00    +0.046 C 
BRANCH  16  17
ATOM     17  C   UNL     1       0.089   7.394 -12.304  0.00  0.00    -0.064 C 
ATOM     18  C   UNL     1       0.248   7.339 -13.510  0.00  0.00    -0.088 C 
BRANCH  18  19
ATOM     19  C   UNL     1       0.566   6.814 -14.850  0.00  0.00    +0.054 C 
ATOM     20  C   UNL     1      -0.637   7.183 -15.707  0.00  0.00    +0.013 C 
ATOM     21  C   UNL     1       0.692   5.297 -14.818  0.00  0.00    +0.013 C 
ATOM     22  C   UNL     1       1.826   7.444 -15.389  0.00  0.00    +0.013 C 
ENDBRANCH  18  19
ENDBRANCH  16  17
ENDBRANCH  14  15
ENDBRANCH   2  14
TORSDOF 6
ENDMDL
MODEL 9
REMARK VINA RESULT:      -7.3      2.230      7.651
REMARK  Name = 
REMARK  6 active torsions:
REMARK  status: ('A' for Active; 'I' for Inactive)
REMARK    1  A    between atoms: N_2  and  C_3
REMARK    2  A    between atoms: N_2  and  C_12
REMARK    3  A    between atoms: C_3  and  C_4
REMARK    4  A    between atoms: C_5  and  C_6
REMARK    5  A    between atoms: C_7  and  C_8
REMARK    6  A    between atoms: C_12  and  C_13
REMARK                            x       y       z     vdW  Elec       q    Type
REMARK                         _______ _______ _______ _____ _____    ______ ____
ROOT
ATOM      1  C   UNL     1       4.635   7.633  -4.456  0.00  0.00    +0.090 C 
ATOM      2  N   UNL     1       4.236   6.409  -5.097  0.00  0.00    -0.264 NA
ENDROOT
BRANCH   2   3
ATOM      3  C   UNL     1       3.255   6.577  -6.130  0.00  0.00    +0.099 C 
BRANCH   3   4
ATOM      4  C   UNL     1       3.426   5.614  -7.258  0.00  0.00    -0.006 A 
ATOM      5  C   UNL     1       2.360   5.374  -8.105  0.00  0.00    -0.003 A 
ATOM      6  C   UNL     1       2.534   5.197  -9.472  0.00  0.00    -0.000 A 
ATOM      7  C   UNL     1       1.457   5.193 -10.339  0.00  0.00    -0.000 A 
ATOM      8  C   UNL     1       0.246   5.669  -9.870  0.00  0.00    -0.000 A 
ATOM      9  C   UNL     1       0.004   5.514  -8.517  0.00  0.00    -0.000 A 
ATOM     10  C   UNL     1       3.801   5.190 -10.018  0.00  0.00    -0.000 A 
ATOM     11  C   UNL     1       4.881   5.280  -9.174  0.00  0.00    -0.000 A 
ATOM     12  C   UNL     1       1.067   5.500  -7.629  0.00  0.00    -0.000 A 
ATOM     13  C   UNL     1       4.689   5.492  -7.814  0.00  0.00    -0.003 A 
ENDBRANCH   3   4
ENDBRANCH   2   3
BRANCH   2  14
ATOM     14  C   UNL     1       3.934   5.343  -4.171  0.00  0.00    +0.100 C 
BRANCH  14  15
ATOM     15  C   UNL     1       2.444   5.203  -4.169  0.00  0.00    +0.000 C 
ATOM     16  C   UNL     1       1.706   5.332  -3.090  0.00  0.00    +0.046 C 
BRANCH  16  17
ATOM     17  C   UNL     1       0.446   6.042  -3.062  0.00  0.00    -0.064 C 
ATOM     18  C   UNL     1      -0.628   6.528  -3.362  0.00  0.00    -0.088 C 
BRANCH  18  19
ATOM     19  C   UNL     1      -1.882   6.795  -4.089  0.00  0.00    +0.054 C 
ATOM     20  C   UNL     1      -1.854   5.843  -5.276  0.00  0.00    +0.013 C 
ATOM     21  C   UNL     1      -1.906   8.224  -4.614  0.00  0.00    +0.013 C 
ATOM     22  C   UNL     1      -3.080   6.529  -3.211  0.00  0.00    +0.013 C 
ENDBRANCH  18  19
ENDBRANCH  16  17
ENDBRANCH  14  15
ENDBRANCH   2  14
TORSDOF 6
ENDMDL
