MODEL 1
REMARK VINA RESULT:      -6.9      0.000      0.000
REMARK  Name = 
REMARK  7 active torsions:
REMARK  status: ('A' for Active; 'I' for Inactive)
REMARK    1  A    between atoms: C_2  and  C_3
REMARK    2  A    between atoms: C_3  and  C_4
REMARK    3  A    between atoms: C_6  and  C_7
REMARK    4  A    between atoms: N_9  and  C_10
REMARK    5  A    between atoms: C_10  and  C_11
REMARK    6  A    between atoms: C_10  and  C_14
REMARK    7  A    between atoms: C_16  and  S_17
REMARK                            x       y       z     vdW  Elec       q    Type
REMARK                         _______ _______ _______ _____ _____    ______ ____
ROOT
ATOM      1  C   UNL     1       3.398   6.167  -3.623  0.00  0.00    +0.155 C 
ENDROOT
BRANCH   1   2
ATOM      2  C   UNL     1       2.632   6.246  -5.123  0.00  0.00    +0.172 C 
ATOM      3  C   UNL     1       3.473   4.875  -5.695  0.00  0.00    +0.213 C 
ATOM      4  O   UNL     1       4.864   5.400  -5.497  0.00  0.00    -0.218 OA
ATOM      5  C   UNL     1       3.428   4.964  -7.374  0.00  0.00    +0.218 C 
ATOM      6  O   UNL     1       4.835   5.572  -7.597  0.00  0.00    -0.217 OA
ATOM      7  C   UNL     1       2.953   6.470  -7.975  0.00  0.00    +0.222 C 
ATOM      8  O   UNL     1       1.787   5.828  -8.748  0.00  0.00    -0.217 OA
ATOM      9  C   UNL     1       2.085   7.147  -6.712  0.00  0.00    +0.195 C 
ATOM     10  O   UNL     1       3.400   7.123  -5.978  0.00  0.00    -0.341 OA
BRANCH   9  11
ATOM     11  S   UNL     1       1.140   5.556  -6.339  0.00  0.00    -0.108 S 
ATOM     12  C   UNL     1      -0.407   5.182  -6.557  0.00  0.00    +0.072 C 
ENDBRANCH   9  11
ENDBRANCH   1   2
BRANCH   1  13
ATOM     13  C   UNL     1       3.627   7.717  -3.010  0.00  0.00    +0.174 C 
ATOM     14  O   UNL     1       4.773   8.197  -3.824  0.00  0.00    -0.221 OA
ATOM     15  C   UNL     1       4.566   7.328  -1.697  0.00  0.00    +0.037 C 
ENDBRANCH   1  13
BRANCH   1  17
ATOM     16  C   UNL     1       1.557   5.548  -1.777  0.00  0.00    +0.256 C 
ATOM     17  N   UNL     1       1.920   6.052  -3.055  0.00  0.00    -0.201 NA
ATOM     18  O   UNL     1       2.421   4.720  -1.363  0.00  0.00    -0.272 OA
BRANCH  16  23
ATOM     19  C   UNL     1      -1.564   6.968  -2.071  0.00  0.00    +0.018 C 
ATOM     20  C   UNL     1      -1.894   5.716  -1.079  0.00  0.00    +0.073 C 
ATOM     21  N   UNL     1      -0.483   5.836  -0.622  0.00  0.00    -0.265 NA
ATOM     22  C   UNL     1       0.042   7.162  -0.647  0.00  0.00    +0.090 C 
ATOM     23  C   UNL     1       0.023   5.019  -1.859  0.00  0.00    +0.137 C 
ATOM     24  C   UNL     1      -0.567   6.064  -2.983  0.00  0.00    +0.027 C 
BRANCH  19  25
ATOM     25  C   UNL     1      -2.891   6.866  -2.997  0.00  0.00    +0.001 C 
BRANCH  25  27
ATOM     26  C   UNL     1      -2.600   7.690  -5.017  0.00  0.00    +0.000 C 
ATOM     27  C   UNL     1      -2.525   7.443  -4.451  0.00  0.00    +0.000 C 
ENDBRANCH  25  27
ENDBRANCH  19  25
ENDBRANCH  16  23
ENDBRANCH   1  17
TORSDOF 7
ENDMDL
MODEL 2
REMARK VINA RESULT:      -6.9      2.609      4.356
REMARK  Name = 
REMARK  7 active torsions:
REMARK  status: ('A' for Active; 'I' for Inactive)
REMARK    1  A    between atoms: C_2  and  C_3
REMARK    2  A    between atoms: C_3  and  C_4
REMARK    3  A    between atoms: C_6  and  C_7
REMARK    4  A    between atoms: N_9  and  C_10
REMARK    5  A    between atoms: C_10  and  C_11
REMARK    6  A    between atoms: C_10  and  C_14
REMARK    7  A    between atoms: C_16  and  S_17
REMARK                            x       y       z     vdW  Elec       q    Type
REMARK                         _______ _______ _______ _____ _____    ______ ____
ROOT
ATOM      1  C   UNL     1       3.399   5.888  -4.213  0.00  0.00    +0.155 C 
ENDROOT
BRANCH   1   2
ATOM      2  C   UNL     1       1.725   6.078  -4.288  0.00  0.00    +0.172 C 
ATOM      3  C   UNL     1       1.534   4.614  -5.145  0.00  0.00    +0.213 C 
ATOM      4  O   UNL     1       2.414   4.953  -6.311  0.00  0.00    -0.218 OA
ATOM      5  C   UNL     1       0.052   4.723  -5.933  0.00  0.00    +0.218 C 
ATOM      6  O   UNL     1       0.578   5.144  -7.327  0.00  0.00    -0.217 OA
ATOM      7  C   UNL     1      -0.595   6.283  -5.978  0.00  0.00    +0.222 C 
ATOM      8  O   UNL     1      -1.877   5.804  -5.274  0.00  0.00    -0.217 OA
ATOM      9  C   UNL     1       0.137   7.056  -4.685  0.00  0.00    +0.195 C 
ATOM     10  O   UNL     1       1.410   6.855  -5.465  0.00  0.00    -0.341 OA
BRANCH   9  11
ATOM     11  S   UNL     1      -0.104   5.598  -3.510  0.00  0.00    -0.108 S 
ATOM     12  C   UNL     1      -0.666   5.548  -2.006  0.00  0.00    +0.072 C 
ENDBRANCH   9  11
ENDBRANCH   1   2
BRANCH   1  13
ATOM     13  C   UNL     1       4.162   7.223  -4.897  0.00  0.00    +0.174 C 
ATOM     14  O   UNL     1       4.892   6.603  -6.032  0.00  0.00    -0.221 OA
ATOM     15  C   UNL     1       5.497   7.276  -3.910  0.00  0.00    +0.037 C 
ENDBRANCH   1  13
BRANCH   1  17
ATOM     16  C   UNL     1       3.461   5.945  -1.534  0.00  0.00    +0.256 C 
ATOM     17  N   UNL     1       3.252   6.576  -2.790  0.00  0.00    -0.201 NA
ATOM     18  O   UNL     1       3.243   4.700  -1.621  0.00  0.00    -0.272 OA
BRANCH  16  23
ATOM     19  C   UNL     1       3.859   8.832   0.294  0.00  0.00    +0.018 C 
ATOM     20  C   UNL     1       3.118   7.881   1.391  0.00  0.00    +0.073 C 
ATOM     21  N   UNL     1       3.743   6.737   0.673  0.00  0.00    -0.265 NA
ATOM     22  C   UNL     1       5.010   7.023   0.082  0.00  0.00    +0.090 C 
ATOM     23  C   UNL     1       2.613   6.757  -0.411  0.00  0.00    +0.137 C 
ATOM     24  C   UNL     1       2.905   8.296  -0.908  0.00  0.00    +0.027 C 
BRANCH  19  25
ATOM     25  C   UNL     1       3.067  10.207   0.630  0.00  0.00    +0.001 C 
BRANCH  25  27
ATOM     26  C   UNL     1       3.666  11.844  -0.712  0.00  0.00    +0.000 C 
ATOM     27  C   UNL     1       3.653  11.361  -0.320  0.00  0.00    +0.000 C 
ENDBRANCH  25  27
ENDBRANCH  19  25
ENDBRANCH  16  23
ENDBRANCH   1  17
TORSDOF 7
ENDMDL
MODEL 3
REMARK VINA RESULT:      -6.6      2.812      6.893
REMARK  Name = 
REMARK  7 active torsions:
REMARK  status: ('A' for Active; 'I' for Inactive)
REMARK    1  A    between atoms: C_2  and  C_3
REMARK    2  A    between atoms: C_3  and  C_4
REMARK    3  A    between atoms: C_6  and  C_7
REMARK    4  A    between atoms: N_9  and  C_10
REMARK    5  A    between atoms: C_10  and  C_11
REMARK    6  A    between atoms: C_10  and  C_14
REMARK    7  A    between atoms: C_16  and  S_17
REMARK                            x       y       z     vdW  Elec       q    Type
REMARK                         _______ _______ _______ _____ _____    ______ ____
ROOT
ATOM      1  C   UNL     1       0.481   5.523  -4.527  0.00  0.00    +0.155 C 
ENDROOT
BRANCH   1   2
ATOM      2  C   UNL     1       1.834   5.843  -3.574  0.00  0.00    +0.172 C 
ATOM      3  C   UNL     1       1.454   4.574  -2.497  0.00  0.00    +0.213 C 
ATOM      4  O   UNL     1       0.088   5.052  -2.104  0.00  0.00    -0.218 OA
ATOM      5  C   UNL     1       2.247   4.929  -1.057  0.00  0.00    +0.218 C 
ATOM      6  O   UNL     1       1.050   5.554  -0.299  0.00  0.00    -0.217 OA
ATOM      7  C   UNL     1       2.822   6.514  -0.955  0.00  0.00    +0.222 C 
ATOM      8  O   UNL     1       4.258   6.010  -0.723  0.00  0.00    -0.217 OA
ATOM      9  C   UNL     1       2.969   6.988  -2.555  0.00  0.00    +0.195 C 
ATOM     10  O   UNL     1       1.470   6.840  -2.592  0.00  0.00    -0.341 OA
BRANCH   9  11
ATOM     11  S   UNL     1       3.764   5.364  -3.098  0.00  0.00    -0.108 S 
ATOM     12  C   UNL     1       5.012   5.083  -4.069  0.00  0.00    +0.072 C 
ENDBRANCH   9  11
ENDBRANCH   1   2
BRANCH   1  13
ATOM     13  C   UNL     1      -0.272   6.963  -4.962  0.00  0.00    +0.174 C 
ATOM     14  O   UNL     1      -1.296   7.102  -3.895  0.00  0.00    -0.221 OA
ATOM     15  C   UNL     1      -1.342   6.356  -6.078  0.00  0.00    +0.037 C 
ENDBRANCH   1  13
BRANCH   1  17
ATOM     16  C   UNL     1       1.773   4.541  -6.660  0.00  0.00    +0.256 C 
ATOM     17  N   UNL     1       1.515   5.584  -5.731  0.00  0.00    -0.201 NA
ATOM     18  O   UNL     1       1.529   3.411  -6.140  0.00  0.00    -0.272 OA
BRANCH  16  23
ATOM     19  C   UNL     1       3.146   5.896  -9.508  0.00  0.00    +0.018 C 
ATOM     20  C   UNL     1       4.159   4.645  -9.251  0.00  0.00    +0.073 C 
ATOM     21  N   UNL     1       3.005   3.975  -8.594  0.00  0.00    -0.265 NA
ATOM     22  C   UNL     1       1.729   4.317  -9.134  0.00  0.00    +0.090 C 
ATOM     23  C   UNL     1       3.267   4.756  -7.262  0.00  0.00    +0.137 C 
ATOM     24  C   UNL     1       3.081   6.250  -7.924  0.00  0.00    +0.027 C 
BRANCH  19  25
ATOM     25  C   UNL     1       4.260   6.989  -9.950  0.00  0.00    +0.001 C 
BRANCH  25  27
ATOM     26  C   UNL     1       5.231   6.513 -11.866  0.00  0.00    +0.000 C 
ATOM     27  C   UNL     1       4.923   6.493 -11.326  0.00  0.00    +0.000 C 
ENDBRANCH  25  27
ENDBRANCH  19  25
ENDBRANCH  16  23
ENDBRANCH   1  17
TORSDOF 7
ENDMDL
MODEL 4
REMARK VINA RESULT:      -6.4      5.427     10.006
REMARK  Name = 
REMARK  7 active torsions:
REMARK  status: ('A' for Active; 'I' for Inactive)
REMARK    1  A    between atoms: C_2  and  C_3
REMARK    2  A    between atoms: C_3  and  C_4
REMARK    3  A    between atoms: C_6  and  C_7
REMARK    4  A    between atoms: N_9  and  C_10
REMARK    5  A    between atoms: C_10  and  C_11
REMARK    6  A    between atoms: C_10  and  C_14
REMARK    7  A    between atoms: C_16  and  S_17
REMARK                            x       y       z     vdW  Elec       q    Type
REMARK                         _______ _______ _______ _____ _____    ______ ____
ROOT
ATOM      1  C   UNL     1       1.537   5.739 -12.038  0.00  0.00    +0.155 C 
ENDROOT
BRANCH   1   2
ATOM      2  C   UNL     1       2.135   5.969 -10.479  0.00  0.00    +0.172 C 
ATOM      3  C   UNL     1       1.240   4.647  -9.873  0.00  0.00    +0.213 C 
ATOM      4  O   UNL     1      -0.121   5.132 -10.270  0.00  0.00    -0.218 OA
ATOM      5  C   UNL     1       1.102   4.895  -8.216  0.00  0.00    +0.218 C 
ATOM      6  O   UNL     1      -0.322   5.501  -8.206  0.00  0.00    -0.217 OA
ATOM      7  C   UNL     1       1.504   6.456  -7.713  0.00  0.00    +0.222 C 
ATOM      8  O   UNL     1       2.580   5.905  -6.760  0.00  0.00    -0.217 OA
ATOM      9  C   UNL     1       2.503   7.023  -8.933  0.00  0.00    +0.195 C 
ATOM     10  O   UNL     1       1.276   6.913  -9.799  0.00  0.00    -0.341 OA
BRANCH   9  11
ATOM     11  S   UNL     1       3.488   5.416  -9.049  0.00  0.00    -0.108 S 
ATOM     12  C   UNL     1       5.016   5.096  -8.671  0.00  0.00    +0.072 C 
ENDBRANCH   9  11
ENDBRANCH   1   2
BRANCH   1  13
ATOM     13  C   UNL     1       1.292   7.226 -12.787  0.00  0.00    +0.174 C 
ATOM     14  O   UNL     1       0.040   7.688 -12.134  0.00  0.00    -0.221 OA
ATOM     15  C   UNL     1       0.523   6.689 -14.157  0.00  0.00    +0.037 C 
ENDBRANCH   1  13
BRANCH   1  17
ATOM     16  C   UNL     1       3.581   5.335 -13.725  0.00  0.00    +0.256 C 
ATOM     17  N   UNL     1       3.071   5.677 -12.443  0.00  0.00    -0.201 NA
ATOM     18  O   UNL     1       2.770   4.578 -14.338  0.00  0.00    -0.272 OA
BRANCH  16  23
ATOM     19  C   UNL     1       6.675   6.685 -13.062  0.00  0.00    +0.018 C 
ATOM     20  C   UNL     1       7.082   5.490 -14.093  0.00  0.00    +0.073 C 
ATOM     21  N   UNL     1       5.721   5.659 -14.669  0.00  0.00    -0.265 NA
ATOM     22  C   UNL     1       5.209   6.989 -14.611  0.00  0.00    +0.090 C 
ATOM     23  C   UNL     1       5.095   4.777 -13.536  0.00  0.00    +0.137 C 
ATOM     24  C   UNL     1       5.590   5.744 -12.302  0.00  0.00    +0.027 C 
BRANCH  19  25
ATOM     25  C   UNL     1       7.910   6.507 -12.026  0.00  0.00    +0.001 C 
BRANCH  25  27
ATOM     26  C   UNL     1       7.543   7.427 -10.061  0.00  0.00    +0.000 C 
ATOM     27  C   UNL     1       7.492   7.191 -10.634  0.00  0.00    +0.000 C 
ENDBRANCH  25  27
ENDBRANCH  19  25
ENDBRANCH  16  23
ENDBRANCH   1  17
TORSDOF 7
ENDMDL
MODEL 5
REMARK VINA RESULT:      -6.3      2.580      6.322
REMARK  Name = 
REMARK  7 active torsions:
REMARK  status: ('A' for Active; 'I' for Inactive)
REMARK    1  A    between atoms: C_2  and  C_3
REMARK    2  A    between atoms: C_3  and  C_4
REMARK    3  A    between atoms: C_6  and  C_7
REMARK    4  A    between atoms: N_9  and  C_10
REMARK    5  A    between atoms: C_10  and  C_11
REMARK    6  A    between atoms: C_10  and  C_14
REMARK    7  A    between atoms: C_16  and  S_17
REMARK                            x       y       z     vdW  Elec       q    Type
REMARK                         _______ _______ _______ _____ _____    ______ ____
ROOT
ATOM      1  C   UNL     1       0.955   5.141  -3.832  0.00  0.00    +0.155 C 
ENDROOT
BRANCH   1   2
ATOM      2  C   UNL     1       2.263   6.098  -3.368  0.00  0.00    +0.172 C 
ATOM      3  C   UNL     1       2.766   4.955  -2.203  0.00  0.00    +0.213 C 
ATOM      4  O   UNL     1       1.499   4.919  -1.403  0.00  0.00    -0.218 OA
ATOM      5  C   UNL     1       3.715   5.798  -1.099  0.00  0.00    +0.218 C 
ATOM      6  O   UNL     1       2.637   6.016  -0.010  0.00  0.00    -0.217 OA
ATOM      7  C   UNL     1       3.584   7.478  -1.215  0.00  0.00    +0.222 C 
ATOM      8  O   UNL     1       5.101   7.610  -1.447  0.00  0.00    -0.217 OA
ATOM      9  C   UNL     1       3.060   7.730  -2.786  0.00  0.00    +0.195 C 
ATOM     10  O   UNL     1       1.815   7.009  -2.339  0.00  0.00    -0.341 OA
BRANCH   9  11
ATOM     11  S   UNL     1       4.266   6.480  -3.526  0.00  0.00    -0.108 S 
ATOM     12  C   UNL     1       5.334   6.635  -4.715  0.00  0.00    +0.072 C 
ENDBRANCH   9  11
ENDBRANCH   1   2
BRANCH   1  13
ATOM     13  C   UNL     1      -0.458   6.055  -3.827  0.00  0.00    +0.174 C 
ATOM     14  O   UNL     1      -1.375   5.187  -3.044  0.00  0.00    -0.221 OA
ATOM     15  C   UNL     1      -1.067   5.577  -5.297  0.00  0.00    +0.037 C 
ENDBRANCH   1  13
BRANCH   1  17
ATOM     16  C   UNL     1       2.116   4.822  -6.226  0.00  0.00    +0.256 C 
ATOM     17  N   UNL     1       1.356   5.588  -5.302  0.00  0.00    -0.201 NA
ATOM     18  O   UNL     1       2.884   4.021  -5.615  0.00  0.00    -0.272 OA
BRANCH  16  23
ATOM     19  C   UNL     1       1.897   5.481  -9.596  0.00  0.00    +0.018 C 
ATOM     20  C   UNL     1       3.492   5.706  -9.348  0.00  0.00    +0.073 C 
ATOM     21  N   UNL     1       3.355   4.729  -8.235  0.00  0.00    -0.265 NA
ATOM     22  C   UNL     1       2.364   3.723  -8.441  0.00  0.00    +0.090 C 
ATOM     23  C   UNL     1       2.817   5.844  -7.277  0.00  0.00    +0.137 C 
ATOM     24  C   UNL     1       1.512   6.223  -8.202  0.00  0.00    +0.027 C 
BRANCH  19  25
ATOM     25  C   UNL     1       1.656   6.730 -10.603  0.00  0.00    +0.001 C 
BRANCH  25  27
ATOM     26  C   UNL     1      -0.459   6.784 -11.206  0.00  0.00    +0.000 C 
ATOM     27  C   UNL     1       0.081   6.830 -10.901  0.00  0.00    +0.000 C 
ENDBRANCH  25  27
ENDBRANCH  19  25
ENDBRANCH  16  23
ENDBRANCH   1  17
TORSDOF 7
ENDMDL
MODEL 6
REMARK VINA RESULT:      -6.3      2.287      5.838
REMARK  Name = 
REMARK  7 active torsions:
REMARK  status: ('A' for Active; 'I' for Inactive)
REMARK    1  A    between atoms: C_2  and  C_3
REMARK    2  A    between atoms: C_3  and  C_4
REMARK    3  A    between atoms: C_6  and  C_7
REMARK    4  A    between atoms: N_9  and  C_10
REMARK    5  A    between atoms: C_10  and  C_11
REMARK    6  A    between atoms: C_10  and  C_14
REMARK    7  A    between atoms: C_16  and  S_17
REMARK                            x       y       z     vdW  Elec       q    Type
REMARK                         _______ _______ _______ _____ _____    ______ ____
ROOT
ATOM      1  C   UNL     1       1.802   6.247  -1.951  0.00  0.00    +0.155 C 
ENDROOT
BRANCH   1   2
ATOM      2  C   UNL     1       0.169   6.213  -2.372  0.00  0.00    +0.172 C 
ATOM      3  C   UNL     1      -0.239   7.305  -1.125  0.00  0.00    +0.213 C 
ATOM      4  O   UNL     1       0.290   6.500   0.023  0.00  0.00    -0.218 OA
ATOM      5  C   UNL     1      -1.880   7.083  -0.828  0.00  0.00    +0.218 C 
ATOM      6  O   UNL     1      -1.753   6.158   0.407  0.00  0.00    -0.217 OA
ATOM      7  C   UNL     1      -2.523   5.676  -1.507  0.00  0.00    +0.222 C 
ATOM      8  O   UNL     1      -3.565   6.495  -2.292  0.00  0.00    -0.217 OA
ATOM      9  C   UNL     1      -1.471   5.324  -2.763  0.00  0.00    +0.195 C 
ATOM     10  O   UNL     1      -0.456   5.115  -1.670  0.00  0.00    -0.341 OA
BRANCH   9  11
ATOM     11  S   UNL     1      -1.379   7.113  -3.359  0.00  0.00    -0.108 S 
ATOM     12  C   UNL     1      -1.932   7.799  -4.702  0.00  0.00    +0.072 C 
ENDBRANCH   9  11
ENDBRANCH   1   2
BRANCH   1  13
ATOM     13  C   UNL     1       2.398   4.678  -1.828  0.00  0.00    +0.174 C 
ATOM     14  O   UNL     1       1.848   4.249  -0.517  0.00  0.00    -0.221 OA
ATOM     15  C   UNL     1       3.902   5.033  -1.217  0.00  0.00    +0.037 C 
ENDBRANCH   1  13
BRANCH   1  17
ATOM     16  C   UNL     1       3.219   6.783  -4.162  0.00  0.00    +0.256 C 
ATOM     17  N   UNL     1       2.039   6.320  -3.520  0.00  0.00    -0.201 NA
ATOM     18  O   UNL     1       3.829   7.614  -3.427  0.00  0.00    -0.272 OA
BRANCH  16  23
ATOM     19  C   UNL     1       1.786   5.398  -6.967  0.00  0.00    +0.018 C 
ATOM     20  C   UNL     1       2.875   6.402  -7.649  0.00  0.00    +0.073 C 
ATOM     21  N   UNL     1       3.675   6.215  -6.409  0.00  0.00    -0.265 NA
ATOM     22  C   UNL     1       3.533   4.935  -5.794  0.00  0.00    +0.090 C 
ATOM     23  C   UNL     1       2.819   7.287  -5.654  0.00  0.00    +0.137 C 
ATOM     24  C   UNL     1       1.390   6.496  -5.836  0.00  0.00    +0.027 C 
BRANCH  19  25
ATOM     25  C   UNL     1       0.565   5.670  -7.999  0.00  0.00    +0.001 C 
BRANCH  25  27
ATOM     26  C   UNL     1      -1.397   5.149  -7.150  0.00  0.00    +0.000 C 
ATOM     27  C   UNL     1      -0.810   5.334  -7.240  0.00  0.00    +0.000 C 
ENDBRANCH  25  27
ENDBRANCH  19  25
ENDBRANCH  16  23
ENDBRANCH   1  17
TORSDOF 7
ENDMDL
MODEL 7
REMARK VINA RESULT:      -6.2      2.287      3.319
REMARK  Name = 
REMARK  7 active torsions:
REMARK  status: ('A' for Active; 'I' for Inactive)
REMARK    1  A    between atoms: C_2  and  C_3
REMARK    2  A    between atoms: C_3  and  C_4
REMARK    3  A    between atoms: C_6  and  C_7
REMARK    4  A    between atoms: N_9  and  C_10
REMARK    5  A    between atoms: C_10  and  C_11
REMARK    6  A    between atoms: C_10  and  C_14
REMARK    7  A    between atoms: C_16  and  S_17
REMARK                            x       y       z     vdW  Elec       q    Type
REMARK                         _______ _______ _______ _____ _____    ______ ____
ROOT
ATOM      1  C   UNL     1       2.751   6.226  -3.358  0.00  0.00    +0.155 C 
ENDROOT
BRANCH   1   2
ATOM      2  C   UNL     1       1.258   6.259  -4.142  0.00  0.00    +0.172 C 
ATOM      3  C   UNL     1       1.510   4.712  -4.821  0.00  0.00    +0.213 C 
ATOM      4  O   UNL     1       2.783   5.023  -5.549  0.00  0.00    -0.218 OA
ATOM      5  C   UNL     1       0.495   4.618  -6.159  0.00  0.00    +0.218 C 
ATOM      6  O   UNL     1       1.541   4.959  -7.249  0.00  0.00    -0.217 OA
ATOM      7  C   UNL     1      -0.140   6.103  -6.653  0.00  0.00    +0.222 C 
ATOM      8  O   UNL     1      -1.578   5.576  -6.492  0.00  0.00    -0.217 OA
ATOM      9  C   UNL     1      -0.056   7.051  -5.273  0.00  0.00    +0.195 C 
ATOM     10  O   UNL     1       1.435   6.896  -5.427  0.00  0.00    -0.341 OA
BRANCH   9  11
ATOM     11  S   UNL     1      -0.706   5.688  -4.141  0.00  0.00    -0.108 S 
ATOM     12  C   UNL     1      -1.965   5.668  -3.144  0.00  0.00    +0.072 C 
ENDBRANCH   9  11
ENDBRANCH   1   2
BRANCH   1  13
ATOM     13  C   UNL     1       3.477   7.742  -3.438  0.00  0.00    +0.174 C 
ATOM     14  O   UNL     1       4.017   7.744  -4.821  0.00  0.00    -0.221 OA
ATOM     15  C   UNL     1       4.933   7.355  -2.740  0.00  0.00    +0.037 C 
ENDBRANCH   1  13
BRANCH   1  17
ATOM     16  C   UNL     1       2.305   6.394  -0.721  0.00  0.00    +0.256 C 
ATOM     17  N   UNL     1       1.900   6.591  -2.068  0.00  0.00    -0.201 NA
ATOM     18  O   UNL     1       3.131   5.436  -0.640  0.00  0.00    -0.272 OA
BRANCH  16  23
ATOM     19  C   UNL     1       0.086   8.584   0.734  0.00  0.00    +0.018 C 
ATOM     20  C   UNL     1       0.153   7.420   1.874  0.00  0.00    +0.073 C 
ATOM     21  N   UNL     1       1.529   7.151   1.377  0.00  0.00    -0.265 NA
ATOM     22  C   UNL     1       2.217   8.297   0.875  0.00  0.00    +0.090 C 
ATOM     23  C   UNL     1       0.971   6.283   0.199  0.00  0.00    +0.137 C 
ATOM     24  C   UNL     1       0.078   7.491  -0.469  0.00  0.00    +0.027 C 
BRANCH  19  25
ATOM     25  C   UNL     1      -1.509   8.867   0.808  0.00  0.00    +0.001 C 
BRANCH  25  27
ATOM     26  C   UNL     1      -2.056  10.285   2.399  0.00  0.00    +0.000 C 
ATOM     27  C   UNL     1      -1.780   9.854   2.046  0.00  0.00    +0.000 C 
ENDBRANCH  25  27
ENDBRANCH  19  25
ENDBRANCH  16  23
ENDBRANCH   1  17
TORSDOF 7
ENDMDL
MODEL 8
REMARK VINA RESULT:      -5.9      2.398      6.037
REMARK  Name = 
REMARK  7 active torsions:
REMARK  status: ('A' for Active; 'I' for Inactive)
REMARK    1  A    between atoms: C_2  and  C_3
REMARK    2  A    between atoms: C_3  and  C_4
REMARK    3  A    between atoms: C_6  and  C_7
REMARK    4  A    between atoms: N_9  and  C_10
REMARK    5  A    between atoms: C_10  and  C_11
REMARK    6  A    between atoms: C_10  and  C_14
REMARK    7  A    between atoms: C_16  and  S_17
REMARK                            x       y       z     vdW  Elec       q    Type
REMARK                         _______ _______ _______ _____ _____    ______ ____
ROOT
ATOM      1  C   UNL     1       2.932   6.152  -3.294  0.00  0.00    +0.155 C 
ENDROOT
BRANCH   1   2
ATOM      2  C   UNL     1       1.276   6.081  -2.987  0.00  0.00    +0.172 C 
ATOM      3  C   UNL     1       1.397   7.225  -1.724  0.00  0.00    +0.213 C 
ATOM      4  O   UNL     1       2.383   6.478  -0.877  0.00  0.00    -0.218 OA
ATOM      5  C   UNL     1       0.040   6.998  -0.756  0.00  0.00    +0.218 C 
ATOM      6  O   UNL     1       0.701   6.131   0.343  0.00  0.00    -0.217 OA
ATOM      7  C   UNL     1      -0.788   5.556  -1.051  0.00  0.00    +0.222 C 
ATOM      8  O   UNL     1      -2.086   6.327  -1.353  0.00  0.00    -0.217 OA
ATOM      9  C   UNL     1      -0.351   5.159  -2.619  0.00  0.00    +0.195 C 
ATOM     10  O   UNL     1       1.035   5.010  -2.048  0.00  0.00    -0.341 OA
BRANCH   9  11
ATOM     11  S   UNL     1      -0.569   6.920  -3.263  0.00  0.00    -0.108 S 
ATOM     12  C   UNL     1      -1.411   7.481  -4.510  0.00  0.00    +0.072 C 
ENDBRANCH   9  11
ENDBRANCH   1   2
BRANCH   1  13
ATOM     13  C   UNL     1       3.543   4.601  -3.519  0.00  0.00    +0.174 C 
ATOM     14  O   UNL     1       3.988   4.250  -2.146  0.00  0.00    -0.221 OA
ATOM     15  C   UNL     1       5.067   5.009  -4.040  0.00  0.00    +0.037 C 
ENDBRANCH   1  13
BRANCH   1  17
ATOM     16  C   UNL     1       3.241   6.908  -5.846  0.00  0.00    +0.256 C 
ATOM     17  N   UNL     1       2.482   6.303  -4.809  0.00  0.00    -0.201 NA
ATOM     18  O   UNL     1       4.034   7.774  -5.370  0.00  0.00    -0.272 OA
BRANCH  16  23
ATOM     19  C   UNL     1       1.511   5.487  -8.459  0.00  0.00    +0.018 C 
ATOM     20  C   UNL     1       1.889   6.937  -9.101  0.00  0.00    +0.073 C 
ATOM     21  N   UNL     1       3.074   6.915  -8.202  0.00  0.00    -0.265 NA
ATOM     22  C   UNL     1       3.598   5.614  -7.937  0.00  0.00    +0.090 C 
ATOM     23  C   UNL     1       2.212   7.418  -6.996  0.00  0.00    +0.137 C 
ATOM     24  C   UNL     1       1.170   6.146  -7.013  0.00  0.00    +0.027 C 
BRANCH  19  25
ATOM     25  C   UNL     1      -0.001   5.383  -9.035  0.00  0.00    +0.001 C 
BRANCH  25  27
ATOM     26  C   UNL     1       0.273   4.394 -10.981  0.00  0.00    +0.000 C 
ATOM     27  C   UNL     1       0.071   4.738 -10.504  0.00  0.00    +0.000 C 
ENDBRANCH  25  27
ENDBRANCH  19  25
ENDBRANCH  16  23
ENDBRANCH   1  17
TORSDOF 7
ENDMDL
MODEL 9
REMARK VINA RESULT:      -5.8      4.195      6.435
REMARK  Name = 
REMARK  7 active torsions:
REMARK  status: ('A' for Active; 'I' for Inactive)
REMARK    1  A    between atoms: C_2  and  C_3
REMARK    2  A    between atoms: C_3  and  C_4
REMARK    3  A    between atoms: C_6  and  C_7
REMARK    4  A    between atoms: N_9  and  C_10
REMARK    5  A    between atoms: C_10  and  C_11
REMARK    6  A    between atoms: C_10  and  C_14
REMARK    7  A    between atoms: C_16  and  S_17
REMARK                            x       y       z     vdW  Elec       q    Type
REMARK                         _______ _______ _______ _____ _____    ______ ____
ROOT
ATOM      1  C   UNL     1       4.339   5.447 -10.852  0.00  0.00    +0.155 C 
ENDROOT
BRANCH   1   2
ATOM      2  C   UNL     1       2.949   5.731 -11.763  0.00  0.00    +0.172 C 
ATOM      3  C   UNL     1       3.463   4.666 -12.994  0.00  0.00    +0.213 C 
ATOM      4  O   UNL     1       4.760   5.345 -13.313  0.00  0.00    -0.218 OA
ATOM      5  C   UNL     1       2.620   5.111 -14.380  0.00  0.00    +0.218 C 
ATOM      6  O   UNL     1       3.729   5.964 -15.043  0.00  0.00    -0.217 OA
ATOM      7  C   UNL     1       1.865   6.619 -14.277  0.00  0.00    +0.222 C 
ATOM      8  O   UNL     1       0.495   5.987 -14.580  0.00  0.00    -0.217 OA
ATOM      9  C   UNL     1       1.681   6.860 -12.629  0.00  0.00    +0.195 C 
ATOM     10  O   UNL     1       3.187   6.882 -12.604  0.00  0.00    -0.341 OA
BRANCH   9  11
ATOM     11  S   UNL     1       1.083   5.098 -12.308  0.00  0.00    -0.108 S 
ATOM     12  C   UNL     1      -0.220   4.560 -11.538  0.00  0.00    +0.072 C 
ENDBRANCH   9  11
ENDBRANCH   1   2
BRANCH   1  13
ATOM     13  C   UNL     1       4.901   6.890 -10.193  0.00  0.00    +0.174 C 
ATOM     14  O   UNL     1       5.276   7.651 -11.411  0.00  0.00    -0.221 OA
ATOM     15  C   UNL     1       6.459   6.419  -9.860  0.00  0.00    +0.037 C 
ENDBRANCH   1  13
BRANCH   1  17
ATOM     16  C   UNL     1       3.658   4.853  -8.329  0.00  0.00    +0.256 C 
ATOM     17  N   UNL     1       3.315   5.188  -9.666  0.00  0.00    -0.201 NA
ATOM     18  O   UNL     1       4.776   4.258  -8.292  0.00  0.00    -0.272 OA
BRANCH  16  23
ATOM     19  C   UNL     1       0.627   5.723  -6.953  0.00  0.00    +0.018 C 
ATOM     20  C   UNL     1       1.043   4.470  -5.997  0.00  0.00    +0.073 C 
ATOM     21  N   UNL     1       2.452   4.838  -6.298  0.00  0.00    -0.265 NA
ATOM     22  C   UNL     1       2.673   6.232  -6.511  0.00  0.00    +0.090 C 
ATOM     23  C   UNL     1       2.397   4.073  -7.663  0.00  0.00    +0.137 C 
ATOM     24  C   UNL     1       1.165   4.965  -8.287  0.00  0.00    +0.027 C 
BRANCH  19  25
ATOM     25  C   UNL     1      -0.949   5.370  -7.100  0.00  0.00    +0.001 C 
BRANCH  25  27
ATOM     26  C   UNL     1      -2.201   6.268  -5.529  0.00  0.00    +0.000 C 
ATOM     27  C   UNL     1      -1.730   6.076  -5.887  0.00  0.00    +0.000 C 
ENDBRANCH  25  27
ENDBRANCH  19  25
ENDBRANCH  16  23
ENDBRANCH   1  17
TORSDOF 7
ENDMDL
