MODEL 1
REMARK VINA RESULT:      -5.4      0.000      0.000
REMARK  Name = 
REMARK  2 active torsions:
REMARK  status: ('A' for Active; 'I' for Inactive)
REMARK    1  A    between atoms: C_2  and  C_4
REMARK    2  A    between atoms: C_6  and  C_7
REMARK                            x       y       z     vdW  Elec       q    Type
REMARK                         _______ _______ _______ _____ _____    ______ ____
ROOT
ATOM      1  C   UNL     1       0.261   6.867  -4.659  0.00  0.00    +0.239 C 
ATOM      2  N   UNL     1      -0.894   5.763  -4.626  0.00  0.00    -0.232 N 
ATOM      3  C   UNL     1      -0.829   5.184  -6.115  0.00  0.00    +0.256 C 
ATOM      4  C   UNL     1      -2.381   5.813  -6.250  0.00  0.00    +0.151 C 
ATOM      5  O   UNL     1      -0.181   6.518  -6.680  0.00  0.00    -0.462 OA
ATOM      6  C   UNL     1      -2.321   5.775  -4.755  0.00  0.00    +0.234 C 
ATOM      7  O   UNL     1      -3.048   5.102  -3.965  0.00  0.00    -0.275 OA
ATOM      8  C   UNL     1       0.991   6.192  -5.975  0.00  0.00    +0.146 C 
ATOM      9  C   UNL     1       2.214   6.649  -6.248  0.00  0.00    +0.044 C 
ENDROOT
BRANCH   1  11
ATOM     10  O   UNL     1       0.703   5.043  -3.108  0.00  0.00    -0.243 OA
ATOM     11  C   UNL     1       1.227   6.036  -3.614  0.00  0.00    +0.390 C 
ATOM     12  O   UNL     1       2.197   6.829  -3.051  0.00  0.00    -0.243 OA
ENDBRANCH   1  11
BRANCH   9  13
ATOM     13  C   UNL     1       2.561   7.045  -7.637  0.00  0.00    +0.211 C 
ATOM     14  O   UNL     1       2.181   8.378  -7.871  0.00  0.00    -0.215 OA
ENDBRANCH   9  13
TORSDOF 2
ENDMDL
MODEL 2
REMARK VINA RESULT:      -5.3      1.994      2.376
REMARK  Name = 
REMARK  2 active torsions:
REMARK  status: ('A' for Active; 'I' for Inactive)
REMARK    1  A    between atoms: C_2  and  C_4
REMARK    2  A    between atoms: C_6  and  C_7
REMARK                            x       y       z     vdW  Elec       q    Type
REMARK                         _______ _______ _______ _____ _____    ______ ____
ROOT
ATOM      1  C   UNL     1       2.421   6.771  -4.177  0.00  0.00    +0.239 C 
ATOM      2  N   UNL     1       1.559   5.565  -3.581  0.00  0.00    -0.232 N 
ATOM      3  C   UNL     1       0.832   5.009  -4.892  0.00  0.00    +0.256 C 
ATOM      4  C   UNL     1      -0.576   5.494  -4.114  0.00  0.00    +0.151 C 
ATOM      5  O   UNL     1       0.962   6.403  -5.639  0.00  0.00    -0.462 OA
ATOM      6  C   UNL     1       0.302   5.447  -2.903  0.00  0.00    +0.234 C 
ATOM      7  O   UNL     1       0.183   4.702  -1.886  0.00  0.00    -0.275 OA
ATOM      8  C   UNL     1       2.348   6.179  -5.715  0.00  0.00    +0.146 C 
ATOM      9  C   UNL     1       3.181   6.751  -6.587  0.00  0.00    +0.044 C 
ENDROOT
BRANCH   1  11
ATOM     10  O   UNL     1       3.764   4.858  -3.496  0.00  0.00    -0.243 OA
ATOM     11  C   UNL     1       3.860   6.022  -3.886  0.00  0.00    +0.390 C 
ATOM     12  O   UNL     1       4.863   6.910  -3.581  0.00  0.00    -0.243 OA
ENDBRANCH   1  11
BRANCH   9  13
ATOM     13  C   UNL     1       2.673   7.191  -7.912  0.00  0.00    +0.211 C 
ATOM     14  O   UNL     1       2.135   8.486  -7.820  0.00  0.00    -0.215 OA
ENDBRANCH   9  13
TORSDOF 2
ENDMDL
MODEL 3
REMARK VINA RESULT:      -5.3      2.041      4.473
REMARK  Name = 
REMARK  2 active torsions:
REMARK  status: ('A' for Active; 'I' for Inactive)
REMARK    1  A    between atoms: C_2  and  C_4
REMARK    2  A    between atoms: C_6  and  C_7
REMARK                            x       y       z     vdW  Elec       q    Type
REMARK                         _______ _______ _______ _____ _____    ______ ____
ROOT
ATOM      1  C   UNL     1      -1.554   6.746  -3.266  0.00  0.00    +0.239 C 
ATOM      2  N   UNL     1      -1.365   5.768  -4.515  0.00  0.00    -0.232 N 
ATOM      3  C   UNL     1       0.078   5.145  -4.221  0.00  0.00    +0.256 C 
ATOM      4  C   UNL     1       0.520   5.926  -5.641  0.00  0.00    +0.151 C 
ATOM      5  O   UNL     1       0.513   6.391  -3.338  0.00  0.00    -0.462 OA
ATOM      6  C   UNL     1      -0.957   5.922  -5.880  0.00  0.00    +0.234 C 
ATOM      7  O   UNL     1      -1.591   5.348  -6.813  0.00  0.00    -0.275 OA
ATOM      8  C   UNL     1      -0.412   5.965  -2.368  0.00  0.00    +0.146 C 
ATOM      9  C   UNL     1      -0.383   6.288  -1.074  0.00  0.00    +0.044 C 
ENDROOT
BRANCH   1  11
ATOM     10  O   UNL     1      -2.781   4.667  -2.959  0.00  0.00    -0.243 OA
ATOM     11  C   UNL     1      -2.774   5.849  -2.616  0.00  0.00    +0.390 C 
ATOM     12  O   UNL     1      -3.865   6.612  -2.277  0.00  0.00    -0.243 OA
ENDBRANCH   1  11
BRANCH   9  13
ATOM     13  C   UNL     1       0.913   6.610  -0.422  0.00  0.00    +0.211 C 
ATOM     14  O   UNL     1       1.703   5.452  -0.316  0.00  0.00    -0.215 OA
ENDBRANCH   9  13
TORSDOF 2
ENDMDL
MODEL 4
REMARK VINA RESULT:      -5.2      2.710      5.022
REMARK  Name = 
REMARK  2 active torsions:
REMARK  status: ('A' for Active; 'I' for Inactive)
REMARK    1  A    between atoms: C_2  and  C_4
REMARK    2  A    between atoms: C_6  and  C_7
REMARK                            x       y       z     vdW  Elec       q    Type
REMARK                         _______ _______ _______ _____ _____    ______ ____
ROOT
ATOM      1  C   UNL     1       1.956   5.879  -7.623  0.00  0.00    +0.239 C 
ATOM      2  N   UNL     1       1.920   6.267  -9.173  0.00  0.00    -0.232 N 
ATOM      3  C   UNL     1       0.362   6.128  -9.505  0.00  0.00    +0.256 C 
ATOM      4  C   UNL     1       0.861   4.894 -10.530  0.00  0.00    +0.151 C 
ATOM      5  O   UNL     1       0.127   5.111  -8.309  0.00  0.00    -0.462 OA
ATOM      6  C   UNL     1       2.185   5.581 -10.403  0.00  0.00    +0.234 C 
ATOM      7  O   UNL     1       2.864   6.132 -11.318  0.00  0.00    -0.275 OA
ATOM      8  C   UNL     1       0.346   6.179  -7.421  0.00  0.00    +0.146 C 
ATOM      9  C   UNL     1      -0.069   6.233  -6.154  0.00  0.00    +0.044 C 
ENDROOT
BRANCH   1  11
ATOM     10  O   UNL     1       2.208   8.270  -8.004  0.00  0.00    -0.243 OA
ATOM     11  C   UNL     1       2.367   7.402  -7.146  0.00  0.00    +0.390 C 
ATOM     12  O   UNL     1       3.303   7.403  -6.141  0.00  0.00    -0.243 OA
ENDBRANCH   1  11
BRANCH   9  13
ATOM     13  C   UNL     1      -1.285   5.483  -5.744  0.00  0.00    +0.211 C 
ATOM     14  O   UNL     1      -2.425   6.041  -6.348  0.00  0.00    -0.215 OA
ENDBRANCH   9  13
TORSDOF 2
ENDMDL
MODEL 5
REMARK VINA RESULT:      -5.2      7.537      9.601
REMARK  Name = 
REMARK  2 active torsions:
REMARK  status: ('A' for Active; 'I' for Inactive)
REMARK    1  A    between atoms: C_2  and  C_4
REMARK    2  A    between atoms: C_6  and  C_7
REMARK                            x       y       z     vdW  Elec       q    Type
REMARK                         _______ _______ _______ _____ _____    ______ ____
ROOT
ATOM      1  C   UNL     1       5.889   6.564 -12.819  0.00  0.00    +0.239 C 
ATOM      2  N   UNL     1       6.290   5.790 -11.480  0.00  0.00    -0.232 N 
ATOM      3  C   UNL     1       4.884   5.177 -11.028  0.00  0.00    +0.256 C 
ATOM      4  C   UNL     1       5.067   6.176  -9.690  0.00  0.00    +0.151 C 
ATOM      5  O   UNL     1       4.068   6.290 -11.813  0.00  0.00    -0.462 OA
ATOM      6  C   UNL     1       6.503   6.160 -10.112  0.00  0.00    +0.234 C 
ATOM      7  O   UNL     1       7.497   5.712  -9.468  0.00  0.00    -0.275 OA
ATOM      8  C   UNL     1       4.500   5.694 -13.011  0.00  0.00    +0.146 C 
ATOM      9  C   UNL     1       3.907   5.821 -14.199  0.00  0.00    +0.044 C 
ENDROOT
BRANCH   1  11
ATOM     10  O   UNL     1       7.387   4.681 -13.188  0.00  0.00    -0.243 OA
ATOM     11  C   UNL     1       6.742   5.541 -13.789  0.00  0.00    +0.390 C 
ATOM     12  O   UNL     1       7.058   6.105 -15.001  0.00  0.00    -0.243 OA
ENDBRANCH   1  11
BRANCH   9  13
ATOM     13  C   UNL     1       2.446   6.082 -14.270  0.00  0.00    +0.211 C 
ATOM     14  O   UNL     1       1.742   4.872 -14.402  0.00  0.00    -0.215 OA
ENDBRANCH   9  13
TORSDOF 2
ENDMDL
MODEL 6
REMARK VINA RESULT:      -5.2      2.186      2.381
REMARK  Name = 
REMARK  2 active torsions:
REMARK  status: ('A' for Active; 'I' for Inactive)
REMARK    1  A    between atoms: C_2  and  C_4
REMARK    2  A    between atoms: C_6  and  C_7
REMARK                            x       y       z     vdW  Elec       q    Type
REMARK                         _______ _______ _______ _____ _____    ______ ____
ROOT
ATOM      1  C   UNL     1       1.430   6.868  -6.240  0.00  0.00    +0.239 C 
ATOM      2  N   UNL     1       0.237   6.686  -5.192  0.00  0.00    -0.232 N 
ATOM      3  C   UNL     1      -0.275   5.212  -5.538  0.00  0.00    +0.256 C 
ATOM      4  C   UNL     1      -1.698   5.989  -5.980  0.00  0.00    +0.151 C 
ATOM      5  O   UNL     1       0.289   5.288  -7.019  0.00  0.00    -0.462 OA
ATOM      6  C   UNL     1      -1.138   7.088  -5.131  0.00  0.00    +0.234 C 
ATOM      7  O   UNL     1      -1.624   7.571  -4.067  0.00  0.00    -0.275 OA
ATOM      8  C   UNL     1       1.586   5.243  -6.478  0.00  0.00    +0.146 C 
ATOM      9  C   UNL     1       2.686   4.864  -7.129  0.00  0.00    +0.044 C 
ENDROOT
BRANCH   1  11
ATOM     10  O   UNL     1       2.164   6.793  -3.921  0.00  0.00    -0.243 OA
ATOM     11  C   UNL     1       2.592   6.876  -5.073  0.00  0.00    +0.390 C 
ATOM     12  O   UNL     1       3.740   7.512  -5.478  0.00  0.00    -0.243 OA
ENDBRANCH   1  11
BRANCH   9  13
ATOM     13  C   UNL     1       2.582   3.901  -8.256  0.00  0.00    +0.211 C 
ATOM     14  O   UNL     1       3.737   3.964  -9.056  0.00  0.00    -0.215 OA
ENDBRANCH   9  13
TORSDOF 2
ENDMDL
MODEL 7
REMARK VINA RESULT:      -5.2      3.608      6.439
REMARK  Name = 
REMARK  2 active torsions:
REMARK  status: ('A' for Active; 'I' for Inactive)
REMARK    1  A    between atoms: C_2  and  C_4
REMARK    2  A    between atoms: C_6  and  C_7
REMARK                            x       y       z     vdW  Elec       q    Type
REMARK                         _______ _______ _______ _____ _____    ______ ____
ROOT
ATOM      1  C   UNL     1       1.568   6.491  -9.433  0.00  0.00    +0.239 C 
ATOM      2  N   UNL     1       2.656   5.514 -10.076  0.00  0.00    -0.232 N 
ATOM      3  C   UNL     1       2.603   4.269  -9.075  0.00  0.00    +0.256 C 
ATOM      4  C   UNL     1       4.192   4.692  -8.729  0.00  0.00    +0.151 C 
ATOM      5  O   UNL     1       2.051   5.161  -7.884  0.00  0.00    -0.462 OA
ATOM      6  C   UNL     1       4.085   5.411 -10.038  0.00  0.00    +0.234 C 
ATOM      7  O   UNL     1       4.747   5.200 -11.096  0.00  0.00    -0.275 OA
ATOM      8  C   UNL     1       0.841   5.273  -8.592  0.00  0.00    +0.146 C 
ATOM      9  C   UNL     1      -0.345   5.574  -8.061  0.00  0.00    +0.044 C 
ENDROOT
BRANCH   1  11
ATOM     10  O   UNL     1       0.791   5.409 -11.470  0.00  0.00    -0.243 OA
ATOM     11  C   UNL     1       0.524   6.330 -10.698  0.00  0.00    +0.390 C 
ATOM     12  O   UNL     1      -0.106   7.509 -11.014  0.00  0.00    -0.243 OA
ENDBRANCH   1  11
BRANCH   9  13
ATOM     13  C   UNL     1      -0.626   5.231  -6.642  0.00  0.00    +0.211 C 
ATOM     14  O   UNL     1      -2.010   5.276  -6.398  0.00  0.00    -0.215 OA
ENDBRANCH   9  13
TORSDOF 2
ENDMDL
MODEL 8
REMARK VINA RESULT:      -5.2      2.121      5.121
REMARK  Name = 
REMARK  2 active torsions:
REMARK  status: ('A' for Active; 'I' for Inactive)
REMARK    1  A    between atoms: C_2  and  C_4
REMARK    2  A    between atoms: C_6  and  C_7
REMARK                            x       y       z     vdW  Elec       q    Type
REMARK                         _______ _______ _______ _____ _____    ______ ____
ROOT
ATOM      1  C   UNL     1       0.640   6.316  -5.205  0.00  0.00    +0.239 C 
ATOM      2  N   UNL     1       2.203   5.990  -5.150  0.00  0.00    -0.232 N 
ATOM      3  C   UNL     1       2.419   5.708  -3.591  0.00  0.00    +0.256 C 
ATOM      4  C   UNL     1       3.404   7.068  -3.652  0.00  0.00    +0.151 C 
ATOM      5  O   UNL     1       1.154   6.577  -3.187  0.00  0.00    -0.462 OA
ATOM      6  C   UNL     1       3.407   6.766  -5.118  0.00  0.00    +0.234 C 
ATOM      7  O   UNL     1       4.396   6.456  -5.845  0.00  0.00    -0.275 OA
ATOM      8  C   UNL     1       0.345   5.579  -3.758  0.00  0.00    +0.146 C 
ATOM      9  C   UNL     1      -0.941   5.367  -3.477  0.00  0.00    +0.044 C 
ENDROOT
BRANCH   1  11
ATOM     10  O   UNL     1       1.182   4.112  -6.085  0.00  0.00    -0.243 OA
ATOM     11  C   UNL     1       0.279   4.949  -6.050  0.00  0.00    +0.390 C 
ATOM     12  O   UNL     1      -0.680   5.162  -7.011  0.00  0.00    -0.243 OA
ENDBRANCH   1  11
BRANCH   9  13
ATOM     13  C   UNL     1      -1.476   5.739  -2.141  0.00  0.00    +0.211 C 
ATOM     14  O   UNL     1      -2.619   4.977  -1.847  0.00  0.00    -0.215 OA
ENDBRANCH   9  13
TORSDOF 2
ENDMDL
MODEL 9
REMARK VINA RESULT:      -5.1      2.683      3.274
REMARK  Name = 
REMARK  2 active torsions:
REMARK  status: ('A' for Active; 'I' for Inactive)
REMARK    1  A    between atoms: C_2  and  C_4
REMARK    2  A    between atoms: C_6  and  C_7
REMARK                            x       y       z     vdW  Elec       q    Type
REMARK                         _______ _______ _______ _____ _____    ______ ____
ROOT
ATOM      1  C   UNL     1       2.116   6.393  -1.949  0.00  0.00    +0.239 C 
ATOM      2  N   UNL     1       0.825   5.507  -2.269  0.00  0.00    -0.232 N 
ATOM      3  C   UNL     1       1.008   5.222  -3.831  0.00  0.00    +0.256 C 
ATOM      4  C   UNL     1      -0.409   6.111  -3.990  0.00  0.00    +0.151 C 
ATOM      5  O   UNL     1       1.905   6.516  -4.033  0.00  0.00    -0.462 OA
ATOM      6  C   UNL     1      -0.557   5.777  -2.539  0.00  0.00    +0.234 C 
ATOM      7  O   UNL     1      -1.469   5.092  -1.988  0.00  0.00    -0.275 OA
ATOM      8  C   UNL     1       2.915   5.874  -3.295  0.00  0.00    +0.146 C 
ATOM      9  C   UNL     1       4.215   6.169  -3.337  0.00  0.00    +0.044 C 
ENDROOT
BRANCH   1  11
ATOM     10  O   UNL     1       2.086   4.260  -0.776  0.00  0.00    -0.243 OA
ATOM     11  C   UNL     1       2.808   5.230  -1.009  0.00  0.00    +0.390 C 
ATOM     12  O   UNL     1       3.798   5.730  -0.198  0.00  0.00    -0.243 OA
ENDBRANCH   1  11
BRANCH   9  13
ATOM     13  C   UNL     1       4.797   6.763  -4.569  0.00  0.00    +0.211 C 
ATOM     14  O   UNL     1       4.869   8.161  -4.446  0.00  0.00    -0.215 OA
ENDBRANCH   9  13
TORSDOF 2
ENDMDL
