MODEL 1
REMARK VINA RESULT:      -8.4      0.000      0.000
REMARK  Name = 
REMARK  6 active torsions:
REMARK  status: ('A' for Active; 'I' for Inactive)
REMARK    1  A    between atoms: C_2  and  N_3
REMARK    2  A    between atoms: C_5  and  C_6
REMARK    3  A    between atoms: C_6  and  C_7
REMARK    4  A    between atoms: C_7  and  N_8
REMARK    5  A    between atoms: C_14  and  C_15
REMARK    6  A    between atoms: C_14  and  C_21
REMARK                            x       y       z     vdW  Elec       q    Type
REMARK                         _______ _______ _______ _____ _____    ______ ____
ROOT
ATOM      1  N   UNL     1       1.700   4.939  -8.395  0.00  0.00    -0.279 N 
ATOM      2  C   UNL     1       2.044   4.677  -7.055  0.00  0.00    +0.232 C 
ATOM      3  O   UNL     1       1.922   3.549  -6.518  0.00  0.00    -0.274 OA
ATOM      4  C   UNL     1       2.024   5.907  -6.267  0.00  0.00    +0.108 C 
ATOM      5  C   UNL     1       2.154   7.059  -7.405  0.00  0.00    +0.037 C 
ATOM      6  C   UNL     1       1.169   6.269  -8.429  0.00  0.00    +0.095 C 
ENDROOT
BRANCH   4   7
ATOM      7  C   UNL     1       3.244   5.978  -5.443  0.00  0.00    -0.011 A 
ATOM      8  C   UNL     1       3.606   7.229  -4.958  0.00  0.00    -0.004 A 
ATOM      9  C   UNL     1       4.781   7.421  -4.267  0.00  0.00    -0.000 A 
ATOM     10  C   UNL     1       5.331   6.298  -3.666  0.00  0.00    -0.000 A 
ATOM     11  C   UNL     1       4.776   5.046  -3.893  0.00  0.00    -0.000 A 
ATOM     12  C   UNL     1       3.856   4.849  -4.915  0.00  0.00    -0.004 A 
ENDBRANCH   4   7
BRANCH   4  13
ATOM     13  C   UNL     1       0.784   6.152  -5.525  0.00  0.00    -0.011 A 
ATOM     14  C   UNL     1       0.502   5.290  -4.472  0.00  0.00    -0.004 A 
ATOM     15  C   UNL     1      -0.339   5.608  -3.440  0.00  0.00    -0.000 A 
ATOM     16  C   UNL     1      -1.263   6.618  -3.676  0.00  0.00    -0.000 A 
ATOM     17  C   UNL     1      -1.033   7.489  -4.733  0.00  0.00    -0.000 A 
ATOM     18  C   UNL     1       0.005   7.273  -5.631  0.00  0.00    -0.004 A 
ENDBRANCH   4  13
BRANCH   1  20
ATOM     19  C   UNL     1       0.741   4.403 -10.431  0.00  0.00    +0.023 C 
ATOM     20  C   UNL     1       1.539   3.941  -9.422  0.00  0.00    +0.093 C 
ENDBRANCH   1  20
BRANCH   5  21
ATOM     21  C   UNL     1       3.507   6.405  -8.037  0.00  0.00    +0.020 C 
BRANCH  21  22
ATOM     22  C   UNL     1       3.746   7.047  -9.356  0.00  0.00    +0.072 C 
BRANCH  22  23
ATOM     23  N   UNL     1       4.931   6.767 -10.027  0.00  0.00    -0.268 NA
ATOM     24  C   UNL     1       5.281   7.457 -11.195  0.00  0.00    +0.105 C 
ATOM     25  C   UNL     1       6.774   7.753 -11.274  0.00  0.00    +0.159 C 
ATOM     26  O   UNL     1       7.489   7.105 -10.282  0.00  0.00    -0.351 OA
ATOM     27  C   UNL     1       7.146   5.772 -10.133  0.00  0.00    +0.159 C 
ATOM     28  C   UNL     1       5.748   5.706  -9.585  0.00  0.00    +0.105 C 
ENDBRANCH  22  23
ENDBRANCH  21  22
ENDBRANCH   5  21
TORSDOF 6
ENDMDL
MODEL 2
REMARK VINA RESULT:      -8.3      1.909      7.065
REMARK  Name = 
REMARK  6 active torsions:
REMARK  status: ('A' for Active; 'I' for Inactive)
REMARK    1  A    between atoms: C_2  and  N_3
REMARK    2  A    between atoms: C_5  and  C_6
REMARK    3  A    between atoms: C_6  and  C_7
REMARK    4  A    between atoms: C_7  and  N_8
REMARK    5  A    between atoms: C_14  and  C_15
REMARK    6  A    between atoms: C_14  and  C_21
REMARK                            x       y       z     vdW  Elec       q    Type
REMARK                         _______ _______ _______ _____ _____    ______ ____
ROOT
ATOM      1  N   UNL     1       3.012   5.218  -6.304  0.00  0.00    -0.279 N 
ATOM      2  C   UNL     1       2.739   4.727  -7.596  0.00  0.00    +0.232 C 
ATOM      3  O   UNL     1       2.888   3.524  -7.923  0.00  0.00    -0.274 OA
ATOM      4  C   UNL     1       2.803   5.804  -8.582  0.00  0.00    +0.108 C 
ATOM      5  C   UNL     1       2.614   7.133  -7.668  0.00  0.00    +0.037 C 
ATOM      6  C   UNL     1       3.542   6.538  -6.472  0.00  0.00    +0.095 C 
ENDROOT
BRANCH   4   7
ATOM      7  C   UNL     1       1.629   5.722  -9.469  0.00  0.00    -0.011 A 
ATOM      8  C   UNL     1       1.161   6.916 -10.006  0.00  0.00    -0.004 A 
ATOM      9  C   UNL     1       0.011   6.963 -10.762  0.00  0.00    -0.000 A 
ATOM     10  C   UNL     1      -0.382   5.773 -11.359  0.00  0.00    -0.000 A 
ATOM     11  C   UNL     1       0.293   4.595 -11.068  0.00  0.00    -0.000 A 
ATOM     12  C   UNL     1       1.171   4.522  -9.996  0.00  0.00    -0.004 A 
ENDBRANCH   4   7
BRANCH   4  13
ATOM     13  C   UNL     1       4.082   5.926  -9.288  0.00  0.00    -0.011 A 
ATOM     14  C   UNL     1       4.146   6.862 -10.313  0.00  0.00    -0.004 A 
ATOM     15  C   UNL     1       5.317   7.403 -10.770  0.00  0.00    -0.000 A 
ATOM     16  C   UNL     1       6.477   6.683 -10.518  0.00  0.00    -0.000 A 
ATOM     17  C   UNL     1       6.453   5.722  -9.516  0.00  0.00    -0.000 A 
ATOM     18  C   UNL     1       5.266   5.370  -8.884  0.00  0.00    -0.004 A 
ENDBRANCH   4  13
BRANCH   1  20
ATOM     19  C   UNL     1       4.214   4.767  -4.380  0.00  0.00    +0.023 C 
ATOM     20  C   UNL     1       3.116   4.414  -5.114  0.00  0.00    +0.093 C 
ENDBRANCH   1  20
BRANCH   5  21
ATOM     21  C   UNL     1       1.229   6.588  -7.004  0.00  0.00    +0.020 C 
BRANCH  21  22
ATOM     22  C   UNL     1       0.861   7.512  -5.901  0.00  0.00    +0.072 C 
BRANCH  22  23
ATOM     23  N   UNL     1      -0.110   7.109  -4.991  0.00  0.00    -0.268 NA
ATOM     24  C   UNL     1      -1.321   7.803  -4.870  0.00  0.00    +0.105 C 
ATOM     25  C   UNL     1      -2.506   6.874  -4.635  0.00  0.00    +0.159 C 
ATOM     26  O   UNL     1      -2.109   5.571  -4.389  0.00  0.00    -0.351 OA
ATOM     27  C   UNL     1      -1.074   5.471  -3.476  0.00  0.00    +0.159 C 
ATOM     28  C   UNL     1       0.164   6.047  -4.104  0.00  0.00    +0.105 C 
ENDBRANCH  22  23
ENDBRANCH  21  22
ENDBRANCH   5  21
TORSDOF 6
ENDMDL
MODEL 3
REMARK VINA RESULT:      -8.3      2.394      4.897
REMARK  Name = 
REMARK  6 active torsions:
REMARK  status: ('A' for Active; 'I' for Inactive)
REMARK    1  A    between atoms: C_2  and  N_3
REMARK    2  A    between atoms: C_5  and  C_6
REMARK    3  A    between atoms: C_6  and  C_7
REMARK    4  A    between atoms: C_7  and  N_8
REMARK    5  A    between atoms: C_14  and  C_15
REMARK    6  A    between atoms: C_14  and  C_21
REMARK                            x       y       z     vdW  Elec       q    Type
REMARK                         _______ _______ _______ _____ _____    ______ ____
ROOT
ATOM      1  N   UNL     1       2.813   6.493  -9.333  0.00  0.00    -0.279 N 
ATOM      2  C   UNL     1       2.270   7.029  -8.149  0.00  0.00    +0.232 C 
ATOM      3  O   UNL     1       2.483   8.203  -7.761  0.00  0.00    -0.274 OA
ATOM      4  C   UNL     1       1.923   5.962  -7.212  0.00  0.00    +0.108 C 
ATOM      5  C   UNL     1       1.812   4.662  -8.180  0.00  0.00    +0.037 C 
ATOM      6  C   UNL     1       3.099   5.115  -9.066  0.00  0.00    +0.095 C 
ENDROOT
BRANCH   4   7
ATOM      7  C   UNL     1       0.574   6.210  -6.671  0.00  0.00    -0.011 A 
ATOM      8  C   UNL     1      -0.381   5.224  -6.884  0.00  0.00    -0.004 A 
ATOM      9  C   UNL     1      -1.695   5.401  -6.511  0.00  0.00    -0.000 A 
ATOM     10  C   UNL     1      -1.930   6.343  -5.519  0.00  0.00    -0.000 A 
ATOM     11  C   UNL     1      -0.892   7.142  -5.059  0.00  0.00    -0.000 A 
ATOM     12  C   UNL     1       0.312   7.213  -5.749  0.00  0.00    -0.004 A 
ENDBRANCH   4   7
BRANCH   4  13
ATOM     13  C   UNL     1       2.935   5.675  -6.193  0.00  0.00    -0.011 A 
ATOM     14  C   UNL     1       3.834   6.693  -5.896  0.00  0.00    -0.004 A 
ATOM     15  C   UNL     1       4.536   6.763  -4.724  0.00  0.00    -0.000 A 
ATOM     16  C   UNL     1       4.688   5.579  -4.015  0.00  0.00    -0.000 A 
ATOM     17  C   UNL     1       3.825   4.527  -4.294  0.00  0.00    -0.000 A 
ATOM     18  C   UNL     1       2.933   4.591  -5.357  0.00  0.00    -0.004 A 
ENDBRANCH   4  13
BRANCH   1  20
ATOM     19  C   UNL     1       4.047   6.472 -11.290  0.00  0.00    +0.023 C 
ATOM     20  C   UNL     1       3.340   7.265 -10.429  0.00  0.00    +0.093 C 
ENDBRANCH   1  20
BRANCH   5  21
ATOM     21  C   UNL     1       0.742   5.384  -9.176  0.00  0.00    +0.020 C 
BRANCH  21  22
ATOM     22  C   UNL     1       0.660   4.571 -10.416  0.00  0.00    +0.072 C 
BRANCH  22  23
ATOM     23  N   UNL     1       0.453   5.224 -11.627  0.00  0.00    -0.268 NA
ATOM     24  C   UNL     1      -0.159   6.482 -11.675  0.00  0.00    +0.105 C 
ATOM     25  C   UNL     1       0.461   7.395 -12.725  0.00  0.00    +0.159 C 
ATOM     26  O   UNL     1       1.354   6.722 -13.541  0.00  0.00    -0.351 OA
ATOM     27  C   UNL     1       0.876   5.509 -14.003  0.00  0.00    +0.159 C 
ATOM     28  C   UNL     1       0.772   4.569 -12.835  0.00  0.00    +0.105 C 
ENDBRANCH  22  23
ENDBRANCH  21  22
ENDBRANCH   5  21
TORSDOF 6
ENDMDL
MODEL 4
REMARK VINA RESULT:      -8.1      2.136      5.866
REMARK  Name = 
REMARK  6 active torsions:
REMARK  status: ('A' for Active; 'I' for Inactive)
REMARK    1  A    between atoms: C_2  and  N_3
REMARK    2  A    between atoms: C_5  and  C_6
REMARK    3  A    between atoms: C_6  and  C_7
REMARK    4  A    between atoms: C_7  and  N_8
REMARK    5  A    between atoms: C_14  and  C_15
REMARK    6  A    between atoms: C_14  and  C_21
REMARK                            x       y       z     vdW  Elec       q    Type
REMARK                         _______ _______ _______ _____ _____    ______ ____
ROOT
ATOM      1  N   UNL     1       1.932   6.575  -6.186  0.00  0.00    -0.279 N 
ATOM      2  C   UNL     1       2.374   7.083  -7.423  0.00  0.00    +0.232 C 
ATOM      3  O   UNL     1       2.100   8.237  -7.834  0.00  0.00    -0.274 OA
ATOM      4  C   UNL     1       2.685   5.994  -8.347  0.00  0.00    +0.108 C 
ATOM      5  C   UNL     1       2.901   4.732  -7.347  0.00  0.00    +0.037 C 
ATOM      6  C   UNL     1       1.668   5.182  -6.386  0.00  0.00    +0.095 C 
ENDROOT
BRANCH   4   7
ATOM      7  C   UNL     1       3.984   6.259  -8.992  0.00  0.00    -0.011 A 
ATOM      8  C   UNL     1       4.989   5.321  -8.791  0.00  0.00    -0.004 A 
ATOM      9  C   UNL     1       6.267   5.523  -9.262  0.00  0.00    -0.000 A 
ATOM     10  C   UNL     1       6.399   6.415 -10.317  0.00  0.00    -0.000 A 
ATOM     11  C   UNL     1       5.302   7.148 -10.749  0.00  0.00    -0.000 A 
ATOM     12  C   UNL     1       4.145   7.216  -9.983  0.00  0.00    -0.004 A 
ENDBRANCH   4   7
BRANCH   4  13
ATOM     13  C   UNL     1       1.611   5.645  -9.281  0.00  0.00    -0.011 A 
ATOM     14  C   UNL     1       0.830   6.690  -9.758  0.00  0.00    -0.004 A 
ATOM     15  C   UNL     1       0.101   6.622 -10.915  0.00  0.00    -0.000 A 
ATOM     16  C   UNL     1      -0.214   5.352 -11.380  0.00  0.00    -0.000 A 
ATOM     17  C   UNL     1       0.527   4.274 -10.913  0.00  0.00    -0.000 A 
ATOM     18  C   UNL     1       1.457   4.429  -9.892  0.00  0.00    -0.004 A 
ENDBRANCH   4  13
BRANCH   1  20
ATOM     19  C   UNL     1       0.773   6.603  -4.184  0.00  0.00    +0.023 C 
ATOM     20  C   UNL     1       1.462   7.371  -5.081  0.00  0.00    +0.093 C 
ENDBRANCH   1  20
BRANCH   5  21
ATOM     21  C   UNL     1       4.018   5.516  -6.456  0.00  0.00    +0.020 C 
BRANCH  21  22
ATOM     22  C   UNL     1       4.186   4.770  -5.182  0.00  0.00    +0.072 C 
BRANCH  22  23
ATOM     23  N   UNL     1       4.429   5.488  -4.016  0.00  0.00    -0.268 NA
ATOM     24  C   UNL     1       5.156   6.685  -4.044  0.00  0.00    +0.105 C 
ATOM     25  C   UNL     1       4.604   7.727  -3.078  0.00  0.00    +0.159 C 
ATOM     26  O   UNL     1       3.637   7.201  -2.239  0.00  0.00    -0.351 OA
ATOM     27  C   UNL     1       3.990   5.986  -1.679  0.00  0.00    +0.159 C 
ATOM     28  C   UNL     1       4.027   4.957  -2.774  0.00  0.00    +0.105 C 
ENDBRANCH  22  23
ENDBRANCH  21  22
ENDBRANCH   5  21
TORSDOF 6
ENDMDL
MODEL 5
REMARK VINA RESULT:      -7.8      2.976      6.390
REMARK  Name = 
REMARK  6 active torsions:
REMARK  status: ('A' for Active; 'I' for Inactive)
REMARK    1  A    between atoms: C_2  and  N_3
REMARK    2  A    between atoms: C_5  and  C_6
REMARK    3  A    between atoms: C_6  and  C_7
REMARK    4  A    between atoms: C_7  and  N_8
REMARK    5  A    between atoms: C_14  and  C_15
REMARK    6  A    between atoms: C_14  and  C_21
REMARK                            x       y       z     vdW  Elec       q    Type
REMARK                         _______ _______ _______ _____ _____    ______ ____
ROOT
ATOM      1  N   UNL     1       3.165   5.008  -5.289  0.00  0.00    -0.279 N 
ATOM      2  C   UNL     1       1.880   4.732  -5.795  0.00  0.00    +0.232 C 
ATOM      3  O   UNL     1       1.471   3.573  -6.049  0.00  0.00    -0.274 OA
ATOM      4  C   UNL     1       1.329   5.904  -6.473  0.00  0.00    +0.108 C 
ATOM      5  C   UNL     1       2.210   7.119  -5.851  0.00  0.00    +0.037 C 
ATOM      6  C   UNL     1       3.581   6.245  -5.880  0.00  0.00    +0.095 C 
ENDROOT
BRANCH   4   7
ATOM      7  C   UNL     1      -0.062   6.113  -6.032  0.00  0.00    -0.011 A 
ATOM      8  C   UNL     1      -0.349   7.319  -5.403  0.00  0.00    -0.004 A 
ATOM      9  C   UNL     1      -1.590   7.570  -4.861  0.00  0.00    -0.000 A 
ATOM     10  C   UNL     1      -2.644   6.824  -5.368  0.00  0.00    -0.000 A 
ATOM     11  C   UNL     1      -2.398   5.792  -6.264  0.00  0.00    -0.000 A 
ATOM     12  C   UNL     1      -1.110   5.311  -6.460  0.00  0.00    -0.004 A 
ENDBRANCH   4   7
BRANCH   4  13
ATOM     13  C   UNL     1       1.507   5.924  -7.927  0.00  0.00    -0.011 A 
ATOM     14  C   UNL     1       1.673   4.695  -8.556  0.00  0.00    -0.004 A 
ATOM     15  C   UNL     1       1.425   4.487  -9.886  0.00  0.00    -0.000 A 
ATOM     16  C   UNL     1       1.439   5.608 -10.706  0.00  0.00    -0.000 A 
ATOM     17  C   UNL     1       1.298   6.858 -10.118  0.00  0.00    -0.000 A 
ATOM     18  C   UNL     1       1.299   7.008  -8.737  0.00  0.00    -0.004 A 
ENDBRANCH   4  13
BRANCH   1  20
ATOM     19  C   UNL     1       5.146   4.659  -4.146  0.00  0.00    +0.023 C 
ATOM     20  C   UNL     1       4.026   4.052  -4.643  0.00  0.00    +0.093 C 
ENDBRANCH   1  20
BRANCH   5  21
ATOM     21  C   UNL     1       1.857   6.706  -4.314  0.00  0.00    +0.020 C 
BRANCH  21  22
ATOM     22  C   UNL     1       2.844   7.376  -3.428  0.00  0.00    +0.072 C 
BRANCH  22  23
ATOM     23  N   UNL     1       3.104   6.818  -2.180  0.00  0.00    -0.268 NA
ATOM     24  C   UNL     1       2.355   5.735  -1.702  0.00  0.00    +0.105 C 
ATOM     25  C   UNL     1       3.205   4.730  -0.934  0.00  0.00    +0.159 C 
ATOM     26  O   UNL     1       4.485   5.200  -0.699  0.00  0.00    -0.351 OA
ATOM     27  C   UNL     1       4.521   6.502  -0.232  0.00  0.00    +0.159 C 
ATOM     28  C   UNL     1       4.068   7.412  -1.339  0.00  0.00    +0.105 C 
ENDBRANCH  22  23
ENDBRANCH  21  22
ENDBRANCH   5  21
TORSDOF 6
ENDMDL
MODEL 6
REMARK VINA RESULT:      -7.5      1.897      6.209
REMARK  Name = 
REMARK  6 active torsions:
REMARK  status: ('A' for Active; 'I' for Inactive)
REMARK    1  A    between atoms: C_2  and  N_3
REMARK    2  A    between atoms: C_5  and  C_6
REMARK    3  A    between atoms: C_6  and  C_7
REMARK    4  A    between atoms: C_7  and  N_8
REMARK    5  A    between atoms: C_14  and  C_15
REMARK    6  A    between atoms: C_14  and  C_21
REMARK                            x       y       z     vdW  Elec       q    Type
REMARK                         _______ _______ _______ _____ _____    ______ ____
ROOT
ATOM      1  N   UNL     1       1.430   6.162  -9.281  0.00  0.00    -0.279 N 
ATOM      2  C   UNL     1       2.425   6.805  -8.518  0.00  0.00    +0.232 C 
ATOM      3  O   UNL     1       2.717   8.019  -8.647  0.00  0.00    -0.274 OA
ATOM      4  C   UNL     1       3.388   5.834  -8.004  0.00  0.00    +0.108 C 
ATOM      5  C   UNL     1       2.564   4.437  -8.088  0.00  0.00    +0.037 C 
ATOM      6  C   UNL     1       1.894   4.828  -9.518  0.00  0.00    +0.095 C 
ENDROOT
BRANCH   4   7
ATOM      7  C   UNL     1       3.634   6.102  -6.576  0.00  0.00    -0.011 A 
ATOM      8  C   UNL     1       4.499   5.239  -5.913  0.00  0.00    -0.004 A 
ATOM      9  C   UNL     1       4.715   5.339  -4.557  0.00  0.00    -0.000 A 
ATOM     10  C   UNL     1       4.445   6.572  -3.980  0.00  0.00    -0.000 A 
ATOM     11  C   UNL     1       3.854   7.577  -4.734  0.00  0.00    -0.000 A 
ATOM     12  C   UNL     1       3.281   7.299  -5.968  0.00  0.00    -0.004 A 
ENDBRANCH   4   7
BRANCH   4  13
ATOM     13  C   UNL     1       4.606   5.682  -8.805  0.00  0.00    -0.011 A 
ATOM     14  C   UNL     1       4.668   6.395  -9.996  0.00  0.00    -0.004 A 
ATOM     15  C   UNL     1       5.840   6.710 -10.629  0.00  0.00    -0.000 A 
ATOM     16  C   UNL     1       6.946   5.930 -10.318  0.00  0.00    -0.000 A 
ATOM     17  C   UNL     1       6.920   5.184  -9.147  0.00  0.00    -0.000 A 
ATOM     18  C   UNL     1       5.765   5.089  -8.380  0.00  0.00    -0.004 A 
ENDBRANCH   4  13
BRANCH   1  20
ATOM     19  C   UNL     1       0.523   6.653 -11.352  0.00  0.00    +0.023 C 
ATOM     20  C   UNL     1       0.377   6.828 -10.004  0.00  0.00    +0.093 C 
ENDBRANCH   1  20
BRANCH   5  21
ATOM     21  C   UNL     1       1.311   5.022  -7.225  0.00  0.00    +0.020 C 
BRANCH  21  22
ATOM     22  C   UNL     1       1.290   4.310  -5.920  0.00  0.00    +0.072 C 
BRANCH  22  23
ATOM     23  N   UNL     1       0.725   4.950  -4.822  0.00  0.00    -0.268 NA
ATOM     24  C   UNL     1      -0.444   5.712  -4.952  0.00  0.00    +0.105 C 
ATOM     25  C   UNL     1      -1.378   5.557  -3.758  0.00  0.00    +0.159 C 
ATOM     26  O   UNL     1      -0.786   4.863  -2.717  0.00  0.00    -0.351 OA
ATOM     27  C   UNL     1       0.499   5.289  -2.427  0.00  0.00    +0.159 C 
ATOM     28  C   UNL     1       1.389   4.917  -3.579  0.00  0.00    +0.105 C 
ENDBRANCH  22  23
ENDBRANCH  21  22
ENDBRANCH   5  21
TORSDOF 6
ENDMDL
MODEL 7
REMARK VINA RESULT:      -7.5      2.718      6.861
REMARK  Name = 
REMARK  6 active torsions:
REMARK  status: ('A' for Active; 'I' for Inactive)
REMARK    1  A    between atoms: C_2  and  N_3
REMARK    2  A    between atoms: C_5  and  C_6
REMARK    3  A    between atoms: C_6  and  C_7
REMARK    4  A    between atoms: C_7  and  N_8
REMARK    5  A    between atoms: C_14  and  C_15
REMARK    6  A    between atoms: C_14  and  C_21
REMARK                            x       y       z     vdW  Elec       q    Type
REMARK                         _______ _______ _______ _____ _____    ______ ____
ROOT
ATOM      1  N   UNL     1      -0.125   6.471  -5.550  0.00  0.00    -0.279 N 
ATOM      2  C   UNL     1       1.177   6.962  -5.769  0.00  0.00    +0.232 C 
ATOM      3  O   UNL     1       1.416   8.052  -6.345  0.00  0.00    -0.274 OA
ATOM      4  C   UNL     1       2.149   5.871  -5.759  0.00  0.00    +0.108 C 
ATOM      5  C   UNL     1       1.357   4.698  -4.961  0.00  0.00    +0.037 C 
ATOM      6  C   UNL     1      -0.054   5.047  -5.690  0.00  0.00    +0.095 C 
ENDROOT
BRANCH   4   7
ATOM      7  C   UNL     1       3.302   6.255  -4.924  0.00  0.00    -0.011 A 
ATOM      8  C   UNL     1       4.155   5.234  -4.521  0.00  0.00    -0.004 A 
ATOM      9  C   UNL     1       5.201   5.469  -3.657  0.00  0.00    -0.000 A 
ATOM     10  C   UNL     1       5.661   6.777  -3.590  0.00  0.00    -0.000 A 
ATOM     11  C   UNL     1       4.984   7.787  -4.262  0.00  0.00    -0.000 A 
ATOM     12  C   UNL     1       3.712   7.572  -4.776  0.00  0.00    -0.004 A 
ENDBRANCH   4   7
BRANCH   4  13
ATOM     13  C   UNL     1       2.511   5.346  -7.078  0.00  0.00    -0.011 A 
ATOM     14  C   UNL     1       3.291   6.164  -7.887  0.00  0.00    -0.004 A 
ATOM     15  C   UNL     1       4.057   5.696  -8.920  0.00  0.00    -0.000 A 
ATOM     16  C   UNL     1       3.706   4.460  -9.447  0.00  0.00    -0.000 A 
ATOM     17  C   UNL     1       2.909   3.619  -8.682  0.00  0.00    -0.000 A 
ATOM     18  C   UNL     1       2.343   4.051  -7.489  0.00  0.00    -0.004 A 
ENDBRANCH   4  13
BRANCH   1  20
ATOM     19  C   UNL     1      -2.405   6.498  -5.940  0.00  0.00    +0.023 C 
ATOM     20  C   UNL     1      -1.328   7.262  -5.584  0.00  0.00    +0.093 C 
ENDBRANCH   1  20
BRANCH   5  21
ATOM     21  C   UNL     1       1.050   5.657  -3.678  0.00  0.00    +0.020 C 
BRANCH  21  22
ATOM     22  C   UNL     1       0.275   4.859  -2.693  0.00  0.00    +0.072 C 
BRANCH  22  23
ATOM     23  N   UNL     1      -0.856   5.430  -2.117  0.00  0.00    -0.268 NA
ATOM     24  C   UNL     1      -0.772   6.150  -0.919  0.00  0.00    +0.105 C 
ATOM     25  C   UNL     1      -1.688   7.367  -0.902  0.00  0.00    +0.159 C 
ATOM     26  O   UNL     1      -2.551   7.387  -1.984  0.00  0.00    -0.351 OA
ATOM     27  C   UNL     1      -3.167   6.171  -2.223  0.00  0.00    +0.159 C 
ATOM     28  C   UNL     1      -2.123   5.198  -2.692  0.00  0.00    +0.105 C 
ENDBRANCH  22  23
ENDBRANCH  21  22
ENDBRANCH   5  21
TORSDOF 6
ENDMDL
MODEL 8
REMARK VINA RESULT:      -7.3      3.219      6.906
REMARK  Name = 
REMARK  6 active torsions:
REMARK  status: ('A' for Active; 'I' for Inactive)
REMARK    1  A    between atoms: C_2  and  N_3
REMARK    2  A    between atoms: C_5  and  C_6
REMARK    3  A    between atoms: C_6  and  C_7
REMARK    4  A    between atoms: C_7  and  N_8
REMARK    5  A    between atoms: C_14  and  C_15
REMARK    6  A    between atoms: C_14  and  C_21
REMARK                            x       y       z     vdW  Elec       q    Type
REMARK                         _______ _______ _______ _____ _____    ______ ____
ROOT
ATOM      1  N   UNL     1      -0.358   6.862  -5.023  0.00  0.00    -0.279 N 
ATOM      2  C   UNL     1       0.932   7.043  -5.558  0.00  0.00    +0.232 C 
ATOM      3  O   UNL     1       1.260   8.037  -6.251  0.00  0.00    -0.274 OA
ATOM      4  C   UNL     1       1.625   5.762  -5.681  0.00  0.00    +0.108 C 
ATOM      5  C   UNL     1       0.806   4.816  -4.644  0.00  0.00    +0.037 C 
ATOM      6  C   UNL     1      -0.627   5.456  -5.070  0.00  0.00    +0.095 C 
ENDROOT
BRANCH   4   7
ATOM      7  C   UNL     1       2.994   5.896  -5.150  0.00  0.00    -0.011 A 
ATOM      8  C   UNL     1       3.491   7.187  -5.012  0.00  0.00    -0.004 A 
ATOM      9  C   UNL     1       4.792   7.418  -4.625  0.00  0.00    -0.000 A 
ATOM     10  C   UNL     1       5.420   6.392  -3.932  0.00  0.00    -0.000 A 
ATOM     11  C   UNL     1       4.787   5.165  -3.785  0.00  0.00    -0.000 A 
ATOM     12  C   UNL     1       3.665   4.847  -4.539  0.00  0.00    -0.004 A 
ENDBRANCH   4   7
BRANCH   4  13
ATOM     13  C   UNL     1       1.552   5.139  -7.005  0.00  0.00    -0.011 A 
ATOM     14  C   UNL     1       0.614   5.655  -7.891  0.00  0.00    -0.004 A 
ATOM     15  C   UNL     1       0.695   5.506  -9.249  0.00  0.00    -0.000 A 
ATOM     16  C   UNL     1       1.473   4.454  -9.716  0.00  0.00    -0.000 A 
ATOM     17  C   UNL     1       2.409   3.893  -8.857  0.00  0.00    -0.000 A 
ATOM     18  C   UNL     1       2.468   4.259  -7.518  0.00  0.00    -0.004 A 
ENDBRANCH   4  13
BRANCH   1  20
ATOM     19  C   UNL     1      -2.603   7.419  -5.047  0.00  0.00    +0.023 C 
ATOM     20  C   UNL     1      -1.339   7.902  -4.851  0.00  0.00    +0.093 C 
ENDBRANCH   1  20
BRANCH   5  21
ATOM     21  C   UNL     1       1.014   5.848  -3.400  0.00  0.00    +0.020 C 
BRANCH  21  22
ATOM     22  C   UNL     1       0.515   5.180  -2.170  0.00  0.00    +0.072 C 
BRANCH  22  23
ATOM     23  N   UNL     1      -0.299   5.903  -1.304  0.00  0.00    -0.268 NA
ATOM     24  C   UNL     1       0.216   6.472  -0.133  0.00  0.00    +0.105 C 
ATOM     25  C   UNL     1      -0.388   7.838   0.169  0.00  0.00    +0.159 C 
ATOM     26  O   UNL     1      -1.456   8.132  -0.661  0.00  0.00    -0.351 OA
ATOM     27  C   UNL     1      -2.357   7.090  -0.795  0.00  0.00    +0.159 C 
ATOM     28  C   UNL     1      -1.685   5.981  -1.555  0.00  0.00    +0.105 C 
ENDBRANCH  22  23
ENDBRANCH  21  22
ENDBRANCH   5  21
TORSDOF 6
ENDMDL
MODEL 9
REMARK VINA RESULT:      -7.2      1.870      4.250
REMARK  Name = 
REMARK  6 active torsions:
REMARK  status: ('A' for Active; 'I' for Inactive)
REMARK    1  A    between atoms: C_2  and  N_3
REMARK    2  A    between atoms: C_5  and  C_6
REMARK    3  A    between atoms: C_6  and  C_7
REMARK    4  A    between atoms: C_7  and  N_8
REMARK    5  A    between atoms: C_14  and  C_15
REMARK    6  A    between atoms: C_14  and  C_21
REMARK                            x       y       z     vdW  Elec       q    Type
REMARK                         _______ _______ _______ _____ _____    ______ ____
ROOT
ATOM      1  N   UNL     1       2.941   6.449  -5.732  0.00  0.00    -0.279 N 
ATOM      2  C   UNL     1       1.945   6.863  -6.638  0.00  0.00    +0.232 C 
ATOM      3  O   UNL     1       1.468   8.025  -6.657  0.00  0.00    -0.274 OA
ATOM      4  C   UNL     1       1.189   5.716  -7.134  0.00  0.00    +0.108 C 
ATOM      5  C   UNL     1       2.195   4.474  -6.840  0.00  0.00    +0.037 C 
ATOM      6  C   UNL     1       2.654   5.085  -5.404  0.00  0.00    +0.095 C 
ENDROOT
BRANCH   4   7
ATOM      7  C   UNL     1       1.051   5.820  -8.598  0.00  0.00    -0.011 A 
ATOM      8  C   UNL     1       0.397   4.777  -9.244  0.00  0.00    -0.004 A 
ATOM      9  C   UNL     1       0.305   4.726 -10.617  0.00  0.00    -0.000 A 
ATOM     10  C   UNL     1       0.445   5.934 -11.288  0.00  0.00    -0.000 A 
ATOM     11  C   UNL     1       0.799   7.080 -10.589  0.00  0.00    -0.000 A 
ATOM     12  C   UNL     1       1.281   7.001  -9.289  0.00  0.00    -0.004 A 
ENDBRANCH   4   7
BRANCH   4  13
ATOM     13  C   UNL     1      -0.068   5.447  -6.430  0.00  0.00    -0.011 A 
ATOM     14  C   UNL     1      -0.013   5.402  -5.042  0.00  0.00    -0.004 A 
ATOM     15  C   UNL     1      -1.103   5.592  -4.236  0.00  0.00    -0.000 A 
ATOM     16  C   UNL     1      -2.349   5.383  -4.812  0.00  0.00    -0.000 A 
ATOM     17  C   UNL     1      -2.447   5.399  -6.197  0.00  0.00    -0.000 A 
ATOM     18  C   UNL     1      -1.314   5.463  -6.998  0.00  0.00    -0.004 A 
ENDBRANCH   4  13
BRANCH   1  20
ATOM     19  C   UNL     1       4.919   6.663  -4.551  0.00  0.00    +0.023 C 
ATOM     20  C   UNL     1       3.809   7.328  -4.992  0.00  0.00    +0.093 C 
ENDBRANCH   1  20
BRANCH   5  21
ATOM     21  C   UNL     1       3.429   5.169  -7.647  0.00  0.00    +0.020 C 
BRANCH  21  22
ATOM     22  C   UNL     1       3.710   4.338  -8.847  0.00  0.00    +0.072 C 
BRANCH  22  23
ATOM     23  N   UNL     1       4.441   4.899  -9.888  0.00  0.00    -0.268 NA
ATOM     24  C   UNL     1       3.913   4.974 -11.184  0.00  0.00    +0.105 C 
ATOM     25  C   UNL     1       4.287   6.269 -11.894  0.00  0.00    +0.159 C 
ATOM     26  O   UNL     1       5.228   6.999 -11.189  0.00  0.00    -0.351 OA
ATOM     27  C   UNL     1       6.287   6.237 -10.728  0.00  0.00    +0.159 C 
ATOM     28  C   UNL     1       5.771   5.310  -9.664  0.00  0.00    +0.105 C 
ENDBRANCH  22  23
ENDBRANCH  21  22
ENDBRANCH   5  21
TORSDOF 6
ENDMDL
