MODEL 1
REMARK VINA RESULT:      -6.7      0.000      0.000
REMARK  Name = 
REMARK  2 active torsions:
REMARK  status: ('A' for Active; 'I' for Inactive)
REMARK    1  A    between atoms: C_2  and  C_3
REMARK    2  A    between atoms: C_2  and  C_9
REMARK                            x       y       z     vdW  Elec       q    Type
REMARK                         _______ _______ _______ _____ _____    ______ ____
ROOT
ATOM      1  O   UNL     1       2.107   8.380  -7.854  0.00  0.00    -0.287 OA
ATOM      2  C   UNL     1       1.940   7.162  -8.161  0.00  0.00    +0.196 C 
ENDROOT
BRANCH   2   3
ATOM      3  C   UNL     1       1.091   6.398  -7.235  0.00  0.00    +0.039 A 
ATOM      4  C   UNL     1       0.789   6.869  -5.964  0.00  0.00    +0.003 A 
ATOM      5  C   UNL     1      -0.377   6.490  -5.311  0.00  0.00    +0.000 A 
ATOM      6  C   UNL     1      -1.394   5.943  -6.080  0.00  0.00    +0.000 A 
ATOM      7  C   UNL     1      -1.013   5.182  -7.178  0.00  0.00    +0.000 A 
ATOM      8  C   UNL     1       0.120   5.601  -7.830  0.00  0.00    +0.003 A 
ENDBRANCH   2   3
BRANCH   2   9
ATOM      9  C   UNL     1       3.151   6.468  -8.619  0.00  0.00    +0.039 A 
ATOM     10  C   UNL     1       3.677   6.629  -9.868  0.00  0.00    +0.003 A 
ATOM     11  C   UNL     1       4.978   6.213 -10.072  0.00  0.00    +0.000 A 
ATOM     12  C   UNL     1       5.703   5.527  -9.105  0.00  0.00    +0.000 A 
ATOM     13  C   UNL     1       5.123   5.296  -7.870  0.00  0.00    +0.000 A 
ATOM     14  C   UNL     1       3.766   5.574  -7.753  0.00  0.00    +0.003 A 
ENDBRANCH   2   9
TORSDOF 2
ENDMDL
MODEL 2
REMARK VINA RESULT:      -6.7      0.410      5.261
REMARK  Name = 
REMARK  2 active torsions:
REMARK  status: ('A' for Active; 'I' for Inactive)
REMARK    1  A    between atoms: C_2  and  C_3
REMARK    2  A    between atoms: C_2  and  C_9
REMARK                            x       y       z     vdW  Elec       q    Type
REMARK                         _______ _______ _______ _____ _____    ______ ____
ROOT
ATOM      1  O   UNL     1       2.125   8.378  -7.875  0.00  0.00    -0.287 OA
ATOM      2  C   UNL     1       2.297   7.207  -7.420  0.00  0.00    +0.196 C 
ENDROOT
BRANCH   2   3
ATOM      3  C   UNL     1       3.139   6.335  -8.250  0.00  0.00    +0.039 A 
ATOM      4  C   UNL     1       3.418   6.636  -9.577  0.00  0.00    +0.003 A 
ATOM      5  C   UNL     1       4.577   6.183 -10.193  0.00  0.00    +0.000 A 
ATOM      6  C   UNL     1       5.611   5.749  -9.375  0.00  0.00    +0.000 A 
ATOM      7  C   UNL     1       5.253   5.136  -8.181  0.00  0.00    +0.000 A 
ATOM      8  C   UNL     1       4.126   5.630  -7.571  0.00  0.00    +0.003 A 
ENDBRANCH   2   3
BRANCH   2   9
ATOM      9  C   UNL     1       1.092   6.575  -6.867  0.00  0.00    +0.039 A 
ATOM     10  C   UNL     1       0.608   6.852  -5.620  0.00  0.00    +0.003 A 
ATOM     11  C   UNL     1      -0.691   6.475  -5.342  0.00  0.00    +0.000 A 
ATOM     12  C   UNL     1      -1.456   5.720  -6.223  0.00  0.00    +0.000 A 
ATOM     13  C   UNL     1      -0.918   5.375  -7.451  0.00  0.00    +0.000 A 
ATOM     14  C   UNL     1       0.438   5.620  -7.633  0.00  0.00    +0.003 A 
ENDBRANCH   2   9
TORSDOF 2
ENDMDL
MODEL 3
REMARK VINA RESULT:      -6.6      2.419      3.407
REMARK  Name = 
REMARK  2 active torsions:
REMARK  status: ('A' for Active; 'I' for Inactive)
REMARK    1  A    between atoms: C_2  and  C_3
REMARK    2  A    between atoms: C_2  and  C_9
REMARK                            x       y       z     vdW  Elec       q    Type
REMARK                         _______ _______ _______ _____ _____    ______ ____
ROOT
ATOM      1  O   UNL     1       3.133   5.825 -11.267  0.00  0.00    -0.287 OA
ATOM      2  C   UNL     1       3.732   5.643 -10.165  0.00  0.00    +0.196 C 
ENDROOT
BRANCH   2   3
ATOM      3  C   UNL     1       2.907   5.858  -8.967  0.00  0.00    +0.039 A 
ATOM      4  C   UNL     1       3.075   5.095  -7.819  0.00  0.00    +0.003 A 
ATOM      5  C   UNL     1       2.741   5.592  -6.565  0.00  0.00    +0.000 A 
ATOM      6  C   UNL     1       2.591   6.966  -6.439  0.00  0.00    +0.000 A 
ATOM      7  C   UNL     1       2.088   7.647  -7.541  0.00  0.00    +0.000 A 
ATOM      8  C   UNL     1       2.466   7.161  -8.767  0.00  0.00    +0.003 A 
ENDBRANCH   2   3
BRANCH   2   9
ATOM      9  C   UNL     1       5.089   6.199 -10.099  0.00  0.00    +0.039 A 
ATOM     10  C   UNL     1       6.086   5.651  -9.344  0.00  0.00    +0.003 A 
ATOM     11  C   UNL     1       7.383   6.037  -9.620  0.00  0.00    +0.000 A 
ATOM     12  C   UNL     1       7.686   7.042 -10.529  0.00  0.00    +0.000 A 
ATOM     13  C   UNL     1       6.656   7.648 -11.227  0.00  0.00    +0.000 A 
ATOM     14  C   UNL     1       5.361   7.361 -10.808  0.00  0.00    +0.003 A 
ENDBRANCH   2   9
TORSDOF 2
ENDMDL
MODEL 4
REMARK VINA RESULT:      -6.6      2.759      5.357
REMARK  Name = 
REMARK  2 active torsions:
REMARK  status: ('A' for Active; 'I' for Inactive)
REMARK    1  A    between atoms: C_2  and  C_3
REMARK    2  A    between atoms: C_2  and  C_9
REMARK                            x       y       z     vdW  Elec       q    Type
REMARK                         _______ _______ _______ _____ _____    ______ ____
ROOT
ATOM      1  O   UNL     1       2.020   5.893  -8.071  0.00  0.00    -0.287 OA
ATOM      2  C   UNL     1       0.837   5.452  -8.188  0.00  0.00    +0.196 C 
ENDROOT
BRANCH   2   3
ATOM      3  C   UNL     1       0.235   5.630  -9.517  0.00  0.00    +0.039 A 
ATOM      4  C   UNL     1       0.181   6.873 -10.133  0.00  0.00    +0.003 A 
ATOM      5  C   UNL     1       0.141   6.993 -11.517  0.00  0.00    +0.000 A 
ATOM      6  C   UNL     1       0.527   5.892 -12.267  0.00  0.00    +0.000 A 
ATOM      7  C   UNL     1       0.245   4.639 -11.737  0.00  0.00    +0.000 A 
ATOM      8  C   UNL     1       0.331   4.537 -10.370  0.00  0.00    +0.003 A 
ENDBRANCH   2   3
BRANCH   2   9
ATOM      9  C   UNL     1      -0.048   5.748  -7.054  0.00  0.00    +0.039 A 
ATOM     10  C   UNL     1       0.335   6.507  -5.985  0.00  0.00    +0.003 A 
ATOM     11  C   UNL     1      -0.659   7.002  -5.164  0.00  0.00    +0.000 A 
ATOM     12  C   UNL     1      -1.994   6.648  -5.310  0.00  0.00    +0.000 A 
ATOM     13  C   UNL     1      -2.355   5.808  -6.350  0.00  0.00    +0.000 A 
ATOM     14  C   UNL     1      -1.321   5.196  -7.050  0.00  0.00    +0.003 A 
ENDBRANCH   2   9
TORSDOF 2
ENDMDL
MODEL 5
REMARK VINA RESULT:      -6.6      2.572      5.726
REMARK  Name = 
REMARK  2 active torsions:
REMARK  status: ('A' for Active; 'I' for Inactive)
REMARK    1  A    between atoms: C_2  and  C_3
REMARK    2  A    between atoms: C_2  and  C_9
REMARK                            x       y       z     vdW  Elec       q    Type
REMARK                         _______ _______ _______ _____ _____    ______ ____
ROOT
ATOM      1  O   UNL     1       4.049   4.027  -9.308  0.00  0.00    -0.287 OA
ATOM      2  C   UNL     1       4.068   5.289  -9.425  0.00  0.00    +0.196 C 
ENDROOT
BRANCH   2   3
ATOM      3  C   UNL     1       5.180   5.822 -10.224  0.00  0.00    +0.039 A 
ATOM      4  C   UNL     1       5.048   6.982 -10.976  0.00  0.00    +0.003 A 
ATOM      5  C   UNL     1       6.146   7.781 -11.273  0.00  0.00    +0.000 A 
ATOM      6  C   UNL     1       7.291   7.606 -10.508  0.00  0.00    +0.000 A 
ATOM      7  C   UNL     1       7.553   6.320 -10.053  0.00  0.00    +0.000 A 
ATOM      8  C   UNL     1       6.452   5.566  -9.728  0.00  0.00    +0.003 A 
ENDBRANCH   2   3
BRANCH   2   9
ATOM      9  C   UNL     1       3.769   6.029  -8.193  0.00  0.00    +0.039 A 
ATOM     10  C   UNL     1       2.852   7.039  -8.131  0.00  0.00    +0.003 A 
ATOM     11  C   UNL     1       2.407   7.422  -6.881  0.00  0.00    +0.000 A 
ATOM     12  C   UNL     1       2.951   6.917  -5.706  0.00  0.00    +0.000 A 
ATOM     13  C   UNL     1       3.942   5.953  -5.787  0.00  0.00    +0.000 A 
ATOM     14  C   UNL     1       4.483   5.713  -7.045  0.00  0.00    +0.003 A 
ENDBRANCH   2   9
TORSDOF 2
ENDMDL
MODEL 6
REMARK VINA RESULT:      -6.6      1.808      2.521
REMARK  Name = 
REMARK  2 active torsions:
REMARK  status: ('A' for Active; 'I' for Inactive)
REMARK    1  A    between atoms: C_2  and  C_3
REMARK    2  A    between atoms: C_2  and  C_9
REMARK                            x       y       z     vdW  Elec       q    Type
REMARK                         _______ _______ _______ _____ _____    ______ ____
ROOT
ATOM      1  O   UNL     1       1.166   3.902  -5.979  0.00  0.00    -0.287 OA
ATOM      2  C   UNL     1       1.273   5.100  -6.380  0.00  0.00    +0.196 C 
ENDROOT
BRANCH   2   3
ATOM      3  C   UNL     1       0.022   5.873  -6.370  0.00  0.00    +0.039 A 
ATOM      4  C   UNL     1      -1.172   5.334  -6.829  0.00  0.00    +0.003 A 
ATOM      5  C   UNL     1      -2.398   5.783  -6.353  0.00  0.00    +0.000 A 
ATOM      6  C   UNL     1      -2.401   6.501  -5.165  0.00  0.00    +0.000 A 
ATOM      7  C   UNL     1      -1.295   7.304  -4.913  0.00  0.00    +0.000 A 
ATOM      8  C   UNL     1      -0.091   6.819  -5.358  0.00  0.00    +0.003 A 
ENDBRANCH   2   3
BRANCH   2   9
ATOM      9  C   UNL     1       2.113   5.281  -7.571  0.00  0.00    +0.039 A 
ATOM     10  C   UNL     1       2.407   6.506  -8.099  0.00  0.00    +0.003 A 
ATOM     11  C   UNL     1       3.462   6.582  -8.986  0.00  0.00    +0.000 A 
ATOM     12  C   UNL     1       4.131   5.457  -9.451  0.00  0.00    +0.000 A 
ATOM     13  C   UNL     1       3.764   4.212  -8.969  0.00  0.00    +0.000 A 
ATOM     14  C   UNL     1       2.598   4.151  -8.214  0.00  0.00    +0.003 A 
ENDBRANCH   2   9
TORSDOF 2
ENDMDL
MODEL 7
REMARK VINA RESULT:      -6.5      2.461      2.869
REMARK  Name = 
REMARK  2 active torsions:
REMARK  status: ('A' for Active; 'I' for Inactive)
REMARK    1  A    between atoms: C_2  and  C_3
REMARK    2  A    between atoms: C_2  and  C_9
REMARK                            x       y       z     vdW  Elec       q    Type
REMARK                         _______ _______ _______ _____ _____    ______ ____
ROOT
ATOM      1  O   UNL     1       1.391   6.999  -7.726  0.00  0.00    -0.287 OA
ATOM      2  C   UNL     1       1.403   6.122  -6.811  0.00  0.00    +0.196 C 
ENDROOT
BRANCH   2   3
ATOM      3  C   UNL     1       0.181   6.057  -5.997  0.00  0.00    +0.039 A 
ATOM      4  C   UNL     1      -0.141   7.051  -5.082  0.00  0.00    +0.003 A 
ATOM      5  C   UNL     1      -1.460   7.306  -4.727  0.00  0.00    +0.000 A 
ATOM      6  C   UNL     1      -2.455   6.818  -5.561  0.00  0.00    +0.000 A 
ATOM      7  C   UNL     1      -2.200   5.615  -6.207  0.00  0.00    +0.000 A 
ATOM      8  C   UNL     1      -0.897   5.404  -6.584  0.00  0.00    +0.003 A 
ENDBRANCH   2   3
BRANCH   2   9
ATOM      9  C   UNL     1       2.662   6.028  -6.061  0.00  0.00    +0.039 A 
ATOM     10  C   UNL     1       3.504   7.087  -5.877  0.00  0.00    +0.003 A 
ATOM     11  C   UNL     1       4.461   6.978  -4.887  0.00  0.00    +0.000 A 
ATOM     12  C   UNL     1       4.675   5.801  -4.180  0.00  0.00    +0.000 A 
ATOM     13  C   UNL     1       3.867   4.708  -4.439  0.00  0.00    +0.000 A 
ATOM     14  C   UNL     1       3.033   4.792  -5.548  0.00  0.00    +0.003 A 
ENDBRANCH   2   9
TORSDOF 2
ENDMDL
MODEL 8
REMARK VINA RESULT:      -6.4      2.960      4.151
REMARK  Name = 
REMARK  2 active torsions:
REMARK  status: ('A' for Active; 'I' for Inactive)
REMARK    1  A    between atoms: C_2  and  C_3
REMARK    2  A    between atoms: C_2  and  C_9
REMARK                            x       y       z     vdW  Elec       q    Type
REMARK                         _______ _______ _______ _____ _____    ______ ____
ROOT
ATOM      1  O   UNL     1       3.721   4.331  -9.425  0.00  0.00    -0.287 OA
ATOM      2  C   UNL     1       3.706   5.586  -9.604  0.00  0.00    +0.196 C 
ENDROOT
BRANCH   2   3
ATOM      3  C   UNL     1       2.616   6.078 -10.459  0.00  0.00    +0.039 A 
ATOM      4  C   UNL     1       2.378   5.543 -11.718  0.00  0.00    +0.003 A 
ATOM      5  C   UNL     1       1.112   5.576 -12.290  0.00  0.00    +0.000 A 
ATOM      6  C   UNL     1       0.034   5.809 -11.448  0.00  0.00    +0.000 A 
ATOM      7  C   UNL     1       0.255   6.646 -10.360  0.00  0.00    +0.000 A 
ATOM      8  C   UNL     1       1.500   6.565  -9.789  0.00  0.00    +0.003 A 
ENDBRANCH   2   3
BRANCH   2   9
ATOM      9  C   UNL     1       5.020   6.192  -9.852  0.00  0.00    +0.039 A 
ATOM     10  C   UNL     1       6.181   5.698  -9.329  0.00  0.00    +0.003 A 
ATOM     11  C   UNL     1       7.368   6.124  -9.893  0.00  0.00    +0.000 A 
ATOM     12  C   UNL     1       7.420   7.118 -10.863  0.00  0.00    +0.000 A 
ATOM     13  C   UNL     1       6.237   7.669 -11.322  0.00  0.00    +0.000 A 
ATOM     14  C   UNL     1       5.080   7.345 -10.621  0.00  0.00    +0.003 A 
ENDBRANCH   2   9
TORSDOF 2
ENDMDL
MODEL 9
REMARK VINA RESULT:      -6.3      2.289      2.821
REMARK  Name = 
REMARK  2 active torsions:
REMARK  status: ('A' for Active; 'I' for Inactive)
REMARK    1  A    between atoms: C_2  and  C_3
REMARK    2  A    between atoms: C_2  and  C_9
REMARK                            x       y       z     vdW  Elec       q    Type
REMARK                         _______ _______ _______ _____ _____    ______ ____
ROOT
ATOM      1  O   UNL     1       2.858   7.250  -9.157  0.00  0.00    -0.287 OA
ATOM      2  C   UNL     1       3.579   6.207  -9.147  0.00  0.00    +0.196 C 
ENDROOT
BRANCH   2   3
ATOM      3  C   UNL     1       3.577   5.462  -7.880  0.00  0.00    +0.039 A 
ATOM      4  C   UNL     1       3.810   6.090  -6.664  0.00  0.00    +0.003 A 
ATOM      5  C   UNL     1       3.297   5.580  -5.478  0.00  0.00    +0.000 A 
ATOM      6  C   UNL     1       2.260   4.663  -5.569  0.00  0.00    +0.000 A 
ATOM      7  C   UNL     1       2.268   3.812  -6.668  0.00  0.00    +0.000 A 
ATOM      8  C   UNL     1       2.741   4.353  -7.838  0.00  0.00    +0.003 A 
ENDBRANCH   2   3
BRANCH   2   9
ATOM      9  C   UNL     1       4.894   6.358  -9.785  0.00  0.00    +0.039 A 
ATOM     10  C   UNL     1       5.145   7.264 -10.776  0.00  0.00    +0.003 A 
ATOM     11  C   UNL     1       6.465   7.557 -11.054  0.00  0.00    +0.000 A 
ATOM     12  C   UNL     1       7.522   6.875 -10.464  0.00  0.00    +0.000 A 
ATOM     13  C   UNL     1       7.248   5.898  -9.523  0.00  0.00    +0.000 A 
ATOM     14  C   UNL     1       5.919   5.511  -9.389  0.00  0.00    +0.003 A 
ENDBRANCH   2   9
TORSDOF 2
ENDMDL
