MODEL 1
REMARK VINA RESULT:      -7.9      0.000      0.000
REMARK  Name = 
REMARK  4 active torsions:
REMARK  status: ('A' for Active; 'I' for Inactive)
REMARK    1  A    between atoms: O_2  and  C_3
REMARK    2  A    between atoms: C_9  and  C_10
REMARK    3  A    between atoms: C_10  and  C_11
REMARK    4  A    between atoms: C_17  and  C_19
REMARK                            x       y       z     vdW  Elec       q    Type
REMARK                         _______ _______ _______ _____ _____    ______ ____
ROOT
ATOM      1  C   UNL     1      -0.829   6.331  -4.160  0.00  0.00    +0.139 A 
ATOM      2  C   UNL     1       0.337   6.663  -4.839  0.00  0.00    +0.038 A 
ATOM      3  C   UNL     1       1.528   6.083  -4.423  0.00  0.00    +0.017 A 
ATOM      4  C   UNL     1       2.813   6.148  -4.950  0.00  0.00    +0.003 A 
ATOM      5  C   UNL     1       3.599   5.530  -3.985  0.00  0.00    +0.041 A 
ATOM      6  N   UNL     1       2.928   5.459  -2.817  0.00  0.00    -0.279 N 
ATOM      7  C   UNL     1       3.456   5.359  -1.488  0.00  0.00    +0.264 C 
ATOM      8  O   UNL     1       3.052   4.378  -0.792  0.00  0.00    -0.267 OA
ATOM      9  C   UNL     1       5.009   5.062  -4.163  0.00  0.00    +0.050 C 
ATOM     10  C   UNL     1       1.615   5.581  -3.132  0.00  0.00    +0.066 A 
ATOM     11  C   UNL     1       0.465   5.207  -2.451  0.00  0.00    +0.021 A 
ATOM     12  C   UNL     1      -0.747   5.484  -3.062  0.00  0.00    +0.038 A 
ENDROOT
BRANCH   7  13
ATOM     13  C   UNL     1       3.684   6.653  -0.831  0.00  0.00    +0.057 A 
ATOM     14  C   UNL     1       4.442   6.775   0.316  0.00  0.00    +0.006 A 
ATOM     15  C   UNL     1       4.470   8.011   0.953  0.00  0.00    +0.012 A 
ATOM     16  C   UNL     1       4.021   9.161   0.315  0.00  0.00    +0.058 A 
ATOM     17 CL   UNL     1       3.436  10.541   1.237  0.00  0.00    -0.082 Cl
ATOM     18  C   UNL     1       3.685   9.004  -1.022  0.00  0.00    +0.012 A 
ATOM     19  C   UNL     1       3.615   7.778  -1.643  0.00  0.00    +0.006 A 
ENDBRANCH   7  13
BRANCH   1  21
ATOM     20  C   UNL     1      -2.038   8.463  -4.439  0.00  0.00    +0.252 C 
ATOM     21  O   UNL     1      -2.007   7.058  -4.305  0.00  0.00    -0.471 OA
ENDBRANCH   1  21
BRANCH   4  22
ATOM     22  C   UNL     1       3.358   7.153  -5.916  0.00  0.00    +0.142 C 
BRANCH  22  23
ATOM     23  C   UNL     1       2.720   7.012  -7.236  0.00  0.00    +0.369 C 
ATOM     24  O   UNL     1       2.174   8.175  -7.790  0.00  0.00    -0.245 OA
ATOM     25  O   UNL     1       3.302   6.253  -8.069  0.00  0.00    -0.245 OA
ENDBRANCH  22  23
ENDBRANCH   4  22
TORSDOF 4
ENDMDL
MODEL 2
REMARK VINA RESULT:      -7.6      6.852     11.142
REMARK  Name = 
REMARK  4 active torsions:
REMARK  status: ('A' for Active; 'I' for Inactive)
REMARK    1  A    between atoms: O_2  and  C_3
REMARK    2  A    between atoms: C_9  and  C_10
REMARK    3  A    between atoms: C_10  and  C_11
REMARK    4  A    between atoms: C_17  and  C_19
REMARK                            x       y       z     vdW  Elec       q    Type
REMARK                         _______ _______ _______ _____ _____    ______ ____
ROOT
ATOM      1  C   UNL     1       6.352   6.063 -11.690  0.00  0.00    +0.139 A 
ATOM      2  C   UNL     1       5.350   6.475 -10.820  0.00  0.00    +0.038 A 
ATOM      3  C   UNL     1       4.059   6.007 -11.035  0.00  0.00    +0.017 A 
ATOM      4  C   UNL     1       2.892   6.166 -10.297  0.00  0.00    +0.003 A 
ATOM      5  C   UNL     1       1.905   5.639 -11.121  0.00  0.00    +0.041 A 
ATOM      6  N   UNL     1       2.362   5.541 -12.387  0.00  0.00    -0.279 N 
ATOM      7  C   UNL     1       1.611   5.517 -13.608  0.00  0.00    +0.264 C 
ATOM      8  O   UNL     1       1.807   4.523 -14.372  0.00  0.00    -0.267 OA
ATOM      9  C   UNL     1       0.510   5.287 -10.712  0.00  0.00    +0.050 C 
ATOM     10  C   UNL     1       3.715   5.545 -12.298  0.00  0.00    +0.066 A 
ATOM     11  C   UNL     1       4.698   5.093 -13.167  0.00  0.00    +0.021 A 
ATOM     12  C   UNL     1       6.014   5.253 -12.766  0.00  0.00    +0.038 A 
ENDROOT
BRANCH   7  13
ATOM     13  C   UNL     1       1.390   6.842 -14.205  0.00  0.00    +0.057 A 
ATOM     14  C   UNL     1       1.504   7.068 -15.562  0.00  0.00    +0.006 A 
ATOM     15  C   UNL     1       1.433   8.381 -16.014  0.00  0.00    +0.012 A 
ATOM     16  C   UNL     1       0.957   9.400 -15.197  0.00  0.00    +0.058 A 
ATOM     17 CL   UNL     1       1.444  11.072 -15.454  0.00  0.00    -0.082 Cl
ATOM     18  C   UNL     1       0.440   8.989 -13.978  0.00  0.00    +0.012 A 
ATOM     19  C   UNL     1       0.546   7.699 -13.510  0.00  0.00    +0.006 A 
ENDBRANCH   7  13
BRANCH   1  21
ATOM     20  C   UNL     1       8.771   6.035 -12.175  0.00  0.00    +0.252 C 
ATOM     21  O   UNL     1       7.596   6.686 -11.739  0.00  0.00    -0.471 OA
ENDBRANCH   1  21
BRANCH   4  22
ATOM     22  C   UNL     1       2.606   7.190  -9.243  0.00  0.00    +0.142 C 
BRANCH  22  23
ATOM     23  C   UNL     1       2.930   6.668  -7.904  0.00  0.00    +0.369 C 
ATOM     24  O   UNL     1       2.919   7.596  -6.857  0.00  0.00    -0.245 OA
ATOM     25  O   UNL     1       2.453   5.531  -7.608  0.00  0.00    -0.245 OA
ENDBRANCH  22  23
ENDBRANCH   4  22
TORSDOF 4
ENDMDL
MODEL 3
REMARK VINA RESULT:      -7.2      1.893      2.474
REMARK  Name = 
REMARK  4 active torsions:
REMARK  status: ('A' for Active; 'I' for Inactive)
REMARK    1  A    between atoms: O_2  and  C_3
REMARK    2  A    between atoms: C_9  and  C_10
REMARK    3  A    between atoms: C_10  and  C_11
REMARK    4  A    between atoms: C_17  and  C_19
REMARK                            x       y       z     vdW  Elec       q    Type
REMARK                         _______ _______ _______ _____ _____    ______ ____
ROOT
ATOM      1  C   UNL     1      -0.560   6.350  -4.414  0.00  0.00    +0.139 A 
ATOM      2  C   UNL     1       0.801   6.095  -4.530  0.00  0.00    +0.038 A 
ATOM      3  C   UNL     1       1.510   5.772  -3.380  0.00  0.00    +0.017 A 
ATOM      4  C   UNL     1       2.832   5.386  -3.196  0.00  0.00    +0.003 A 
ATOM      5  C   UNL     1       2.994   5.401  -1.816  0.00  0.00    +0.041 A 
ATOM      6  N   UNL     1       2.000   6.111  -1.242  0.00  0.00    -0.279 N 
ATOM      7  C   UNL     1       1.998   6.781   0.026  0.00  0.00    +0.264 C 
ATOM      8  O   UNL     1       1.074   6.459   0.834  0.00  0.00    -0.267 OA
ATOM      9  C   UNL     1       4.126   4.790  -1.054  0.00  0.00    +0.050 C 
ATOM     10  C   UNL     1       0.991   6.143  -2.146  0.00  0.00    +0.066 A 
ATOM     11  C   UNL     1      -0.371   6.363  -2.001  0.00  0.00    +0.021 A 
ATOM     12  C   UNL     1      -1.141   6.330  -3.153  0.00  0.00    +0.038 A 
ENDROOT
BRANCH   7  13
ATOM     13  C   UNL     1       2.438   8.181  -0.032  0.00  0.00    +0.057 A 
ATOM     14  C   UNL     1       3.228   8.665  -1.056  0.00  0.00    +0.006 A 
ATOM     15  C   UNL     1       3.725   9.959  -0.943  0.00  0.00    +0.012 A 
ATOM     16  C   UNL     1       3.208  10.850  -0.010  0.00  0.00    +0.058 A 
ATOM     17 CL   UNL     1       4.178  12.185   0.604  0.00  0.00    -0.082 Cl
ATOM     18  C   UNL     1       2.093  10.403   0.683  0.00  0.00    +0.012 A 
ATOM     19  C   UNL     1       1.626   9.111   0.606  0.00  0.00    +0.006 A 
ENDBRANCH   7  13
BRANCH   1  21
ATOM     20  C   UNL     1      -2.594   7.469  -5.250  0.00  0.00    +0.252 C 
ATOM     21  O   UNL     1      -1.294   6.951  -5.434  0.00  0.00    -0.471 OA
ENDBRANCH   1  21
BRANCH   4  22
ATOM     22  C   UNL     1       3.977   5.551  -4.147  0.00  0.00    +0.142 C 
BRANCH  22  23
ATOM     23  C   UNL     1       4.389   6.962  -4.231  0.00  0.00    +0.369 C 
ATOM     24  O   UNL     1       5.682   7.260  -3.787  0.00  0.00    -0.245 OA
ATOM     25  O   UNL     1       4.026   7.598  -5.267  0.00  0.00    -0.245 OA
ENDBRANCH  22  23
ENDBRANCH   4  22
TORSDOF 4
ENDMDL
MODEL 4
REMARK VINA RESULT:      -6.9      3.565      5.507
REMARK  Name = 
REMARK  4 active torsions:
REMARK  status: ('A' for Active; 'I' for Inactive)
REMARK    1  A    between atoms: O_2  and  C_3
REMARK    2  A    between atoms: C_9  and  C_10
REMARK    3  A    between atoms: C_10  and  C_11
REMARK    4  A    between atoms: C_17  and  C_19
REMARK                            x       y       z     vdW  Elec       q    Type
REMARK                         _______ _______ _______ _____ _____    ______ ____
ROOT
ATOM      1  C   UNL     1       0.572   6.607 -10.439  0.00  0.00    +0.139 A 
ATOM      2  C   UNL     1       1.941   6.831 -10.523  0.00  0.00    +0.038 A 
ATOM      3  C   UNL     1       2.790   5.982  -9.822  0.00  0.00    +0.017 A 
ATOM      4  C   UNL     1       4.177   5.900  -9.785  0.00  0.00    +0.003 A 
ATOM      5  C   UNL     1       4.427   4.997  -8.758  0.00  0.00    +0.041 A 
ATOM      6  N   UNL     1       3.329   4.856  -7.987  0.00  0.00    -0.279 N 
ATOM      7  C   UNL     1       3.247   4.441  -6.617  0.00  0.00    +0.264 C 
ATOM      8  O   UNL     1       2.496   3.448  -6.372  0.00  0.00    -0.267 OA
ATOM      9  C   UNL     1       5.731   4.317  -8.480  0.00  0.00    +0.050 C 
ATOM     10  C   UNL     1       2.284   5.265  -8.747  0.00  0.00    +0.066 A 
ATOM     11  C   UNL     1       0.924   4.998  -8.666  0.00  0.00    +0.021 A 
ATOM     12  C   UNL     1       0.108   5.588  -9.617  0.00  0.00    +0.038 A 
ENDROOT
BRANCH   7  13
ATOM     13  C   UNL     1       3.307   5.545  -5.649  0.00  0.00    +0.057 A 
ATOM     14  C   UNL     1       4.268   6.535  -5.718  0.00  0.00    +0.006 A 
ATOM     15  C   UNL     1       4.343   7.446  -4.670  0.00  0.00    +0.012 A 
ATOM     16  C   UNL     1       3.313   7.566  -3.745  0.00  0.00    +0.058 A 
ATOM     17 CL   UNL     1       3.618   8.173  -2.121  0.00  0.00    -0.082 Cl
ATOM     18  C   UNL     1       2.174   6.827  -4.025  0.00  0.00    +0.012 A 
ATOM     19  C   UNL     1       2.111   5.894  -5.035  0.00  0.00    +0.006 A 
ENDBRANCH   7  13
BRANCH   1  21
ATOM     20  C   UNL     1      -0.558   7.898 -12.212  0.00  0.00    +0.252 C 
ATOM     21  O   UNL     1      -0.362   7.550 -10.858  0.00  0.00    -0.471 OA
ENDBRANCH   1  21
BRANCH   4  22
ATOM     22  C   UNL     1       5.169   6.936 -10.212  0.00  0.00    +0.142 C 
BRANCH  22  23
ATOM     23  C   UNL     1       5.599   6.708 -11.602  0.00  0.00    +0.369 C 
ATOM     24  O   UNL     1       6.549   7.600 -12.113  0.00  0.00    -0.245 OA
ATOM     25  O   UNL     1       5.765   5.501 -11.953  0.00  0.00    -0.245 OA
ENDBRANCH  22  23
ENDBRANCH   4  22
TORSDOF 4
ENDMDL
MODEL 5
REMARK VINA RESULT:      -6.6      2.388      3.833
REMARK  Name = 
REMARK  4 active torsions:
REMARK  status: ('A' for Active; 'I' for Inactive)
REMARK    1  A    between atoms: O_2  and  C_3
REMARK    2  A    between atoms: C_9  and  C_10
REMARK    3  A    between atoms: C_10  and  C_11
REMARK    4  A    between atoms: C_17  and  C_19
REMARK                            x       y       z     vdW  Elec       q    Type
REMARK                         _______ _______ _______ _____ _____    ______ ____
ROOT
ATOM      1  C   UNL     1       1.762   6.729  -6.037  0.00  0.00    +0.139 A 
ATOM      2  C   UNL     1       2.892   6.782  -5.229  0.00  0.00    +0.038 A 
ATOM      3  C   UNL     1       2.914   6.005  -4.078  0.00  0.00    +0.017 A 
ATOM      4  C   UNL     1       3.917   5.782  -3.142  0.00  0.00    +0.003 A 
ATOM      5  C   UNL     1       3.274   5.083  -2.127  0.00  0.00    +0.041 A 
ATOM      6  N   UNL     1       1.937   5.220  -2.246  0.00  0.00    -0.279 N 
ATOM      7  C   UNL     1       0.933   5.101  -1.229  0.00  0.00    +0.264 C 
ATOM      8  O   UNL     1       0.004   4.264  -1.448  0.00  0.00    -0.267 OA
ATOM      9  C   UNL     1       3.937   4.336  -1.014  0.00  0.00    +0.050 C 
ATOM     10  C   UNL     1       1.710   5.578  -3.533  0.00  0.00    +0.066 A 
ATOM     11  C   UNL     1       0.579   5.482  -4.333  0.00  0.00    +0.021 A 
ATOM     12  C   UNL     1       0.684   5.953  -5.631  0.00  0.00    +0.038 A 
ENDROOT
BRANCH   7  13
ATOM     13  C   UNL     1       0.610   6.363  -0.551  0.00  0.00    +0.057 A 
ATOM     14  C   UNL     1       1.582   7.271  -0.178  0.00  0.00    +0.006 A 
ATOM     15  C   UNL     1       1.197   8.359   0.597  0.00  0.00    +0.012 A 
ATOM     16  C   UNL     1      -0.141   8.707   0.736  0.00  0.00    +0.058 A 
ATOM     17 CL   UNL     1      -0.706   9.595   2.148  0.00  0.00    -0.082 Cl
ATOM     18  C   UNL     1      -1.026   7.988  -0.053  0.00  0.00    +0.012 A 
ATOM     19  C   UNL     1      -0.657   6.885  -0.787  0.00  0.00    +0.006 A 
ENDBRANCH   7  13
BRANCH   1  21
ATOM     20  C   UNL     1       2.136   7.615  -8.309  0.00  0.00    +0.252 C 
ATOM     21  O   UNL     1       1.521   7.664  -7.040  0.00  0.00    -0.471 OA
ENDBRANCH   1  21
BRANCH   4  22
ATOM     22  C   UNL     1       5.150   6.597  -2.907  0.00  0.00    +0.142 C 
BRANCH  22  23
ATOM     23  C   UNL     1       4.866   7.733  -2.013  0.00  0.00    +0.369 C 
ATOM     24  O   UNL     1       3.792   8.554  -2.374  0.00  0.00    -0.245 OA
ATOM     25  O   UNL     1       4.968   7.513  -0.768  0.00  0.00    -0.245 OA
ENDBRANCH  22  23
ENDBRANCH   4  22
TORSDOF 4
ENDMDL
MODEL 6
REMARK VINA RESULT:      -6.6      4.744      7.360
REMARK  Name = 
REMARK  4 active torsions:
REMARK  status: ('A' for Active; 'I' for Inactive)
REMARK    1  A    between atoms: O_2  and  C_3
REMARK    2  A    between atoms: C_9  and  C_10
REMARK    3  A    between atoms: C_10  and  C_11
REMARK    4  A    between atoms: C_17  and  C_19
REMARK                            x       y       z     vdW  Elec       q    Type
REMARK                         _______ _______ _______ _____ _____    ______ ____
ROOT
ATOM      1  C   UNL     1       1.251   6.287 -12.846  0.00  0.00    +0.139 A 
ATOM      2  C   UNL     1       2.411   6.863 -12.342  0.00  0.00    +0.038 A 
ATOM      3  C   UNL     1       3.138   6.156 -11.394  0.00  0.00    +0.017 A 
ATOM      4  C   UNL     1       4.359   6.425 -10.787  0.00  0.00    +0.003 A 
ATOM      5  C   UNL     1       4.456   5.459  -9.793  0.00  0.00    +0.041 A 
ATOM      6  N   UNL     1       3.244   4.916  -9.555  0.00  0.00    -0.279 N 
ATOM      7  C   UNL     1       2.771   4.272  -8.365  0.00  0.00    +0.264 C 
ATOM      8  O   UNL     1       2.320   3.094  -8.500  0.00  0.00    -0.267 OA
ATOM      9  C   UNL     1       5.691   5.098  -9.031  0.00  0.00    +0.050 C 
ATOM     10  C   UNL     1       2.499   5.165 -10.661  0.00  0.00    +0.066 A 
ATOM     11  C   UNL     1       1.361   4.549 -11.164  0.00  0.00    +0.021 A 
ATOM     12  C   UNL     1       0.837   5.062 -12.340  0.00  0.00    +0.038 A 
ENDROOT
BRANCH   7  13
ATOM     13  C   UNL     1       2.120   5.178  -7.409  0.00  0.00    +0.057 A 
ATOM     14  C   UNL     1       2.804   6.194  -6.772  0.00  0.00    +0.006 A 
ATOM     15  C   UNL     1       2.146   6.896  -5.768  0.00  0.00    +0.012 A 
ATOM     16  C   UNL     1       0.768   6.809  -5.613  0.00  0.00    +0.058 A 
ATOM     17 CL   UNL     1       0.009   7.114  -4.054  0.00  0.00    -0.082 Cl
ATOM     18  C   UNL     1       0.103   6.098  -6.600  0.00  0.00    +0.012 A 
ATOM     19  C   UNL     1       0.752   5.367  -7.569  0.00  0.00    +0.006 A 
ENDBRANCH   7  13
BRANCH   1  21
ATOM     20  C   UNL     1       0.639   7.786 -14.708  0.00  0.00    +0.252 C 
ATOM     21  O   UNL     1       0.312   7.017 -13.571  0.00  0.00    -0.471 OA
ENDBRANCH   1  21
BRANCH   4  22
ATOM     22  C   UNL     1       5.078   7.736 -10.714  0.00  0.00    +0.142 C 
BRANCH  22  23
ATOM     23  C   UNL     1       6.322   7.697 -11.501  0.00  0.00    +0.369 C 
ATOM     24  O   UNL     1       7.502   7.460 -10.786  0.00  0.00    -0.245 OA
ATOM     25  O   UNL     1       6.262   7.117 -12.627  0.00  0.00    -0.245 OA
ENDBRANCH  22  23
ENDBRANCH   4  22
TORSDOF 4
ENDMDL
MODEL 7
REMARK VINA RESULT:      -6.5      4.538      7.657
REMARK  Name = 
REMARK  4 active torsions:
REMARK  status: ('A' for Active; 'I' for Inactive)
REMARK    1  A    between atoms: O_2  and  C_3
REMARK    2  A    between atoms: C_9  and  C_10
REMARK    3  A    between atoms: C_10  and  C_11
REMARK    4  A    between atoms: C_17  and  C_19
REMARK                            x       y       z     vdW  Elec       q    Type
REMARK                         _______ _______ _______ _____ _____    ______ ____
ROOT
ATOM      1  C   UNL     1       2.892   9.906   0.301  0.00  0.00    +0.139 A 
ATOM      2  C   UNL     1       1.588  10.026   0.766  0.00  0.00    +0.038 A 
ATOM      3  C   UNL     1       0.832   8.869   0.911  0.00  0.00    +0.017 A 
ATOM      4  C   UNL     1      -0.441   8.665   1.429  0.00  0.00    +0.003 A 
ATOM      5  C   UNL     1      -0.718   7.339   1.117  0.00  0.00    +0.041 A 
ATOM      6  N   UNL     1       0.126   6.903   0.160  0.00  0.00    -0.279 N 
ATOM      7  C   UNL     1      -0.062   5.836  -0.779  0.00  0.00    +0.264 C 
ATOM      8  O   UNL     1       0.825   4.928  -0.788  0.00  0.00    -0.267 OA
ATOM      9  C   UNL     1      -1.824   6.511   1.690  0.00  0.00    +0.050 C 
ATOM     10  C   UNL     1       1.195   7.736   0.195  0.00  0.00    +0.066 A 
ATOM     11  C   UNL     1       2.502   7.580  -0.245  0.00  0.00    +0.021 A 
ATOM     12  C   UNL     1       3.363   8.648  -0.056  0.00  0.00    +0.038 A 
ENDROOT
BRANCH   7  13
ATOM     13  C   UNL     1      -0.668   6.252  -2.051  0.00  0.00    +0.057 A 
ATOM     14  C   UNL     1      -1.766   7.088  -2.106  0.00  0.00    +0.006 A 
ATOM     15  C   UNL     1      -2.365   7.298  -3.343  0.00  0.00    +0.012 A 
ATOM     16  C   UNL     1      -1.723   6.948  -4.524  0.00  0.00    +0.058 A 
ATOM     17 CL   UNL     1      -2.638   6.586  -5.983  0.00  0.00    -0.082 Cl
ATOM     18  C   UNL     1      -0.413   6.516  -4.381  0.00  0.00    +0.012 A 
ATOM     19  C   UNL     1       0.169   6.266  -3.159  0.00  0.00    +0.006 A 
ENDBRANCH   7  13
BRANCH   1  21
ATOM     20  C   UNL     1       4.235  11.932   0.723  0.00  0.00    +0.252 C 
ATOM     21  O   UNL     1       3.626  11.001  -0.146  0.00  0.00    -0.471 OA
ENDBRANCH   1  21
BRANCH   4  22
ATOM     22  C   UNL     1      -1.515   9.685   1.653  0.00  0.00    +0.142 C 
BRANCH  22  23
ATOM     23  C   UNL     1      -1.689   9.954   3.091  0.00  0.00    +0.369 C 
ATOM     24  O   UNL     1      -1.132  11.144   3.572  0.00  0.00    -0.245 OA
ATOM     25  O   UNL     1      -2.817   9.659   3.590  0.00  0.00    -0.245 OA
ENDBRANCH  22  23
ENDBRANCH   4  22
TORSDOF 4
ENDMDL
MODEL 8
REMARK VINA RESULT:      -6.5      5.064      8.435
REMARK  Name = 
REMARK  4 active torsions:
REMARK  status: ('A' for Active; 'I' for Inactive)
REMARK    1  A    between atoms: O_2  and  C_3
REMARK    2  A    between atoms: C_9  and  C_10
REMARK    3  A    between atoms: C_10  and  C_11
REMARK    4  A    between atoms: C_17  and  C_19
REMARK                            x       y       z     vdW  Elec       q    Type
REMARK                         _______ _______ _______ _____ _____    ______ ____
ROOT
ATOM      1  C   UNL     1       5.503   5.771 -12.370  0.00  0.00    +0.139 A 
ATOM      2  C   UNL     1       4.234   5.207 -12.432  0.00  0.00    +0.038 A 
ATOM      3  C   UNL     1       3.193   5.856 -11.779  0.00  0.00    +0.017 A 
ATOM      4  C   UNL     1       1.830   5.591 -11.739  0.00  0.00    +0.003 A 
ATOM      5  C   UNL     1       1.351   6.461 -10.767  0.00  0.00    +0.041 A 
ATOM      6  N   UNL     1       2.371   6.918 -10.012  0.00  0.00    -0.279 N 
ATOM      7  C   UNL     1       2.334   7.422  -8.670  0.00  0.00    +0.264 C 
ATOM      8  O   UNL     1       2.810   8.584  -8.489  0.00  0.00    -0.267 OA
ATOM      9  C   UNL     1      -0.083   6.808 -10.523  0.00  0.00    +0.050 C 
ATOM     10  C   UNL     1       3.494   6.740 -10.752  0.00  0.00    +0.066 A 
ATOM     11  C   UNL     1       4.742   7.344 -10.694  0.00  0.00    +0.021 A 
ATOM     12  C   UNL     1       5.689   6.921 -11.613  0.00  0.00    +0.038 A 
ENDROOT
BRANCH   7  13
ATOM     13  C   UNL     1       2.543   6.398  -7.637  0.00  0.00    +0.057 A 
ATOM     14  C   UNL     1       1.559   5.497  -7.282  0.00  0.00    +0.006 A 
ATOM     15  C   UNL     1       1.793   4.671  -6.188  0.00  0.00    +0.012 A 
ATOM     16  C   UNL     1       3.069   4.522  -5.658  0.00  0.00    +0.058 A 
ATOM     17 CL   UNL     1       3.304   4.059  -3.976  0.00  0.00    -0.082 Cl
ATOM     18  C   UNL     1       4.085   5.134  -6.376  0.00  0.00    +0.012 A 
ATOM     19  C   UNL     1       3.854   5.985  -7.432  0.00  0.00    +0.006 A 
ENDBRANCH   7  13
BRANCH   1  21
ATOM     20  C   UNL     1       7.886   5.206 -12.074  0.00  0.00    +0.252 C 
ATOM     21  O   UNL     1       6.647   5.069 -12.737  0.00  0.00    -0.471 OA
ENDBRANCH   1  21
BRANCH   4  22
ATOM     22  C   UNL     1       1.132   4.315 -12.097  0.00  0.00    +0.142 C 
BRANCH  22  23
ATOM     23  C   UNL     1       0.739   4.314 -13.517  0.00  0.00    +0.369 C 
ATOM     24  O   UNL     1       0.665   5.564 -14.142  0.00  0.00    -0.245 OA
ATOM     25  O   UNL     1       1.222   3.390 -14.238  0.00  0.00    -0.245 OA
ENDBRANCH  22  23
ENDBRANCH   4  22
TORSDOF 4
ENDMDL
MODEL 9
REMARK VINA RESULT:      -6.5      3.807      6.583
REMARK  Name = 
REMARK  4 active torsions:
REMARK  status: ('A' for Active; 'I' for Inactive)
REMARK    1  A    between atoms: O_2  and  C_3
REMARK    2  A    between atoms: C_9  and  C_10
REMARK    3  A    between atoms: C_10  and  C_11
REMARK    4  A    between atoms: C_17  and  C_19
REMARK                            x       y       z     vdW  Elec       q    Type
REMARK                         _______ _______ _______ _____ _____    ______ ____
ROOT
ATOM      1  C   UNL     1      -0.969   5.916  -3.441  0.00  0.00    +0.139 A 
ATOM      2  C   UNL     1       0.318   5.392  -3.409  0.00  0.00    +0.038 A 
ATOM      3  C   UNL     1       1.321   6.069  -4.092  0.00  0.00    +0.017 A 
ATOM      4  C   UNL     1       2.690   5.845  -4.166  0.00  0.00    +0.003 A 
ATOM      5  C   UNL     1       3.117   6.724  -5.154  0.00  0.00    +0.041 A 
ATOM      6  N   UNL     1       2.064   7.146  -5.884  0.00  0.00    -0.279 N 
ATOM      7  C   UNL     1       2.051   7.643  -7.229  0.00  0.00    +0.264 C 
ATOM      8  O   UNL     1       1.535   8.789  -7.403  0.00  0.00    -0.267 OA
ATOM      9  C   UNL     1       4.533   7.114  -5.436  0.00  0.00    +0.050 C 
ATOM     10  C   UNL     1       0.967   6.937  -5.115  0.00  0.00    +0.066 A 
ATOM     11  C   UNL     1      -0.300   7.502  -5.143  0.00  0.00    +0.021 A 
ATOM     12  C   UNL     1      -1.210   7.055  -4.198  0.00  0.00    +0.038 A 
ENDROOT
BRANCH   7  13
ATOM     13  C   UNL     1       1.848   6.607  -8.251  0.00  0.00    +0.057 A 
ATOM     14  C   UNL     1       2.893   5.876  -8.780  0.00  0.00    +0.006 A 
ATOM     15  C   UNL     1       2.625   5.033  -9.852  0.00  0.00    +0.012 A 
ATOM     16  C   UNL     1       1.322   4.688 -10.189  0.00  0.00    +0.058 A 
ATOM     17 CL   UNL     1       0.905   4.207 -11.830  0.00  0.00    -0.082 Cl
ATOM     18  C   UNL     1       0.346   5.125  -9.307  0.00  0.00    +0.012 A 
ATOM     19  C   UNL     1       0.601   5.994  -8.270  0.00  0.00    +0.006 A 
ENDBRANCH   7  13
BRANCH   1  21
ATOM     20  C   UNL     1      -3.375   5.734  -2.929  0.00  0.00    +0.252 C 
ATOM     21  O   UNL     1      -2.081   5.181  -3.041  0.00  0.00    -0.471 OA
ENDBRANCH   1  21
BRANCH   4  22
ATOM     22  C   UNL     1       3.436   4.594  -3.819  0.00  0.00    +0.142 C 
BRANCH  22  23
ATOM     23  C   UNL     1       4.020   4.688  -2.471  0.00  0.00    +0.369 C 
ATOM     24  O   UNL     1       4.603   5.913  -2.130  0.00  0.00    -0.245 OA
ATOM     25  O   UNL     1       3.371   4.132  -1.533  0.00  0.00    -0.245 OA
ENDBRANCH  22  23
ENDBRANCH   4  22
TORSDOF 4
ENDMDL
