MODEL 1
REMARK VINA RESULT:      -7.3      0.000      0.000
REMARK  Name = 
REMARK  4 active torsions:
REMARK  status: ('A' for Active; 'I' for Inactive)
REMARK    1  A    between atoms: O_2  and  C_3
REMARK    2  A    between atoms: C_7  and  C_8
REMARK    3  A    between atoms: C_8  and  C_10
REMARK    4  A    between atoms: C_17  and  S_18
REMARK                            x       y       z     vdW  Elec       q    Type
REMARK                         _______ _______ _______ _____ _____    ______ ____
ROOT
ATOM      1  C   UNL     1      -0.654   6.496  -4.959  0.00  0.00    +0.161 A 
ATOM      2  C   UNL     1      -0.341   5.652  -3.900  0.00  0.00    +0.170 A 
ATOM      3  C   UNL     1       0.953   5.154  -3.782  0.00  0.00    +0.030 A 
ATOM      4  C   UNL     1       1.925   5.511  -4.710  0.00  0.00    +0.079 A 
ATOM      5  C   UNL     1       1.700   6.593  -5.550  0.00  0.00    +0.202 A 
ATOM      6  O   UNL     1       2.712   7.478  -5.888  0.00  0.00    -0.286 OA
ATOM      7  C   UNL     1       0.366   6.854  -5.831  0.00  0.00    +0.080 A 
ENDROOT
BRANCH   2   8
ATOM      8  S   UNL     1      -1.415   5.746  -2.509  0.00  0.00    +0.144 S 
ATOM      9  O   UNL     1      -2.746   4.746  -2.795  0.00  0.00    -0.043 OA
ATOM     10  O   UNL     1      -1.944   7.128  -2.304  0.00  0.00    -0.140 OA
ATOM     11  O   UNL     1      -0.758   5.239  -1.263  0.00  0.00    -0.140 OA
ENDBRANCH   2   8
BRANCH   1  13
ATOM     12  C   UNL     1      -2.236   5.444  -6.398  0.00  0.00    +0.253 C 
ATOM     13  O   UNL     1      -1.980   6.431  -5.400  0.00  0.00    -0.470 OA
ENDBRANCH   1  13
BRANCH   4  14
ATOM     14  C   UNL     1       3.305   5.157  -4.431  0.00  0.00    +0.199 C 
ATOM     15  O   UNL     1       4.031   4.772  -5.394  0.00  0.00    -0.286 OA
BRANCH  14  16
ATOM     16  C   UNL     1       3.990   5.582  -3.213  0.00  0.00    +0.039 A 
ATOM     17  C   UNL     1       4.097   4.752  -2.104  0.00  0.00    +0.003 A 
ATOM     18  C   UNL     1       4.096   5.339  -0.852  0.00  0.00    +0.000 A 
ATOM     19  C   UNL     1       4.215   6.715  -0.721  0.00  0.00    +0.000 A 
ATOM     20  C   UNL     1       4.751   7.380  -1.818  0.00  0.00    +0.000 A 
ATOM     21  C   UNL     1       4.545   6.840  -3.079  0.00  0.00    +0.003 A 
ENDBRANCH  14  16
ENDBRANCH   4  14
TORSDOF 4
ENDMDL
MODEL 2
REMARK VINA RESULT:      -7.2      2.930      6.281
REMARK  Name = 
REMARK  4 active torsions:
REMARK  status: ('A' for Active; 'I' for Inactive)
REMARK    1  A    between atoms: O_2  and  C_3
REMARK    2  A    between atoms: C_7  and  C_8
REMARK    3  A    between atoms: C_8  and  C_10
REMARK    4  A    between atoms: C_17  and  S_18
REMARK                            x       y       z     vdW  Elec       q    Type
REMARK                         _______ _______ _______ _____ _____    ______ ____
ROOT
ATOM      1  C   UNL     1       0.844   7.077   0.051  0.00  0.00    +0.161 A 
ATOM      2  C   UNL     1       1.391   6.155  -0.834  0.00  0.00    +0.170 A 
ATOM      3  C   UNL     1       0.559   5.497  -1.735  0.00  0.00    +0.030 A 
ATOM      4  C   UNL     1      -0.804   5.770  -1.754  0.00  0.00    +0.079 A 
ATOM      5  C   UNL     1      -1.279   6.907  -1.116  0.00  0.00    +0.202 A 
ATOM      6  O   UNL     1      -2.301   7.674  -1.654  0.00  0.00    -0.286 OA
ATOM      7  C   UNL     1      -0.516   7.343  -0.041  0.00  0.00    +0.080 A 
ENDROOT
BRANCH   2   8
ATOM      8  S   UNL     1       3.117   6.321  -1.136  0.00  0.00    +0.144 S 
ATOM      9  O   UNL     1       3.492   5.486  -2.555  0.00  0.00    -0.043 OA
ATOM     10  O   UNL     1       3.936   5.715  -0.043  0.00  0.00    -0.140 OA
ATOM     11  O   UNL     1       3.506   7.748  -1.363  0.00  0.00    -0.140 OA
ENDBRANCH   2   8
BRANCH   1  13
ATOM     12  C   UNL     1       1.371   8.462   1.917  0.00  0.00    +0.253 C 
ATOM     13  O   UNL     1       1.512   7.196   1.274  0.00  0.00    -0.470 OA
ENDBRANCH   1  13
BRANCH   4  14
ATOM     14  C   UNL     1      -1.597   5.236  -2.847  0.00  0.00    +0.199 C 
ATOM     15  O   UNL     1      -2.697   4.674  -2.569  0.00  0.00    -0.286 OA
BRANCH  14  16
ATOM     16  C   UNL     1      -1.393   5.646  -4.234  0.00  0.00    +0.039 A 
ATOM     17  C   UNL     1      -2.400   6.250  -4.976  0.00  0.00    +0.003 A 
ATOM     18  C   UNL     1      -2.443   6.000  -6.336  0.00  0.00    +0.000 A 
ATOM     19  C   UNL     1      -1.388   5.356  -6.965  0.00  0.00    +0.000 A 
ATOM     20  C   UNL     1      -0.176   5.379  -6.285  0.00  0.00    +0.000 A 
ATOM     21  C   UNL     1      -0.201   5.431  -4.899  0.00  0.00    +0.003 A 
ENDBRANCH  14  16
ENDBRANCH   4  14
TORSDOF 4
ENDMDL
MODEL 3
REMARK VINA RESULT:      -7.1      4.570      7.077
REMARK  Name = 
REMARK  4 active torsions:
REMARK  status: ('A' for Active; 'I' for Inactive)
REMARK    1  A    between atoms: O_2  and  C_3
REMARK    2  A    between atoms: C_7  and  C_8
REMARK    3  A    between atoms: C_8  and  C_10
REMARK    4  A    between atoms: C_17  and  S_18
REMARK                            x       y       z     vdW  Elec       q    Type
REMARK                         _______ _______ _______ _____ _____    ______ ____
ROOT
ATOM      1  C   UNL     1       3.084   6.485 -10.362  0.00  0.00    +0.161 A 
ATOM      2  C   UNL     1       1.987   5.633 -10.395  0.00  0.00    +0.170 A 
ATOM      3  C   UNL     1       1.451   5.161  -9.201  0.00  0.00    +0.030 A 
ATOM      4  C   UNL     1       2.003   5.552  -7.986  0.00  0.00    +0.079 A 
ATOM      5  C   UNL     1       2.862   6.642  -7.948  0.00  0.00    +0.202 A 
ATOM      6  O   UNL     1       2.841   7.553  -6.904  0.00  0.00    -0.286 OA
ATOM      7  C   UNL     1       3.568   6.878  -9.121  0.00  0.00    +0.080 A 
ENDROOT
BRANCH   2   8
ATOM      8  S   UNL     1       1.028   5.684 -11.870  0.00  0.00    +0.144 S 
ATOM      9  O   UNL     1      -0.417   4.853 -11.595  0.00  0.00    -0.043 OA
ATOM     10  O   UNL     1       1.715   4.999 -13.007  0.00  0.00    -0.140 OA
ATOM     11  O   UNL     1       0.653   7.084 -12.242  0.00  0.00    -0.140 OA
ENDBRANCH   2   8
BRANCH   1  13
ATOM     12  C   UNL     1       4.935   5.382 -11.378  0.00  0.00    +0.253 C 
ATOM     13  O   UNL     1       3.938   6.399 -11.465  0.00  0.00    -0.470 OA
ENDBRANCH   1  13
BRANCH   4  14
ATOM     14  C   UNL     1       1.286   5.224  -6.767  0.00  0.00    +0.199 C 
ATOM     15  O   UNL     1       1.933   4.692  -5.817  0.00  0.00    -0.286 OA
BRANCH  14  16
ATOM     16  C   UNL     1      -0.010   5.813  -6.439  0.00  0.00    +0.039 A 
ATOM     17  C   UNL     1      -0.129   6.873  -5.549  0.00  0.00    +0.003 A 
ATOM     18  C   UNL     1      -1.271   6.941  -4.771  0.00  0.00    +0.000 A 
ATOM     19  C   UNL     1      -2.352   6.113  -5.036  0.00  0.00    +0.000 A 
ATOM     20  C   UNL     1      -2.393   5.567  -6.314  0.00  0.00    +0.000 A 
ATOM     21  C   UNL     1      -1.193   5.336  -6.969  0.00  0.00    +0.003 A 
ENDBRANCH  14  16
ENDBRANCH   4  14
TORSDOF 4
ENDMDL
MODEL 4
REMARK VINA RESULT:      -7.1      3.218      6.235
REMARK  Name = 
REMARK  4 active torsions:
REMARK  status: ('A' for Active; 'I' for Inactive)
REMARK    1  A    between atoms: O_2  and  C_3
REMARK    2  A    between atoms: C_7  and  C_8
REMARK    3  A    between atoms: C_8  and  C_10
REMARK    4  A    between atoms: C_17  and  S_18
REMARK                            x       y       z     vdW  Elec       q    Type
REMARK                         _______ _______ _______ _____ _____    ______ ____
ROOT
ATOM      1  C   UNL     1       0.491   7.343   0.449  0.00  0.00    +0.161 A 
ATOM      2  C   UNL     1      -0.808   7.735   0.147  0.00  0.00    +0.170 A 
ATOM      3  C   UNL     1      -1.448   7.185  -0.959  0.00  0.00    +0.030 A 
ATOM      4  C   UNL     1      -0.796   6.243  -1.746  0.00  0.00    +0.079 A 
ATOM      5  C   UNL     1       0.345   5.620  -1.257  0.00  0.00    +0.202 A 
ATOM      6  O   UNL     1       0.599   4.277  -1.487  0.00  0.00    -0.286 OA
ATOM      7  C   UNL     1       1.078   6.366  -0.344  0.00  0.00    +0.080 A 
ENDROOT
BRANCH   2   8
ATOM      8  S   UNL     1      -1.722   8.432   1.480  0.00  0.00    +0.144 S 
ATOM      9  O   UNL     1      -1.057   7.874   2.930  0.00  0.00    -0.043 OA
ATOM     10  O   UNL     1      -3.152   8.001   1.462  0.00  0.00    -0.140 OA
ATOM     11  O   UNL     1      -1.616   9.924   1.507  0.00  0.00    -0.140 OA
ENDBRANCH   2   8
BRANCH   1  13
ATOM     12  C   UNL     1       2.683   8.113   0.979  0.00  0.00    +0.253 C 
ATOM     13  O   UNL     1       1.274   8.313   1.082  0.00  0.00    -0.470 OA
ENDBRANCH   1  13
BRANCH   4  14
ATOM     14  C   UNL     1      -1.567   5.531  -2.749  0.00  0.00    +0.199 C 
ATOM     15  O   UNL     1      -2.623   4.937  -2.383  0.00  0.00    -0.286 OA
BRANCH  14  16
ATOM     16  C   UNL     1      -1.410   5.784  -4.180  0.00  0.00    +0.039 A 
ATOM     17  C   UNL     1      -2.447   6.290  -4.953  0.00  0.00    +0.003 A 
ATOM     18  C   UNL     1      -2.527   5.887  -6.274  0.00  0.00    +0.000 A 
ATOM     19  C   UNL     1      -1.483   5.187  -6.860  0.00  0.00    +0.000 A 
ATOM     20  C   UNL     1      -0.251   5.300  -6.225  0.00  0.00    +0.000 A 
ATOM     21  C   UNL     1      -0.236   5.508  -4.853  0.00  0.00    +0.003 A 
ENDBRANCH  14  16
ENDBRANCH   4  14
TORSDOF 4
ENDMDL
MODEL 5
REMARK VINA RESULT:      -6.9      4.293      6.084
REMARK  Name = 
REMARK  4 active torsions:
REMARK  status: ('A' for Active; 'I' for Inactive)
REMARK    1  A    between atoms: O_2  and  C_3
REMARK    2  A    between atoms: C_7  and  C_8
REMARK    3  A    between atoms: C_8  and  C_10
REMARK    4  A    between atoms: C_17  and  S_18
REMARK                            x       y       z     vdW  Elec       q    Type
REMARK                         _______ _______ _______ _____ _____    ______ ____
ROOT
ATOM      1  C   UNL     1       1.999   6.785  -5.476  0.00  0.00    +0.161 A 
ATOM      2  C   UNL     1       3.282   6.250  -5.441  0.00  0.00    +0.170 A 
ATOM      3  C   UNL     1       3.836   5.728  -6.606  0.00  0.00    +0.030 A 
ATOM      4  C   UNL     1       3.116   5.756  -7.794  0.00  0.00    +0.079 A 
ATOM      5  C   UNL     1       2.000   6.575  -7.896  0.00  0.00    +0.202 A 
ATOM      6  O   UNL     1       1.706   7.270  -9.059  0.00  0.00    -0.286 OA
ATOM      7  C   UNL     1       1.342   6.826  -6.699  0.00  0.00    +0.080 A 
ENDROOT
BRANCH   2   8
ATOM      8  S   UNL     1       4.295   6.789  -4.107  0.00  0.00    +0.144 S 
ATOM      9  O   UNL     1       4.471   5.508  -3.020  0.00  0.00    -0.043 OA
ATOM     10  O   UNL     1       3.672   7.918  -3.353  0.00  0.00    -0.140 OA
ATOM     11  O   UNL     1       5.672   7.152  -4.567  0.00  0.00    -0.140 OA
ENDBRANCH   2   8
BRANCH   1  13
ATOM     12  C   UNL     1       0.702   5.397  -4.037  0.00  0.00    +0.253 C 
ATOM     13  O   UNL     1       1.278   6.679  -4.282  0.00  0.00    -0.470 OA
ENDBRANCH   1  13
BRANCH   4  14
ATOM     14  C   UNL     1       3.805   5.412  -9.025  0.00  0.00    +0.199 C 
ATOM     15  O   UNL     1       3.183   4.728  -9.890  0.00  0.00    -0.286 OA
BRANCH  14  16
ATOM     16  C   UNL     1       5.001   6.120  -9.476  0.00  0.00    +0.039 A 
ATOM     17  C   UNL     1       4.927   7.218 -10.324  0.00  0.00    +0.003 A 
ATOM     18  C   UNL     1       5.956   7.411 -11.227  0.00  0.00    +0.000 A 
ATOM     19  C   UNL     1       7.124   6.668 -11.130  0.00  0.00    +0.000 A 
ATOM     20  C   UNL     1       7.364   6.081  -9.893  0.00  0.00    +0.000 A 
ATOM     21  C   UNL     1       6.274   5.726  -9.112  0.00  0.00    +0.003 A 
ENDBRANCH  14  16
ENDBRANCH   4  14
TORSDOF 4
ENDMDL
MODEL 6
REMARK VINA RESULT:      -6.9      4.855      6.622
REMARK  Name = 
REMARK  4 active torsions:
REMARK  status: ('A' for Active; 'I' for Inactive)
REMARK    1  A    between atoms: O_2  and  C_3
REMARK    2  A    between atoms: C_7  and  C_8
REMARK    3  A    between atoms: C_8  and  C_10
REMARK    4  A    between atoms: C_17  and  S_18
REMARK                            x       y       z     vdW  Elec       q    Type
REMARK                         _______ _______ _______ _____ _____    ______ ____
ROOT
ATOM      1  C   UNL     1       3.200   6.129  -6.071  0.00  0.00    +0.161 A 
ATOM      2  C   UNL     1       2.118   6.299  -6.926  0.00  0.00    +0.170 A 
ATOM      3  C   UNL     1       2.324   6.273  -8.302  0.00  0.00    +0.030 A 
ATOM      4  C   UNL     1       3.600   6.067  -8.813  0.00  0.00    +0.079 A 
ATOM      5  C   UNL     1       4.595   5.573  -7.980  0.00  0.00    +0.202 A 
ATOM      6  O   UNL     1       5.531   4.653  -8.426  0.00  0.00    -0.286 OA
ATOM      7  C   UNL     1       4.445   5.882  -6.635  0.00  0.00    +0.080 A 
ENDROOT
BRANCH   2   8
ATOM      8  S   UNL     1       0.538   5.956  -6.231  0.00  0.00    +0.144 S 
ATOM      9  O   UNL     1      -0.519   5.551  -7.486  0.00  0.00    -0.043 OA
ATOM     10  O   UNL     1      -0.040   7.149  -5.542  0.00  0.00    -0.140 OA
ATOM     11  O   UNL     1       0.579   4.778  -5.310  0.00  0.00    -0.140 OA
ENDBRANCH   2   8
BRANCH   1  13
ATOM     12  C   UNL     1       3.711   6.105  -3.743  0.00  0.00    +0.253 C 
ATOM     13  O   UNL     1       3.092   6.780  -4.838  0.00  0.00    -0.470 OA
ENDBRANCH   1  13
BRANCH   4  14
ATOM     14  C   UNL     1       3.740   5.824 -10.238  0.00  0.00    +0.199 C 
ATOM     15  O   UNL     1       2.709   5.497 -10.894  0.00  0.00    -0.286 OA
BRANCH  14  16
ATOM     16  C   UNL     1       4.889   6.304 -11.003  0.00  0.00    +0.039 A 
ATOM     17  C   UNL     1       5.557   5.491 -11.910  0.00  0.00    +0.003 A 
ATOM     18  C   UNL     1       6.918   5.678 -12.068  0.00  0.00    +0.000 A 
ATOM     19  C   UNL     1       7.545   6.784 -11.512  0.00  0.00    +0.000 A 
ATOM     20  C   UNL     1       6.712   7.852 -11.196  0.00  0.00    +0.000 A 
ATOM     21  C   UNL     1       5.397   7.579 -10.849  0.00  0.00    +0.003 A 
ENDBRANCH  14  16
ENDBRANCH   4  14
TORSDOF 4
ENDMDL
MODEL 7
REMARK VINA RESULT:      -6.8      2.402      5.125
REMARK  Name = 
REMARK  4 active torsions:
REMARK  status: ('A' for Active; 'I' for Inactive)
REMARK    1  A    between atoms: O_2  and  C_3
REMARK    2  A    between atoms: C_7  and  C_8
REMARK    3  A    between atoms: C_8  and  C_10
REMARK    4  A    between atoms: C_17  and  S_18
REMARK                            x       y       z     vdW  Elec       q    Type
REMARK                         _______ _______ _______ _____ _____    ______ ____
ROOT
ATOM      1  C   UNL     1       0.376   5.601  -3.058  0.00  0.00    +0.161 A 
ATOM      2  C   UNL     1      -0.754   6.169  -3.635  0.00  0.00    +0.170 A 
ATOM      3  C   UNL     1      -0.863   6.215  -5.021  0.00  0.00    +0.030 A 
ATOM      4  C   UNL     1       0.145   5.686  -5.819  0.00  0.00    +0.079 A 
ATOM      5  C   UNL     1       1.088   4.839  -5.252  0.00  0.00    +0.202 A 
ATOM      6  O   UNL     1       1.571   3.728  -5.926  0.00  0.00    -0.286 OA
ATOM      7  C   UNL     1       1.331   5.048  -3.901  0.00  0.00    +0.080 A 
ENDROOT
BRANCH   2   8
ATOM      8  S   UNL     1      -2.176   6.250  -2.602  0.00  0.00    +0.144 S 
ATOM      9  O   UNL     1      -1.962   7.512  -1.499  0.00  0.00    -0.043 OA
ATOM     10  O   UNL     1      -2.360   5.000  -1.804  0.00  0.00    -0.140 OA
ATOM     11  O   UNL     1      -3.412   6.569  -3.382  0.00  0.00    -0.140 OA
ENDBRANCH   2   8
BRANCH   1  13
ATOM     12  C   UNL     1       2.117   6.493  -1.697  0.00  0.00    +0.253 C 
ATOM     13  O   UNL     1       0.742   6.132  -1.817  0.00  0.00    -0.470 OA
ENDBRANCH   1  13
BRANCH   4  14
ATOM     14  C   UNL     1      -0.103   5.551  -7.243  0.00  0.00    +0.199 C 
ATOM     15  O   UNL     1      -1.273   5.247  -7.621  0.00  0.00    -0.286 OA
BRANCH  14  16
ATOM     16  C   UNL     1       0.794   6.113  -8.249  0.00  0.00    +0.039 A 
ATOM     17  C   UNL     1       0.757   5.703  -9.576  0.00  0.00    +0.003 A 
ATOM     18  C   UNL     1       1.944   5.694 -10.286  0.00  0.00    +0.000 A 
ATOM     19  C   UNL     1       3.082   6.288  -9.759  0.00  0.00    +0.000 A 
ATOM     20  C   UNL     1       2.863   7.221  -8.752  0.00  0.00    +0.000 A 
ATOM     21  C   UNL     1       1.751   7.060  -7.939  0.00  0.00    +0.003 A 
ENDBRANCH  14  16
ENDBRANCH   4  14
TORSDOF 4
ENDMDL
MODEL 8
REMARK VINA RESULT:      -6.7      4.840      6.326
REMARK  Name = 
REMARK  4 active torsions:
REMARK  status: ('A' for Active; 'I' for Inactive)
REMARK    1  A    between atoms: O_2  and  C_3
REMARK    2  A    between atoms: C_7  and  C_8
REMARK    3  A    between atoms: C_8  and  C_10
REMARK    4  A    between atoms: C_17  and  S_18
REMARK                            x       y       z     vdW  Elec       q    Type
REMARK                         _______ _______ _______ _____ _____    ______ ____
ROOT
ATOM      1  C   UNL     1       0.878   5.556  -7.619  0.00  0.00    +0.161 A 
ATOM      2  C   UNL     1       2.219   5.502  -7.258  0.00  0.00    +0.170 A 
ATOM      3  C   UNL     1       3.192   5.420  -8.250  0.00  0.00    +0.030 A 
ATOM      4  C   UNL     1       2.822   5.406  -9.590  0.00  0.00    +0.079 A 
ATOM      5  C   UNL     1       1.537   5.791  -9.946  0.00  0.00    +0.202 A 
ATOM      6  O   UNL     1       1.287   6.536 -11.088  0.00  0.00    -0.286 OA
ATOM      7  C   UNL     1       0.568   5.583  -8.973  0.00  0.00    +0.080 A 
ENDROOT
BRANCH   2   8
ATOM      8  S   UNL     1       2.600   6.114  -5.652  0.00  0.00    +0.144 S 
ATOM      9  O   UNL     1       2.843   4.795  -4.624  0.00  0.00    -0.043 OA
ATOM     10  O   UNL     1       1.476   6.913  -5.078  0.00  0.00    -0.140 OA
ATOM     11  O   UNL     1       3.872   6.902  -5.645  0.00  0.00    -0.140 OA
ENDBRANCH   2   8
BRANCH   1  13
ATOM     12  C   UNL     1      -1.347   5.492  -6.770  0.00  0.00    +0.253 C 
ATOM     13  O   UNL     1      -0.010   4.999  -6.695  0.00  0.00    -0.470 OA
ENDBRANCH   1  13
BRANCH   4  14
ATOM     14  C   UNL     1       3.863   5.545 -10.593  0.00  0.00    +0.199 C 
ATOM     15  O   UNL     1       3.557   5.344 -11.805  0.00  0.00    -0.286 OA
BRANCH  14  16
ATOM     16  C   UNL     1       5.107   6.264 -10.333  0.00  0.00    +0.039 A 
ATOM     17  C   UNL     1       5.342   7.534 -10.846  0.00  0.00    +0.003 A 
ATOM     18  C   UNL     1       6.642   7.870 -11.176  0.00  0.00    +0.000 A 
ATOM     19  C   UNL     1       7.697   7.054 -10.794  0.00  0.00    +0.000 A 
ATOM     20  C   UNL     1       7.433   6.178  -9.747  0.00  0.00    +0.000 A 
ATOM     21  C   UNL     1       6.135   5.717  -9.589  0.00  0.00    +0.003 A 
ENDBRANCH  14  16
ENDBRANCH   4  14
TORSDOF 4
ENDMDL
MODEL 9
REMARK VINA RESULT:      -6.6      6.047      7.572
REMARK  Name = 
REMARK  4 active torsions:
REMARK  status: ('A' for Active; 'I' for Inactive)
REMARK    1  A    between atoms: O_2  and  C_3
REMARK    2  A    between atoms: C_7  and  C_8
REMARK    3  A    between atoms: C_8  and  C_10
REMARK    4  A    between atoms: C_17  and  S_18
REMARK                            x       y       z     vdW  Elec       q    Type
REMARK                         _______ _______ _______ _____ _____    ______ ____
ROOT
ATOM      1  C   UNL     1       2.482   6.098  -8.590  0.00  0.00    +0.161 A 
ATOM      2  C   UNL     1       3.408   5.365  -7.856  0.00  0.00    +0.170 A 
ATOM      3  C   UNL     1       4.707   5.231  -8.336  0.00  0.00    +0.030 A 
ATOM      4  C   UNL     1       5.075   5.836  -9.532  0.00  0.00    +0.079 A 
ATOM      5  C   UNL     1       4.261   6.821 -10.076  0.00  0.00    +0.202 A 
ATOM      6  O   UNL     1       4.787   7.945 -10.694  0.00  0.00    -0.286 OA
ATOM      7  C   UNL     1       2.914   6.717  -9.755  0.00  0.00    +0.080 A 
ENDROOT
BRANCH   2   8
ATOM      8  S   UNL     1       3.040   5.167  -6.147  0.00  0.00    +0.144 S 
ATOM      9  O   UNL     1       2.031   3.822  -5.972  0.00  0.00    -0.043 OA
ATOM     10  O   UNL     1       2.300   6.341  -5.594  0.00  0.00    -0.140 OA
ATOM     11  O   UNL     1       4.269   4.886  -5.342  0.00  0.00    -0.140 OA
ENDBRANCH   2   8
BRANCH   1  13
ATOM     12  C   UNL     1       0.408   5.639  -9.669  0.00  0.00    +0.253 C 
ATOM     13  O   UNL     1       1.153   5.682  -8.454  0.00  0.00    -0.470 OA
ENDBRANCH   1  13
BRANCH   4  14
ATOM     14  C   UNL     1       6.483   5.863  -9.886  0.00  0.00    +0.199 C 
ATOM     15  O   UNL     1       7.336   5.813  -8.953  0.00  0.00    -0.286 OA
BRANCH  14  16
ATOM     16  C   UNL     1       6.956   5.558 -11.234  0.00  0.00    +0.039 A 
ATOM     17  C   UNL     1       8.303   5.619 -11.570  0.00  0.00    +0.003 A 
ATOM     18  C   UNL     1       8.633   6.002 -12.857  0.00  0.00    +0.000 A 
ATOM     19  C   UNL     1       7.654   6.098 -13.835  0.00  0.00    +0.000 A 
ATOM     20  C   UNL     1       6.478   5.401 -13.581  0.00  0.00    +0.000 A 
ATOM     21  C   UNL     1       6.095   5.220 -12.260  0.00  0.00    +0.003 A 
ENDBRANCH  14  16
ENDBRANCH   4  14
TORSDOF 4
ENDMDL
