MODEL 1
REMARK VINA RESULT:      -6.7      0.000      0.000
REMARK  Name = 
REMARK  11 active torsions:
REMARK  status: ('A' for Active; 'I' for Inactive)
REMARK    1  A    between atoms: C_5  and  C_6
REMARK    2  A    between atoms: N_8  and  C_9
REMARK    3  A    between atoms: C_9  and  C_22
REMARK    4  A    between atoms: C_10  and  C_11
REMARK    5  A    between atoms: C_11  and  C_12
REMARK    6  A    between atoms: C_12  and  C_13
REMARK    7  A    between atoms: C_13  and  C_14
REMARK    8  A    between atoms: C_14  and  S_15
REMARK    9  A    between atoms: S_15  and  C_16
REMARK   10  A    between atoms: C_16  and  C_17
REMARK   11  A    between atoms: C_17  and  C_19
REMARK                            x       y       z     vdW  Elec       q    Type
REMARK                         _______ _______ _______ _____ _____    ______ ____
ROOT
ATOM      1  C   UNK A   1       2.698   6.238  -6.404  0.00  0.00    +0.149 C 
ATOM      2  C   UNK A   1       3.935   5.836  -6.413  0.00  0.00    -0.003 C 
ENDROOT
BRANCH   1   4
ATOM      3  C   UNK A   0       0.687   5.277  -5.671  0.00  0.00    +0.245 C 
ATOM      4  N   UNK A   1       1.817   6.083  -5.289  0.00  0.00    -0.173 NA
ATOM      5  O   UNK A   0       1.016   4.057  -5.678  0.00  0.00    -0.273 OA
BRANCH   3   8
ATOM      6  C   UNK A   0      -2.451   5.638  -5.472  0.00  0.00    +0.000 C 
ATOM      7  C   UNK A   0      -1.770   5.701  -5.778  0.00  0.00    +0.009 C 
ATOM      8  C   UNK A   0      -0.577   5.531  -4.614  0.00  0.00    +0.079 C 
ATOM      9  C   UNK A   0      -0.944   7.052  -5.226  0.00  0.00    +0.010 C 
ATOM     10  C   UNK A   0      -1.437   5.461  -7.153  0.00  0.00    +0.000 C 
ENDBRANCH   3   8
ENDBRANCH   1   4
BRANCH   1  11
ATOM     11  C   UNK A   1       2.150   6.818  -7.632  0.00  0.00    +0.402 C 
ATOM     12  O   UNK A   1       2.136   8.215  -7.699  0.00  0.00    -0.239 OA
ATOM     13  O   UNK A   1       2.281   6.162  -8.701  0.00  0.00    -0.239 OA
ENDBRANCH   1  11
BRANCH   2  14
ATOM     14  C   UNK A   1       4.627   5.606  -5.119  0.00  0.00    +0.028 C 
BRANCH  14  15
ATOM     15  C   UNK A   1       5.018   7.007  -4.648  0.00  0.00    +0.006 C 
BRANCH  15  16
ATOM     16  C   UNK A   1       4.959   7.015  -3.125  0.00  0.00    +0.012 C 
BRANCH  16  17
ATOM     17  C   UNK A   1       4.041   8.094  -2.601  0.00  0.00    +0.058 C 
BRANCH  17  18
ATOM     18  S   UNK A   1       3.936   7.865  -0.798  0.00  0.00    -0.138 S 
BRANCH  18  19
ATOM     19  C   UNK A   1       3.004   6.372  -0.443  0.00  0.00    +0.088 C 
BRANCH  19  20
ATOM     20  C   UNK A   1       1.530   6.642  -1.161  0.00  0.00    +0.205 C 
ATOM     21  N   UNK A   1       0.797   6.726   0.252  0.00  0.00    -0.120 NA
BRANCH  20  22
ATOM     22  C   UNK A   1       1.221   5.052  -1.324  0.00  0.00    +0.383 C 
ATOM     23  O   UNK A   1       2.210   4.253  -0.744  0.00  0.00    -0.244 OA
ATOM     24  O   UNK A   1       0.036   4.713  -1.288  0.00  0.00    -0.244 OA
ENDBRANCH  20  22
ENDBRANCH  19  20
ENDBRANCH  18  19
ENDBRANCH  17  18
ENDBRANCH  16  17
ENDBRANCH  15  16
ENDBRANCH  14  15
ENDBRANCH   2  14
TORSDOF 11
ENDMDL
MODEL 2
REMARK VINA RESULT:      -6.6      2.642      5.868
REMARK  Name = 
REMARK  11 active torsions:
REMARK  status: ('A' for Active; 'I' for Inactive)
REMARK    1  A    between atoms: C_5  and  C_6
REMARK    2  A    between atoms: N_8  and  C_9
REMARK    3  A    between atoms: C_9  and  C_22
REMARK    4  A    between atoms: C_10  and  C_11
REMARK    5  A    between atoms: C_11  and  C_12
REMARK    6  A    between atoms: C_12  and  C_13
REMARK    7  A    between atoms: C_13  and  C_14
REMARK    8  A    between atoms: C_14  and  S_15
REMARK    9  A    between atoms: S_15  and  C_16
REMARK   10  A    between atoms: C_16  and  C_17
REMARK   11  A    between atoms: C_17  and  C_19
REMARK                            x       y       z     vdW  Elec       q    Type
REMARK                         _______ _______ _______ _____ _____    ______ ____
ROOT
ATOM      1  C   UNK A   1       1.610   5.422  -3.276  0.00  0.00    +0.149 C 
ATOM      2  C   UNK A   1       2.907   5.508  -3.333  0.00  0.00    -0.003 C 
ENDROOT
BRANCH   1   4
ATOM      3  C   UNK A   0       0.054   6.318  -4.786  0.00  0.00    +0.245 C 
ATOM      4  N   UNK A   1       0.779   5.135  -4.403  0.00  0.00    -0.173 NA
ATOM      5  O   UNK A   0       0.811   7.088  -5.443  0.00  0.00    -0.273 OA
BRANCH   3   8
ATOM      6  C   UNK A   0      -2.900   7.167  -5.539  0.00  0.00    +0.000 C 
ATOM      7  C   UNK A   0      -2.299   7.088  -5.100  0.00  0.00    +0.009 C 
ATOM      8  C   UNK A   0      -1.279   5.900  -5.696  0.00  0.00    +0.079 C 
ATOM      9  C   UNK A   0      -2.245   5.584  -4.357  0.00  0.00    +0.010 C 
ATOM     10  C   UNK A   0      -1.763   8.082  -4.213  0.00  0.00    +0.000 C 
ENDBRANCH   3   8
ENDBRANCH   1   4
BRANCH   1  11
ATOM     11  C   UNK A   1       0.953   5.707  -1.998  0.00  0.00    +0.402 C 
ATOM     12  O   UNK A   1       0.087   4.719  -1.518  0.00  0.00    -0.239 OA
ATOM     13  O   UNK A   1       1.572   6.426  -1.167  0.00  0.00    -0.239 OA
ENDBRANCH   1  11
BRANCH   2  14
ATOM     14  C   UNK A   1       3.622   4.870  -4.468  0.00  0.00    +0.028 C 
BRANCH  14  15
ATOM     15  C   UNK A   1       4.350   6.026  -5.151  0.00  0.00    +0.006 C 
BRANCH  15  16
ATOM     16  C   UNK A   1       4.231   5.821  -6.657  0.00  0.00    +0.012 C 
BRANCH  16  17
ATOM     17  C   UNK A   1       3.205   4.768  -7.005  0.00  0.00    +0.058 C 
BRANCH  17  18
ATOM     18  S   UNK A   1       3.581   4.205  -8.694  0.00  0.00    -0.138 S 
BRANCH  18  19
ATOM     19  C   UNK A   1       2.265   4.725  -9.800  0.00  0.00    +0.088 C 
BRANCH  19  20
ATOM     20  C   UNK A   1       1.129   5.387  -8.782  0.00  0.00    +0.205 C 
ATOM     21  N   UNK A   1      -0.042   5.118  -9.829  0.00  0.00    -0.120 NA
BRANCH  20  22
ATOM     22  C   UNK A   1       1.391   6.896  -9.332  0.00  0.00    +0.383 C 
ATOM     23  O   UNK A   1       0.476   7.273 -10.318  0.00  0.00    -0.244 OA
ATOM     24  O   UNK A   1       1.807   7.719  -8.512  0.00  0.00    -0.244 OA
ENDBRANCH  20  22
ENDBRANCH  19  20
ENDBRANCH  18  19
ENDBRANCH  17  18
ENDBRANCH  16  17
ENDBRANCH  15  16
ENDBRANCH  14  15
ENDBRANCH   2  14
TORSDOF 11
ENDMDL
MODEL 3
REMARK VINA RESULT:      -6.5      1.584      1.894
REMARK  Name = 
REMARK  11 active torsions:
REMARK  status: ('A' for Active; 'I' for Inactive)
REMARK    1  A    between atoms: C_5  and  C_6
REMARK    2  A    between atoms: N_8  and  C_9
REMARK    3  A    between atoms: C_9  and  C_22
REMARK    4  A    between atoms: C_10  and  C_11
REMARK    5  A    between atoms: C_11  and  C_12
REMARK    6  A    between atoms: C_12  and  C_13
REMARK    7  A    between atoms: C_13  and  C_14
REMARK    8  A    between atoms: C_14  and  S_15
REMARK    9  A    between atoms: S_15  and  C_16
REMARK   10  A    between atoms: C_16  and  C_17
REMARK   11  A    between atoms: C_17  and  C_19
REMARK                            x       y       z     vdW  Elec       q    Type
REMARK                         _______ _______ _______ _____ _____    ______ ____
ROOT
ATOM      1  C   UNK A   1       2.732   6.804  -6.139  0.00  0.00    +0.149 C 
ATOM      2  C   UNK A   1       3.995   6.670  -5.861  0.00  0.00    -0.003 C 
ENDROOT
BRANCH   1   4
ATOM      3  C   UNK A   0       0.817   5.558  -5.602  0.00  0.00    +0.245 C 
ATOM      4  N   UNK A   1       1.682   6.632  -5.185  0.00  0.00    -0.173 NA
ATOM      5  O   UNK A   0       1.353   4.447  -5.327  0.00  0.00    -0.273 OA
BRANCH   3   8
ATOM      6  C   UNK A   0      -2.312   5.514  -6.070  0.00  0.00    +0.000 C 
ATOM      7  C   UNK A   0      -1.594   5.651  -6.235  0.00  0.00    +0.009 C 
ATOM      8  C   UNK A   0      -0.662   5.692  -4.844  0.00  0.00    +0.079 C 
ATOM      9  C   UNK A   0      -1.070   7.123  -5.626  0.00  0.00    +0.010 C 
ATOM     10  C   UNK A   0      -0.953   5.395  -7.493  0.00  0.00    +0.000 C 
ENDBRANCH   3   8
ENDBRANCH   1   4
BRANCH   1  11
ATOM     11  C   UNK A   1       2.354   7.076  -7.528  0.00  0.00    +0.402 C 
ATOM     12  O   UNK A   1       2.096   8.413  -7.845  0.00  0.00    -0.239 OA
ATOM     13  O   UNK A   1       2.823   6.322  -8.423  0.00  0.00    -0.239 OA
ENDBRANCH   1  11
BRANCH   2  14
ATOM     14  C   UNK A   1       4.437   6.777  -4.447  0.00  0.00    +0.028 C 
BRANCH  14  15
ATOM     15  C   UNK A   1       4.527   5.328  -3.970  0.00  0.00    +0.006 C 
BRANCH  15  16
ATOM     16  C   UNK A   1       3.842   5.245  -2.612  0.00  0.00    +0.012 C 
BRANCH  16  17
ATOM     17  C   UNK A   1       3.459   6.610  -2.088  0.00  0.00    +0.058 C 
BRANCH  17  18
ATOM     18  S   UNK A   1       2.273   6.341  -0.735  0.00  0.00    -0.138 S 
BRANCH  18  19
ATOM     19  C   UNK A   1       0.638   6.862  -1.266  0.00  0.00    +0.088 C 
BRANCH  19  20
ATOM     20  C   UNK A   1      -0.375   5.714  -0.618  0.00  0.00    +0.205 C 
ATOM     21  N   UNK A   1       0.141   4.605  -1.640  0.00  0.00    -0.120 NA
BRANCH  20  22
ATOM     22  C   UNK A   1      -1.617   6.145  -1.579  0.00  0.00    +0.383 C 
ATOM     23  O   UNK A   1      -2.487   5.083  -1.837  0.00  0.00    -0.244 OA
ATOM     24  O   UNK A   1      -2.047   7.294  -1.444  0.00  0.00    -0.244 OA
ENDBRANCH  20  22
ENDBRANCH  19  20
ENDBRANCH  18  19
ENDBRANCH  17  18
ENDBRANCH  16  17
ENDBRANCH  15  16
ENDBRANCH  14  15
ENDBRANCH   2  14
TORSDOF 11
ENDMDL
MODEL 4
REMARK VINA RESULT:      -6.4      4.005      7.330
REMARK  Name = 
REMARK  11 active torsions:
REMARK  status: ('A' for Active; 'I' for Inactive)
REMARK    1  A    between atoms: C_5  and  C_6
REMARK    2  A    between atoms: N_8  and  C_9
REMARK    3  A    between atoms: C_9  and  C_22
REMARK    4  A    between atoms: C_10  and  C_11
REMARK    5  A    between atoms: C_11  and  C_12
REMARK    6  A    between atoms: C_12  and  C_13
REMARK    7  A    between atoms: C_13  and  C_14
REMARK    8  A    between atoms: C_14  and  S_15
REMARK    9  A    between atoms: S_15  and  C_16
REMARK   10  A    between atoms: C_16  and  C_17
REMARK   11  A    between atoms: C_17  and  C_19
REMARK                            x       y       z     vdW  Elec       q    Type
REMARK                         _______ _______ _______ _____ _____    ______ ____
ROOT
ATOM      1  C   UNK A   1       1.534   5.339  -3.916  0.00  0.00    +0.149 C 
ATOM      2  C   UNK A   1       2.804   5.411  -4.187  0.00  0.00    -0.003 C 
ENDROOT
BRANCH   1   4
ATOM      3  C   UNK A   0      -0.134   6.276  -5.275  0.00  0.00    +0.245 C 
ATOM      4  N   UNK A   1       0.525   5.056  -4.888  0.00  0.00    -0.173 NA
ATOM      5  O   UNK A   0       0.589   6.909  -6.096  0.00  0.00    -0.273 OA
BRANCH   3   8
ATOM      6  C   UNK A   0      -3.119   7.289  -5.549  0.00  0.00    +0.000 C 
ATOM      7  C   UNK A   0      -2.460   7.176  -5.211  0.00  0.00    +0.009 C 
ATOM      8  C   UNK A   0      -1.617   5.932  -5.953  0.00  0.00    +0.079 C 
ATOM      9  C   UNK A   0      -2.370   5.673  -4.473  0.00  0.00    +0.010 C 
ATOM     10  C   UNK A   0      -1.734   8.139  -4.433  0.00  0.00    +0.000 C 
ENDBRANCH   3   8
ENDBRANCH   1   4
BRANCH   1  11
ATOM     11  C   UNK A   1       1.099   5.637  -2.549  0.00  0.00    +0.402 C 
ATOM     12  O   UNK A   1       0.258   4.693  -1.951  0.00  0.00    -0.239 OA
ATOM     13  O   UNK A   1       1.882   6.302  -1.816  0.00  0.00    -0.239 OA
ENDBRANCH   1  11
BRANCH   2  14
ATOM     14  C   UNK A   1       3.315   4.759  -5.420  0.00  0.00    +0.028 C 
BRANCH  14  15
ATOM     15  C   UNK A   1       4.408   5.704  -5.918  0.00  0.00    +0.006 C 
BRANCH  15  16
ATOM     16  C   UNK A   1       4.283   5.796  -7.434  0.00  0.00    +0.012 C 
BRANCH  16  17
ATOM     17  C   UNK A   1       5.401   5.063  -8.139  0.00  0.00    +0.058 C 
BRANCH  17  18
ATOM     18  S   UNK A   1       5.489   5.735  -9.828  0.00  0.00    -0.138 S 
BRANCH  18  19
ATOM     19  C   UNK A   1       7.208   5.835 -10.338  0.00  0.00    +0.088 C 
BRANCH  19  20
ATOM     20  C   UNK A   1       7.153   6.713 -11.749  0.00  0.00    +0.205 C 
ATOM     21  N   UNK A   1       5.635   7.125 -11.495  0.00  0.00    -0.120 NA
BRANCH  20  22
ATOM     22  C   UNK A   1       6.742   5.414 -12.640  0.00  0.00    +0.383 C 
ATOM     23  O   UNK A   1       5.655   5.666 -13.482  0.00  0.00    -0.244 OA
ATOM     24  O   UNK A   1       7.664   4.680 -13.005  0.00  0.00    -0.244 OA
ENDBRANCH  20  22
ENDBRANCH  19  20
ENDBRANCH  18  19
ENDBRANCH  17  18
ENDBRANCH  16  17
ENDBRANCH  15  16
ENDBRANCH  14  15
ENDBRANCH   2  14
TORSDOF 11
ENDMDL
MODEL 5
REMARK VINA RESULT:      -6.4      2.077      2.304
REMARK  Name = 
REMARK  11 active torsions:
REMARK  status: ('A' for Active; 'I' for Inactive)
REMARK    1  A    between atoms: C_5  and  C_6
REMARK    2  A    between atoms: N_8  and  C_9
REMARK    3  A    between atoms: C_9  and  C_22
REMARK    4  A    between atoms: C_10  and  C_11
REMARK    5  A    between atoms: C_11  and  C_12
REMARK    6  A    between atoms: C_12  and  C_13
REMARK    7  A    between atoms: C_13  and  C_14
REMARK    8  A    between atoms: C_14  and  S_15
REMARK    9  A    between atoms: S_15  and  C_16
REMARK   10  A    between atoms: C_16  and  C_17
REMARK   11  A    between atoms: C_17  and  C_19
REMARK                            x       y       z     vdW  Elec       q    Type
REMARK                         _______ _______ _______ _____ _____    ______ ____
ROOT
ATOM      1  C   UNK A   1       2.627   6.820  -6.100  0.00  0.00    +0.149 C 
ATOM      2  C   UNK A   1       3.902   6.609  -5.952  0.00  0.00    -0.003 C 
ENDROOT
BRANCH   1   4
ATOM      3  C   UNK A   0       0.735   5.676  -5.315  0.00  0.00    +0.245 C 
ATOM      4  N   UNK A   1       1.676   6.730  -5.037  0.00  0.00    -0.173 NA
ATOM      5  O   UNK A   0       1.256   4.556  -5.046  0.00  0.00    -0.273 OA
BRANCH   3   8
ATOM      6  C   UNK A   0      -2.427   5.645  -5.441  0.00  0.00    +0.000 C 
ATOM      7  C   UNK A   0      -1.730   5.755  -5.693  0.00  0.00    +0.009 C 
ATOM      8  C   UNK A   0      -0.653   5.900  -4.418  0.00  0.00    +0.079 C 
ATOM      9  C   UNK A   0      -1.132   7.265  -5.275  0.00  0.00    +0.010 C 
ATOM     10  C   UNK A   0      -1.231   5.379  -6.985  0.00  0.00    +0.000 C 
ENDBRANCH   3   8
ENDBRANCH   1   4
BRANCH   1  11
ATOM     11  C   UNK A   1       2.122   7.095  -7.447  0.00  0.00    +0.402 C 
ATOM     12  O   UNK A   1       2.098   8.439  -7.833  0.00  0.00    -0.239 OA
ATOM     13  O   UNK A   1       2.300   6.214  -8.332  0.00  0.00    -0.239 OA
ENDBRANCH   1  11
BRANCH   2  14
ATOM     14  C   UNK A   1       4.497   6.708  -4.595  0.00  0.00    +0.028 C 
BRANCH  14  15
ATOM     15  C   UNK A   1       4.808   5.261  -4.214  0.00  0.00    +0.006 C 
BRANCH  15  16
ATOM     16  C   UNK A   1       4.137   4.983  -2.874  0.00  0.00    +0.012 C 
BRANCH  16  17
ATOM     17  C   UNK A   1       3.770   6.257  -2.150  0.00  0.00    +0.058 C 
BRANCH  17  18
ATOM     18  S   UNK A   1       2.113   6.001  -1.441  0.00  0.00    -0.138 S 
BRANCH  18  19
ATOM     19  C   UNK A   1       1.850   7.177  -0.110  0.00  0.00    +0.088 C 
BRANCH  19  20
ATOM     20  C   UNK A   1       3.386   7.650   0.313  0.00  0.00    +0.205 C 
ATOM     21  N   UNK A   1       3.021   7.634   1.865  0.00  0.00    -0.120 NA
BRANCH  20  22
ATOM     22  C   UNK A   1       3.034   9.231   0.158  0.00  0.00    +0.383 C 
ATOM     23  O   UNK A   1       3.598   9.795  -0.989  0.00  0.00    -0.244 OA
ATOM     24  O   UNK A   1       1.923   9.592   0.556  0.00  0.00    -0.244 OA
ENDBRANCH  20  22
ENDBRANCH  19  20
ENDBRANCH  18  19
ENDBRANCH  17  18
ENDBRANCH  16  17
ENDBRANCH  15  16
ENDBRANCH  14  15
ENDBRANCH   2  14
TORSDOF 11
ENDMDL
MODEL 6
REMARK VINA RESULT:      -6.4      2.571      5.375
REMARK  Name = 
REMARK  11 active torsions:
REMARK  status: ('A' for Active; 'I' for Inactive)
REMARK    1  A    between atoms: C_5  and  C_6
REMARK    2  A    between atoms: N_8  and  C_9
REMARK    3  A    between atoms: C_9  and  C_22
REMARK    4  A    between atoms: C_10  and  C_11
REMARK    5  A    between atoms: C_11  and  C_12
REMARK    6  A    between atoms: C_12  and  C_13
REMARK    7  A    between atoms: C_13  and  C_14
REMARK    8  A    between atoms: C_14  and  S_15
REMARK    9  A    between atoms: S_15  and  C_16
REMARK   10  A    between atoms: C_16  and  C_17
REMARK   11  A    between atoms: C_17  and  C_19
REMARK                            x       y       z     vdW  Elec       q    Type
REMARK                         _______ _______ _______ _____ _____    ______ ____
ROOT
ATOM      1  C   UNK A   1       0.568   5.504  -8.627  0.00  0.00    +0.149 C 
ATOM      2  C   UNK A   1      -0.592   5.699  -8.072  0.00  0.00    -0.003 C 
ENDROOT
BRANCH   1   4
ATOM      3  C   UNK A   0       2.785   6.185  -8.270  0.00  0.00    +0.245 C 
ATOM      4  N   UNK A   1       1.767   5.238  -7.895  0.00  0.00    -0.173 NA
ATOM      5  O   UNK A   0       2.580   7.286  -7.683  0.00  0.00    -0.273 OA
BRANCH   3   8
ATOM      6  C   UNK A   0       5.742   5.795  -9.327  0.00  0.00    +0.000 C 
ATOM      7  C   UNK A   0       4.996   5.838  -9.373  0.00  0.00    +0.009 C 
ATOM      8  C   UNK A   0       4.291   5.589  -7.874  0.00  0.00    +0.079 C 
ATOM      9  C   UNK A   0       4.249   4.374  -9.035  0.00  0.00    +0.010 C 
ATOM     10  C   UNK A   0       4.251   6.536 -10.383  0.00  0.00    +0.000 C 
ENDBRANCH   3   8
ENDBRANCH   1   4
BRANCH   1  11
ATOM     11  C   UNK A   1       0.671   5.635 -10.082  0.00  0.00    +0.402 C 
ATOM     12  O   UNK A   1       0.601   4.445 -10.813  0.00  0.00    -0.239 OA
ATOM     13  O   UNK A   1       0.237   6.696 -10.608  0.00  0.00    -0.239 OA
ENDBRANCH   1  11
BRANCH   2  14
ATOM     14  C   UNK A   1      -0.821   5.211  -6.688  0.00  0.00    +0.028 C 
BRANCH  14  15
ATOM     15  C   UNK A   1      -2.240   5.670  -6.357  0.00  0.00    +0.006 C 
BRANCH  15  16
ATOM     16  C   UNK A   1      -2.237   6.182  -4.922  0.00  0.00    +0.012 C 
BRANCH  16  17
ATOM     17  C   UNK A   1      -0.911   6.799  -4.545  0.00  0.00    +0.058 C 
BRANCH  17  18
ATOM     18  S   UNK A   1      -0.421   6.064  -2.954  0.00  0.00    -0.138 S 
BRANCH  18  19
ATOM     19  C   UNK A   1       1.372   6.023  -2.846  0.00  0.00    +0.088 C 
BRANCH  19  20
ATOM     20  C   UNK A   1       1.872   6.490  -4.361  0.00  0.00    +0.205 C 
ATOM     21  N   UNK A   1       2.699   5.142  -4.561  0.00  0.00    -0.120 NA
BRANCH  20  22
ATOM     22  C   UNK A   1       3.161   7.296  -3.780  0.00  0.00    +0.383 C 
ATOM     23  O   UNK A   1       3.336   7.107  -2.407  0.00  0.00    -0.244 OA
ATOM     24  O   UNK A   1       4.135   7.395  -4.531  0.00  0.00    -0.244 OA
ENDBRANCH  20  22
ENDBRANCH  19  20
ENDBRANCH  18  19
ENDBRANCH  17  18
ENDBRANCH  16  17
ENDBRANCH  15  16
ENDBRANCH  14  15
ENDBRANCH   2  14
TORSDOF 11
ENDMDL
MODEL 7
REMARK VINA RESULT:      -6.4      4.373      7.105
REMARK  Name = 
REMARK  11 active torsions:
REMARK  status: ('A' for Active; 'I' for Inactive)
REMARK    1  A    between atoms: C_5  and  C_6
REMARK    2  A    between atoms: N_8  and  C_9
REMARK    3  A    between atoms: C_9  and  C_22
REMARK    4  A    between atoms: C_10  and  C_11
REMARK    5  A    between atoms: C_11  and  C_12
REMARK    6  A    between atoms: C_12  and  C_13
REMARK    7  A    between atoms: C_13  and  C_14
REMARK    8  A    between atoms: C_14  and  S_15
REMARK    9  A    between atoms: S_15  and  C_16
REMARK   10  A    between atoms: C_16  and  C_17
REMARK   11  A    between atoms: C_17  and  C_19
REMARK                            x       y       z     vdW  Elec       q    Type
REMARK                         _______ _______ _______ _____ _____    ______ ____
ROOT
ATOM      1  C   UNK A   1       3.137   5.493 -12.070  0.00  0.00    +0.149 C 
ATOM      2  C   UNK A   1       1.863   5.706 -11.918  0.00  0.00    -0.003 C 
ENDROOT
BRANCH   1   4
ATOM      3  C   UNK A   0       4.835   6.395 -10.726  0.00  0.00    +0.245 C 
ATOM      4  N   UNK A   1       4.036   5.227 -10.991  0.00  0.00    -0.173 NA
ATOM      5  O   UNK A   0       4.161   7.231 -10.059  0.00  0.00    -0.273 OA
BRANCH   3   8
ATOM      6  C   UNK A   0       7.854   7.180 -10.190  0.00  0.00    +0.000 C 
ATOM      7  C   UNK A   0       7.223   7.105 -10.587  0.00  0.00    +0.009 C 
ATOM      8  C   UNK A   0       6.213   5.964  -9.891  0.00  0.00    +0.079 C 
ATOM      9  C   UNK A   0       7.081   5.584 -11.279  0.00  0.00    +0.010 C 
ATOM     10  C   UNK A   0       6.658   8.089 -11.467  0.00  0.00    +0.000 C 
ENDBRANCH   3   8
ENDBRANCH   1   4
BRANCH   1  11
ATOM     11  C   UNK A   1       3.701   5.602 -13.418  0.00  0.00    +0.402 C 
ATOM     12  O   UNK A   1       4.772   4.751 -13.707  0.00  0.00    -0.239 OA
ATOM     13  O   UNK A   1       2.926   5.939 -14.354  0.00  0.00    -0.239 OA
ENDBRANCH   1  11
BRANCH   2  14
ATOM     14  C   UNK A   1       1.198   5.240 -10.675  0.00  0.00    +0.028 C 
BRANCH  14  15
ATOM     15  C   UNK A   1       0.937   6.521  -9.884  0.00  0.00    +0.006 C 
BRANCH  15  16
ATOM     16  C   UNK A   1       1.210   6.221  -8.415  0.00  0.00    +0.012 C 
BRANCH  16  17
ATOM     17  C   UNK A   1       1.759   4.828  -8.216  0.00  0.00    +0.058 C 
BRANCH  17  18
ATOM     18  S   UNK A   1       1.492   4.401  -6.467  0.00  0.00    -0.138 S 
BRANCH  18  19
ATOM     19  C   UNK A   1       1.563   5.896  -5.474  0.00  0.00    +0.088 C 
BRANCH  19  20
ATOM     20  C   UNK A   1       2.886   5.661  -4.495  0.00  0.00    +0.205 C 
ATOM     21  N   UNK A   1       2.526   6.938  -3.612  0.00  0.00    -0.120 NA
BRANCH  20  22
ATOM     22  C   UNK A   1       3.870   6.508  -5.476  0.00  0.00    +0.383 C 
ATOM     23  O   UNK A   1       4.741   5.689  -6.198  0.00  0.00    -0.244 OA
ATOM     24  O   UNK A   1       3.398   7.529  -5.984  0.00  0.00    -0.244 OA
ENDBRANCH  20  22
ENDBRANCH  19  20
ENDBRANCH  18  19
ENDBRANCH  17  18
ENDBRANCH  16  17
ENDBRANCH  15  16
ENDBRANCH  14  15
ENDBRANCH   2  14
TORSDOF 11
ENDMDL
MODEL 8
REMARK VINA RESULT:      -6.2      2.483      5.136
REMARK  Name = 
REMARK  11 active torsions:
REMARK  status: ('A' for Active; 'I' for Inactive)
REMARK    1  A    between atoms: C_5  and  C_6
REMARK    2  A    between atoms: N_8  and  C_9
REMARK    3  A    between atoms: C_9  and  C_22
REMARK    4  A    between atoms: C_10  and  C_11
REMARK    5  A    between atoms: C_11  and  C_12
REMARK    6  A    between atoms: C_12  and  C_13
REMARK    7  A    between atoms: C_13  and  C_14
REMARK    8  A    between atoms: C_14  and  S_15
REMARK    9  A    between atoms: S_15  and  C_16
REMARK   10  A    between atoms: C_16  and  C_17
REMARK   11  A    between atoms: C_17  and  C_19
REMARK                            x       y       z     vdW  Elec       q    Type
REMARK                         _______ _______ _______ _____ _____    ______ ____
ROOT
ATOM      1  C   UNK A   1       0.448   5.438  -8.465  0.00  0.00    +0.149 C 
ATOM      2  C   UNK A   1      -0.682   5.707  -7.881  0.00  0.00    -0.003 C 
ENDROOT
BRANCH   1   4
ATOM      3  C   UNK A   0       2.681   6.030  -8.052  0.00  0.00    +0.245 C 
ATOM      4  N   UNK A   1       1.641   5.076  -7.765  0.00  0.00    -0.173 NA
ATOM      5  O   UNK A   0       2.502   7.075  -7.363  0.00  0.00    -0.273 OA
BRANCH   3   8
ATOM      6  C   UNK A   0       5.651   5.746  -9.107  0.00  0.00    +0.000 C 
ATOM      7  C   UNK A   0       4.906   5.806  -9.158  0.00  0.00    +0.009 C 
ATOM      8  C   UNK A   0       4.172   5.364  -7.718  0.00  0.00    +0.079 C 
ATOM      9  C   UNK A   0       4.136   4.321  -9.035  0.00  0.00    +0.010 C 
ATOM     10  C   UNK A   0       4.188   6.646 -10.074  0.00  0.00    +0.000 C 
ENDBRANCH   3   8
ENDBRANCH   1   4
BRANCH   1  11
ATOM     11  C   UNK A   1       0.528   5.583  -9.921  0.00  0.00    +0.402 C 
ATOM     12  O   UNK A   1       0.126   4.475 -10.672  0.00  0.00    -0.239 OA
ATOM     13  O   UNK A   1       0.364   6.736 -10.405  0.00  0.00    -0.239 OA
ENDBRANCH   1  11
BRANCH   2  14
ATOM     14  C   UNK A   1      -0.915   5.215  -6.499  0.00  0.00    +0.028 C 
BRANCH  14  15
ATOM     15  C   UNK A   1      -2.268   5.809  -6.111  0.00  0.00    +0.006 C 
BRANCH  15  16
ATOM     16  C   UNK A   1      -2.010   6.937  -5.120  0.00  0.00    +0.012 C 
BRANCH  16  17
ATOM     17  C   UNK A   1      -2.814   6.770  -3.852  0.00  0.00    +0.058 C 
BRANCH  17  18
ATOM     18  S   UNK A   1      -1.626   6.744  -2.474  0.00  0.00    -0.138 S 
BRANCH  18  19
ATOM     19  C   UNK A   1      -0.390   5.477  -2.780  0.00  0.00    +0.088 C 
BRANCH  19  20
ATOM     20  C   UNK A   1       1.053   6.254  -2.501  0.00  0.00    +0.205 C 
ATOM     21  N   UNK A   1       1.736   5.549  -3.756  0.00  0.00    -0.120 NA
BRANCH  20  22
ATOM     22  C   UNK A   1       1.568   5.108  -1.467  0.00  0.00    +0.383 C 
ATOM     23  O   UNK A   1       2.359   5.629  -0.440  0.00  0.00    -0.244 OA
ATOM     24  O   UNK A   1       0.795   4.170  -1.252  0.00  0.00    -0.244 OA
ENDBRANCH  20  22
ENDBRANCH  19  20
ENDBRANCH  18  19
ENDBRANCH  17  18
ENDBRANCH  16  17
ENDBRANCH  15  16
ENDBRANCH  14  15
ENDBRANCH   2  14
TORSDOF 11
ENDMDL
MODEL 9
REMARK VINA RESULT:      -6.2      4.871      7.879
REMARK  Name = 
REMARK  11 active torsions:
REMARK  status: ('A' for Active; 'I' for Inactive)
REMARK    1  A    between atoms: C_5  and  C_6
REMARK    2  A    between atoms: N_8  and  C_9
REMARK    3  A    between atoms: C_9  and  C_22
REMARK    4  A    between atoms: C_10  and  C_11
REMARK    5  A    between atoms: C_11  and  C_12
REMARK    6  A    between atoms: C_12  and  C_13
REMARK    7  A    between atoms: C_13  and  C_14
REMARK    8  A    between atoms: C_14  and  S_15
REMARK    9  A    between atoms: S_15  and  C_16
REMARK   10  A    between atoms: C_16  and  C_17
REMARK   11  A    between atoms: C_17  and  C_19
REMARK                            x       y       z     vdW  Elec       q    Type
REMARK                         _______ _______ _______ _____ _____    ______ ____
ROOT
ATOM      1  C   UNK A   1       3.556   5.557  -7.184  0.00  0.00    +0.149 C 
ATOM      2  C   UNK A   1       4.620   5.743  -7.909  0.00  0.00    -0.003 C 
ENDROOT
BRANCH   1   4
ATOM      3  C   UNK A   0       1.294   6.120  -7.455  0.00  0.00    +0.245 C 
ATOM      4  N   UNK A   1       2.300   5.121  -7.709  0.00  0.00    -0.173 NA
ATOM      5  O   UNK A   0       1.405   7.060  -8.292  0.00  0.00    -0.273 OA
BRANCH   3   8
ATOM      6  C   UNK A   0      -1.553   6.010  -6.077  0.00  0.00    +0.000 C 
ATOM      7  C   UNK A   0      -0.806   6.066  -6.109  0.00  0.00    +0.009 C 
ATOM      8  C   UNK A   0      -0.223   5.436  -7.548  0.00  0.00    +0.079 C 
ATOM      9  C   UNK A   0      -0.053   4.568  -6.119  0.00  0.00    +0.010 C 
ATOM     10  C   UNK A   0       0.002   7.007  -5.385  0.00  0.00    +0.000 C 
ENDBRANCH   3   8
ENDBRANCH   1   4
BRANCH   1  11
ATOM     11  C   UNK A   1       3.624   5.881  -5.757  0.00  0.00    +0.402 C 
ATOM     12  O   UNK A   1       3.602   4.794  -4.878  0.00  0.00    -0.239 OA
ATOM     13  O   UNK A   1       4.256   6.919  -5.421  0.00  0.00    -0.239 OA
ENDBRANCH   1  11
BRANCH   2  14
ATOM     14  C   UNK A   1       4.713   5.083  -9.236  0.00  0.00    +0.028 C 
BRANCH  14  15
ATOM     15  C   UNK A   1       4.335   6.181 -10.229  0.00  0.00    +0.006 C 
BRANCH  15  16
ATOM     16  C   UNK A   1       3.440   5.554 -11.292  0.00  0.00    +0.012 C 
BRANCH  16  17
ATOM     17  C   UNK A   1       3.777   6.050 -12.679  0.00  0.00    +0.058 C 
BRANCH  17  18
ATOM     18  S   UNK A   1       5.453   5.451 -13.059  0.00  0.00    -0.138 S 
BRANCH  18  19
ATOM     19  C   UNK A   1       6.597   6.836 -13.037  0.00  0.00    +0.088 C 
BRANCH  19  20
ATOM     20  C   UNK A   1       8.084   6.120 -12.834  0.00  0.00    +0.205 C 
ATOM     21  N   UNK A   1       7.430   4.670 -12.730  0.00  0.00    -0.120 NA
BRANCH  20  22
ATOM     22  C   UNK A   1       8.065   6.339 -11.221  0.00  0.00    +0.383 C 
ATOM     23  O   UNK A   1       7.404   7.512 -10.848  0.00  0.00    -0.244 OA
ATOM     24  O   UNK A   1       7.984   5.322 -10.527  0.00  0.00    -0.244 OA
ENDBRANCH  20  22
ENDBRANCH  19  20
ENDBRANCH  18  19
ENDBRANCH  17  18
ENDBRANCH  16  17
ENDBRANCH  15  16
ENDBRANCH  14  15
ENDBRANCH   2  14
TORSDOF 11
ENDMDL
