MODEL 1
REMARK VINA RESULT:      -9.1      0.000      0.000
REMARK  Name = 
REMARK  9 active torsions:
REMARK  status: ('A' for Active; 'I' for Inactive)
REMARK    1  A    between atoms: C_7  and  C_8
REMARK    2  A    between atoms: C_8  and  C_9
REMARK    3  A    between atoms: C_9  and  C_10
REMARK    4  A    between atoms: C_13  and  C_14
REMARK    5  A    between atoms: N_16  and  CA_17
REMARK    6  A    between atoms: CA_17  and  CB_18
REMARK    7  A    between atoms: CA_17  and  C_23
REMARK    8  A    between atoms: CB_18  and  CG_19
REMARK    9  A    between atoms: CG_19  and  CD_20
REMARK                            x       y       z     vdW  Elec       q    Type
REMARK                         _______ _______ _______ _____ _____    ______ ____
ROOT
ATOM      1  C   UNK A   0       4.024   5.891  -8.168  0.00  0.00    -0.022 A 
ATOM      2  C   UNK A   0       4.473   5.659  -6.873  0.00  0.00    -0.004 A 
ATOM      3  C   UNK A   0       3.631   6.002  -5.846  0.00  0.00    +0.004 A 
ATOM      4  C   UNK A   0       2.497   6.788  -6.021  0.00  0.00    +0.055 A 
ATOM      5  C   UNK A   0       2.304   7.290  -7.278  0.00  0.00    +0.004 A 
ATOM      6  C   UNK A   0       3.187   6.993  -8.305  0.00  0.00    -0.004 A 
ENDROOT
BRANCH   4   7
ATOM      7  C   UNK A   0       1.395   6.464  -5.105  0.00  0.00    +0.265 C 
ATOM      8  N   GLU A   1       0.096   6.483  -5.608  0.00  0.00    -0.192 NA
ATOM      9  O   UNK A   0       1.601   5.960  -3.960  0.00  0.00    -0.268 OA
BRANCH   8  10
ATOM     10  CA  GLU A   1      -1.040   5.805  -4.715  0.00  0.00    +0.199 C 
BRANCH  10  11
ATOM     11  C   GLU A   1      -2.034   5.581  -6.002  0.00  0.00    +0.384 C 
ATOM     12  OXT GLU A   1      -2.910   6.664  -6.136  0.00  0.00    -0.244 OA
ATOM     13  O   GLU A   1      -1.407   5.086  -6.971  0.00  0.00    -0.244 OA
ENDBRANCH  10  11
BRANCH  10  14
ATOM     14  CB  GLU A   1      -1.746   7.275  -4.348  0.00  0.00    +0.045 C 
BRANCH  14  15
ATOM     15  CG  GLU A   1      -1.864   7.128  -2.834  0.00  0.00    +0.116 C 
BRANCH  15  16
ATOM     16  CD  GLU A   1      -2.933   6.170  -2.454  0.00  0.00    +0.365 C 
ATOM     17  OE2 GLU A   1      -2.580   4.989  -1.835  0.00  0.00    -0.246 OA
ATOM     18  OE1 GLU A   1      -4.140   6.507  -2.625  0.00  0.00    -0.246 OA
ENDBRANCH  15  16
ENDBRANCH  14  15
ENDBRANCH  10  14
ENDBRANCH   8  10
ENDBRANCH   4   7
BRANCH   1  19
ATOM     19  C   UNK A   0       4.972   5.630  -9.285  0.00  0.00    +0.031 C 
BRANCH  19  20
ATOM     20  C   UNK A   0       4.557   6.584 -10.398  0.00  0.00    +0.033 C 
BRANCH  20  30
ATOM     21  N   UNK A   0       0.732   3.976 -14.683  0.00  0.00    -0.086 NA
ATOM     22  C   UNK A   0       1.503   4.594 -14.040  0.00  0.00    +0.261 A 
ATOM     23  N   UNK A   0       1.163   5.477 -13.072  0.00  0.00    -0.172 NA
ATOM     24  C   UNK A   0       2.101   6.039 -12.272  0.00  0.00    +0.284 A 
ATOM     25  O   UNK A   0       1.734   6.637 -11.240  0.00  0.00    -0.265 OA
ATOM     26  C   UNK A   0       3.449   5.796 -12.490  0.00  0.00    +0.091 A 
ATOM     27  C   UNK A   0       3.790   5.032 -13.569  0.00  0.00    +0.170 A 
ATOM     28  N   UNK A   0       5.144   4.997 -13.592  0.00  0.00    -0.225 NA
ATOM     29  C   UNK A   0       5.638   5.345 -12.381  0.00  0.00    +0.097 A 
ATOM     30  C   UNK A   0       4.556   5.820 -11.661  0.00  0.00    +0.005 A 
ATOM     31  N   UNK A   0       2.813   4.604 -14.380  0.00  0.00    -0.192 NA
ENDBRANCH  20  30
ENDBRANCH  19  20
ENDBRANCH   1  19
TORSDOF 9
ENDMDL
MODEL 2
REMARK VINA RESULT:      -8.9      3.469      9.935
REMARK  Name = 
REMARK  9 active torsions:
REMARK  status: ('A' for Active; 'I' for Inactive)
REMARK    1  A    between atoms: C_7  and  C_8
REMARK    2  A    between atoms: C_8  and  C_9
REMARK    3  A    between atoms: C_9  and  C_10
REMARK    4  A    between atoms: C_13  and  C_14
REMARK    5  A    between atoms: N_16  and  CA_17
REMARK    6  A    between atoms: CA_17  and  CB_18
REMARK    7  A    between atoms: CA_17  and  C_23
REMARK    8  A    between atoms: CB_18  and  CG_19
REMARK    9  A    between atoms: CG_19  and  CD_20
REMARK                            x       y       z     vdW  Elec       q    Type
REMARK                         _______ _______ _______ _____ _____    ______ ____
ROOT
ATOM      1  C   UNK A   0       0.478   5.860  -7.443  0.00  0.00    -0.022 A 
ATOM      2  C   UNK A   0       0.066   5.649  -8.754  0.00  0.00    -0.004 A 
ATOM      3  C   UNK A   0       0.958   5.955  -9.749  0.00  0.00    +0.004 A 
ATOM      4  C   UNK A   0       2.119   6.689  -9.532  0.00  0.00    +0.055 A 
ATOM      5  C   UNK A   0       2.289   7.182  -8.268  0.00  0.00    +0.004 A 
ATOM      6  C   UNK A   0       1.357   6.924  -7.273  0.00  0.00    -0.004 A 
ENDROOT
BRANCH   4   7
ATOM      7  C   UNK A   0       3.237   6.317 -10.409  0.00  0.00    +0.265 C 
ATOM      8  N   GLU A   1       4.532   6.441  -9.910  0.00  0.00    -0.192 NA
ATOM      9  O   UNK A   0       3.057   5.689 -11.496  0.00  0.00    -0.268 OA
BRANCH   8  10
ATOM     10  CA  GLU A   1       5.698   5.720 -10.727  0.00  0.00    +0.199 C 
BRANCH  10  11
ATOM     11  C   GLU A   1       6.607   5.482  -9.381  0.00  0.00    +0.384 C 
ATOM     12  OXT GLU A   1       7.658   6.404  -9.333  0.00  0.00    -0.244 OA
ATOM     13  O   GLU A   1       5.880   5.221  -8.391  0.00  0.00    -0.244 OA
ENDBRANCH  10  11
BRANCH  10  14
ATOM     14  CB  GLU A   1       6.468   7.165 -11.065  0.00  0.00    +0.045 C 
BRANCH  14  15
ATOM     15  CG  GLU A   1       6.705   6.982 -12.561  0.00  0.00    +0.116 C 
BRANCH  15  16
ATOM     16  CD  GLU A   1       7.717   5.930 -12.835  0.00  0.00    +0.365 C 
ATOM     17  OE2 GLU A   1       7.341   4.817 -13.558  0.00  0.00    -0.246 OA
ATOM     18  OE1 GLU A   1       8.913   6.128 -12.478  0.00  0.00    -0.246 OA
ENDBRANCH  15  16
ENDBRANCH  14  15
ENDBRANCH  10  14
ENDBRANCH   8  10
ENDBRANCH   4   7
BRANCH   1  19
ATOM     19  C   UNK A   0      -0.519   5.641  -6.360  0.00  0.00    +0.031 C 
BRANCH  19  20
ATOM     20  C   UNK A   0      -0.151   6.632  -5.264  0.00  0.00    +0.033 C 
BRANCH  20  30
ATOM     21  N   UNK A   0       3.505   4.368  -0.649  0.00  0.00    -0.086 NA
ATOM     22  C   UNK A   0       2.749   4.924  -1.363  0.00  0.00    +0.261 A 
ATOM     23  N   UNK A   0       3.108   5.793  -2.336  0.00  0.00    -0.172 NA
ATOM     24  C   UNK A   0       2.198   6.278  -3.215  0.00  0.00    +0.284 A 
ATOM     25  O   UNK A   0       2.602   6.862  -4.241  0.00  0.00    -0.265 OA
ATOM     26  C   UNK A   0       0.853   5.971  -3.078  0.00  0.00    +0.091 A 
ATOM     27  C   UNK A   0       0.480   5.224  -1.997  0.00  0.00    +0.170 A 
ATOM     28  N   UNK A   0      -0.870   5.117  -2.062  0.00  0.00    -0.225 NA
ATOM     29  C   UNK A   0      -1.298   5.400  -3.314  0.00  0.00    +0.097 A 
ATOM     30  C   UNK A   0      -0.196   5.909  -3.978  0.00  0.00    +0.005 A 
ATOM     31  N   UNK A   0       1.420   4.874  -1.109  0.00  0.00    -0.192 NA
ENDBRANCH  20  30
ENDBRANCH  19  20
ENDBRANCH   1  19
TORSDOF 9
ENDMDL
MODEL 3
REMARK VINA RESULT:      -8.9      3.326      9.855
REMARK  Name = 
REMARK  9 active torsions:
REMARK  status: ('A' for Active; 'I' for Inactive)
REMARK    1  A    between atoms: C_7  and  C_8
REMARK    2  A    between atoms: C_8  and  C_9
REMARK    3  A    between atoms: C_9  and  C_10
REMARK    4  A    between atoms: C_13  and  C_14
REMARK    5  A    between atoms: N_16  and  CA_17
REMARK    6  A    between atoms: CA_17  and  CB_18
REMARK    7  A    between atoms: CA_17  and  C_23
REMARK    8  A    between atoms: CB_18  and  CG_19
REMARK    9  A    between atoms: CG_19  and  CD_20
REMARK                            x       y       z     vdW  Elec       q    Type
REMARK                         _______ _______ _______ _____ _____    ______ ____
ROOT
ATOM      1  C   UNK A   0      -0.188   5.280  -7.142  0.00  0.00    -0.022 A 
ATOM      2  C   UNK A   0       0.705   4.471  -6.450  0.00  0.00    -0.004 A 
ATOM      3  C   UNK A   0       1.982   4.381  -6.943  0.00  0.00    +0.004 A 
ATOM      4  C   UNK A   0       2.343   4.832  -8.207  0.00  0.00    +0.055 A 
ATOM      5  C   UNK A   0       1.325   5.299  -8.991  0.00  0.00    +0.004 A 
ATOM      6  C   UNK A   0       0.023   5.337  -8.516  0.00  0.00    -0.004 A 
ENDROOT
BRANCH   4   7
ATOM      7  C   UNK A   0       3.722   5.333  -8.295  0.00  0.00    +0.265 C 
ATOM      8  N   GLU A   1       4.280   5.503  -9.559  0.00  0.00    -0.192 NA
ATOM      9  O   UNK A   0       4.324   5.817  -7.289  0.00  0.00    -0.268 OA
BRANCH   8  10
ATOM     10  CA  GLU A   1       5.624   6.359  -9.652  0.00  0.00    +0.199 C 
BRANCH  10  11
ATOM     11  C   GLU A   1       5.154   7.099 -11.040  0.00  0.00    +0.384 C 
ATOM     12  OXT GLU A   1       3.782   6.919 -11.248  0.00  0.00    -0.244 OA
ATOM     13  O   GLU A   1       5.725   8.210 -11.170  0.00  0.00    -0.244 OA
ENDBRANCH  10  11
BRANCH  10  14
ATOM     14  CB  GLU A   1       6.429   5.159 -10.493  0.00  0.00    +0.045 C 
BRANCH  14  15
ATOM     15  CG  GLU A   1       7.794   5.824 -10.638  0.00  0.00    +0.116 C 
BRANCH  15  16
ATOM     16  CD  GLU A   1       8.464   5.440 -11.905  0.00  0.00    +0.365 C 
ATOM     17  OE2 GLU A   1       9.731   5.923 -12.162  0.00  0.00    -0.246 OA
ATOM     18  OE1 GLU A   1       7.893   4.608 -12.668  0.00  0.00    -0.246 OA
ENDBRANCH  15  16
ENDBRANCH  14  15
ENDBRANCH  10  14
ENDBRANCH   8  10
ENDBRANCH   4   7
BRANCH   1  19
ATOM     19  C   UNK A   0      -1.604   5.296  -6.684  0.00  0.00    +0.031 C 
BRANCH  19  20
ATOM     20  C   UNK A   0      -1.678   6.398  -5.635  0.00  0.00    +0.033 C 
BRANCH  20  30
ATOM     21  N   UNK A   0       1.745   4.784  -0.588  0.00  0.00    -0.086 NA
ATOM     22  C   UNK A   0       1.006   5.219  -1.398  0.00  0.00    +0.261 A 
ATOM     23  N   UNK A   0       1.367   6.064  -2.392  0.00  0.00    -0.172 NA
ATOM     24  C   UNK A   0       0.498   6.403  -3.375  0.00  0.00    +0.284 A 
ATOM     25  O   UNK A   0       0.935   6.968  -4.398  0.00  0.00    -0.265 OA
ATOM     26  C   UNK A   0      -0.818   5.967  -3.333  0.00  0.00    +0.091 A 
ATOM     27  C   UNK A   0      -1.213   5.247  -2.242  0.00  0.00    +0.170 A 
ATOM     28  N   UNK A   0      -2.534   4.999  -2.415  0.00  0.00    -0.225 NA
ATOM     29  C   UNK A   0      -2.872   5.166  -3.714  0.00  0.00    +0.097 A 
ATOM     30  C   UNK A   0      -1.769   5.748  -4.313  0.00  0.00    +0.005 A 
ATOM     31  N   UNK A   0      -0.329   5.047  -1.256  0.00  0.00    -0.192 NA
ENDBRANCH  20  30
ENDBRANCH  19  20
ENDBRANCH   1  19
TORSDOF 9
ENDMDL
MODEL 4
REMARK VINA RESULT:      -8.7      2.222      3.914
REMARK  Name = 
REMARK  9 active torsions:
REMARK  status: ('A' for Active; 'I' for Inactive)
REMARK    1  A    between atoms: C_7  and  C_8
REMARK    2  A    between atoms: C_8  and  C_9
REMARK    3  A    between atoms: C_9  and  C_10
REMARK    4  A    between atoms: C_13  and  C_14
REMARK    5  A    between atoms: N_16  and  CA_17
REMARK    6  A    between atoms: CA_17  and  CB_18
REMARK    7  A    between atoms: CA_17  and  C_23
REMARK    8  A    between atoms: CB_18  and  CG_19
REMARK    9  A    between atoms: CG_19  and  CD_20
REMARK                            x       y       z     vdW  Elec       q    Type
REMARK                         _______ _______ _______ _____ _____    ______ ____
ROOT
ATOM      1  C   UNK A   0       1.253   5.250  -8.848  0.00  0.00    -0.022 A 
ATOM      2  C   UNK A   0      -0.083   5.421  -8.506  0.00  0.00    -0.004 A 
ATOM      3  C   UNK A   0      -0.388   5.458  -7.169  0.00  0.00    +0.004 A 
ATOM      4  C   UNK A   0       0.505   5.080  -6.173  0.00  0.00    +0.055 A 
ATOM      5  C   UNK A   0       1.700   4.572  -6.601  0.00  0.00    +0.004 A 
ATOM      6  C   UNK A   0       1.989   4.479  -7.955  0.00  0.00    -0.004 A 
ENDROOT
BRANCH   4   7
ATOM      7  C   UNK A   0       0.349   5.821  -4.914  0.00  0.00    +0.265 C 
ATOM      8  N   GLU A   1       0.727   5.191  -3.731  0.00  0.00    -0.192 NA
ATOM      9  O   UNK A   0       0.100   7.064  -4.895  0.00  0.00    -0.268 OA
BRANCH   8  10
ATOM     10  CA  GLU A   1       0.878   6.110  -2.435  0.00  0.00    +0.199 C 
BRANCH  10  11
ATOM     11  C   GLU A   1       2.250   5.348  -1.953  0.00  0.00    +0.384 C 
ATOM     12  OXT GLU A   1       3.344   5.792  -2.704  0.00  0.00    -0.244 OA
ATOM     13  O   GLU A   1       2.282   5.231  -0.703  0.00  0.00    -0.244 OA
ENDBRANCH  10  11
BRANCH  10  14
ATOM     14  CB  GLU A   1      -0.080   5.103  -1.506  0.00  0.00    +0.045 C 
BRANCH  14  15
ATOM     15  CG  GLU A   1      -1.202   6.075  -1.155  0.00  0.00    +0.116 C 
BRANCH  15  16
ATOM     16  CD  GLU A   1      -2.424   5.822  -1.960  0.00  0.00    +0.365 C 
ATOM     17  OE2 GLU A   1      -3.305   6.861  -2.177  0.00  0.00    -0.246 OA
ATOM     18  OE1 GLU A   1      -2.573   4.688  -2.499  0.00  0.00    -0.246 OA
ENDBRANCH  15  16
ENDBRANCH  14  15
ENDBRANCH  10  14
ENDBRANCH   8  10
ENDBRANCH   4   7
BRANCH   1  19
ATOM     19  C   UNK A   0       1.583   5.094 -10.291  0.00  0.00    +0.031 C 
BRANCH  19  20
ATOM     20  C   UNK A   0       2.442   6.303 -10.643  0.00  0.00    +0.033 C 
BRANCH  20  30
ATOM     21  N   UNK A   0       8.339   5.353 -12.673  0.00  0.00    -0.086 NA
ATOM     22  C   UNK A   0       7.210   5.323 -12.334  0.00  0.00    +0.261 A 
ATOM     23  N   UNK A   0       6.792   5.401 -11.048  0.00  0.00    -0.172 NA
ATOM     24  C   UNK A   0       5.477   5.512 -10.743  0.00  0.00    +0.284 A 
ATOM     25  O   UNK A   0       5.152   5.837  -9.583  0.00  0.00    -0.265 OA
ATOM     26  C   UNK A   0       4.515   5.452 -11.741  0.00  0.00    +0.091 A 
ATOM     27  C   UNK A   0       4.938   5.212 -13.017  0.00  0.00    +0.170 A 
ATOM     28  N   UNK A   0       3.818   5.142 -13.777  0.00  0.00    -0.225 NA
ATOM     29  C   UNK A   0       2.781   5.719 -13.129  0.00  0.00    +0.097 A 
ATOM     30  C   UNK A   0       3.230   5.954 -11.842  0.00  0.00    +0.005 A 
ATOM     31  N   UNK A   0       6.244   5.001 -13.225  0.00  0.00    -0.192 NA
ENDBRANCH  20  30
ENDBRANCH  19  20
ENDBRANCH   1  19
TORSDOF 9
ENDMDL
MODEL 5
REMARK VINA RESULT:      -8.6      2.776      9.455
REMARK  Name = 
REMARK  9 active torsions:
REMARK  status: ('A' for Active; 'I' for Inactive)
REMARK    1  A    between atoms: C_7  and  C_8
REMARK    2  A    between atoms: C_8  and  C_9
REMARK    3  A    between atoms: C_9  and  C_10
REMARK    4  A    between atoms: C_13  and  C_14
REMARK    5  A    between atoms: N_16  and  CA_17
REMARK    6  A    between atoms: CA_17  and  CB_18
REMARK    7  A    between atoms: CA_17  and  C_23
REMARK    8  A    between atoms: CB_18  and  CG_19
REMARK    9  A    between atoms: CG_19  and  CD_20
REMARK                            x       y       z     vdW  Elec       q    Type
REMARK                         _______ _______ _______ _____ _____    ______ ____
ROOT
ATOM      1  C   UNK A   0       4.075   6.390  -6.252  0.00  0.00    -0.022 A 
ATOM      2  C   UNK A   0       4.447   5.229  -6.918  0.00  0.00    -0.004 A 
ATOM      3  C   UNK A   0       4.281   5.205  -8.279  0.00  0.00    +0.004 A 
ATOM      4  C   UNK A   0       3.536   6.153  -8.971  0.00  0.00    +0.055 A 
ATOM      5  C   UNK A   0       2.887   7.081  -8.206  0.00  0.00    +0.004 A 
ATOM      6  C   UNK A   0       3.006   7.072  -6.824  0.00  0.00    -0.004 A 
ENDROOT
BRANCH   4   7
ATOM      7  C   UNK A   0       4.028   6.429 -10.328  0.00  0.00    +0.265 C 
ATOM      8  N   GLU A   1       3.503   5.684 -11.381  0.00  0.00    -0.192 NA
ATOM      9  O   UNK A   0       4.730   7.452 -10.590  0.00  0.00    -0.268 OA
BRANCH   8  10
ATOM     10  CA  GLU A   1       3.781   6.219 -12.859  0.00  0.00    +0.199 C 
BRANCH  10  11
ATOM     11  C   GLU A   1       2.500   5.404 -13.483  0.00  0.00    +0.384 C 
ATOM     12  OXT GLU A   1       1.439   5.391 -12.571  0.00  0.00    -0.244 OA
ATOM     13  O   GLU A   1       2.351   5.669 -14.702  0.00  0.00    -0.244 OA
ENDBRANCH  10  11
BRANCH  10  14
ATOM     14  CB  GLU A   1       4.827   4.962 -13.207  0.00  0.00    +0.045 C 
BRANCH  14  15
ATOM     15  CG  GLU A   1       6.023   5.762 -13.715  0.00  0.00    +0.116 C 
BRANCH  15  16
ATOM     16  CD  GLU A   1       7.168   5.703 -12.772  0.00  0.00    +0.365 C 
ATOM     17  OE2 GLU A   1       7.823   4.501 -12.594  0.00  0.00    -0.246 OA
ATOM     18  OE1 GLU A   1       7.567   6.773 -12.232  0.00  0.00    -0.246 OA
ENDBRANCH  15  16
ENDBRANCH  14  15
ENDBRANCH  10  14
ENDBRANCH   8  10
ENDBRANCH   4   7
BRANCH   1  19
ATOM     19  C   UNK A   0       4.144   6.387  -4.765  0.00  0.00    +0.031 C 
BRANCH  19  20
ATOM     20  C   UNK A   0       2.919   7.166  -4.302  0.00  0.00    +0.033 C 
BRANCH  20  30
ATOM     21  N   UNK A   0      -2.569   5.128  -1.952  0.00  0.00    -0.086 NA
ATOM     22  C   UNK A   0      -1.498   5.302  -2.414  0.00  0.00    +0.261 A 
ATOM     23  N   UNK A   0      -1.267   5.764  -3.666  0.00  0.00    -0.172 NA
ATOM     24  C   UNK A   0      -0.017   6.083  -4.077  0.00  0.00    +0.284 A 
ATOM     25  O   UNK A   0       0.124   6.739  -5.129  0.00  0.00    -0.265 OA
ATOM     26  C   UNK A   0       1.076   5.851  -3.255  0.00  0.00    +0.091 A 
ATOM     27  C   UNK A   0       0.849   5.235  -2.057  0.00  0.00    +0.170 A 
ATOM     28  N   UNK A   0       2.065   5.073  -1.482  0.00  0.00    -0.225 NA
ATOM     29  C   UNK A   0       2.965   5.903  -2.057  0.00  0.00    +0.097 A 
ATOM     30  C   UNK A   0       2.328   6.431  -3.166  0.00  0.00    +0.005 A 
ATOM     31  N   UNK A   0      -0.400   4.847  -1.767  0.00  0.00    -0.192 NA
ENDBRANCH  20  30
ENDBRANCH  19  20
ENDBRANCH   1  19
TORSDOF 9
ENDMDL
MODEL 6
REMARK VINA RESULT:      -8.5      2.913      9.060
REMARK  Name = 
REMARK  9 active torsions:
REMARK  status: ('A' for Active; 'I' for Inactive)
REMARK    1  A    between atoms: C_7  and  C_8
REMARK    2  A    between atoms: C_8  and  C_9
REMARK    3  A    between atoms: C_9  and  C_10
REMARK    4  A    between atoms: C_13  and  C_14
REMARK    5  A    between atoms: N_16  and  CA_17
REMARK    6  A    between atoms: CA_17  and  CB_18
REMARK    7  A    between atoms: CA_17  and  C_23
REMARK    8  A    between atoms: CB_18  and  CG_19
REMARK    9  A    between atoms: CG_19  and  CD_20
REMARK                            x       y       z     vdW  Elec       q    Type
REMARK                         _______ _______ _______ _____ _____    ______ ____
ROOT
ATOM      1  C   UNK A   0       4.212   6.363  -6.393  0.00  0.00    -0.022 A 
ATOM      2  C   UNK A   0       4.775   5.273  -7.047  0.00  0.00    -0.004 A 
ATOM      3  C   UNK A   0       4.797   5.307  -8.417  0.00  0.00    +0.004 A 
ATOM      4  C   UNK A   0       4.070   6.223  -9.168  0.00  0.00    +0.055 A 
ATOM      5  C   UNK A   0       3.242   7.052  -8.464  0.00  0.00    +0.004 A 
ATOM      6  C   UNK A   0       3.173   6.981  -7.081  0.00  0.00    -0.004 A 
ENDROOT
BRANCH   4   7
ATOM      7  C   UNK A   0       4.714   6.610 -10.431  0.00  0.00    +0.265 C 
ATOM      8  N   GLU A   1       4.570   5.764 -11.528  0.00  0.00    -0.192 NA
ATOM      9  O   UNK A   0       5.193   7.771 -10.610  0.00  0.00    -0.268 OA
BRANCH   8  10
ATOM     10  CA  GLU A   1       4.971   6.352 -12.957  0.00  0.00    +0.199 C 
BRANCH  10  11
ATOM     11  C   GLU A   1       3.960   5.332 -13.752  0.00  0.00    +0.384 C 
ATOM     12  OXT GLU A   1       3.521   5.913 -14.946  0.00  0.00    -0.244 OA
ATOM     13  O   GLU A   1       4.370   4.147 -13.678  0.00  0.00    -0.244 OA
ENDBRANCH  10  11
BRANCH  10  14
ATOM     14  CB  GLU A   1       6.260   5.301 -13.121  0.00  0.00    +0.045 C 
BRANCH  14  15
ATOM     15  CG  GLU A   1       7.412   6.294 -13.007  0.00  0.00    +0.116 C 
BRANCH  15  16
ATOM     16  CD  GLU A   1       8.407   5.871 -11.990  0.00  0.00    +0.365 C 
ATOM     17  OE2 GLU A   1       7.957   5.341 -10.798  0.00  0.00    -0.246 OA
ATOM     18  OE1 GLU A   1       9.636   5.923 -12.282  0.00  0.00    -0.246 OA
ENDBRANCH  15  16
ENDBRANCH  14  15
ENDBRANCH  10  14
ENDBRANCH   8  10
ENDBRANCH   4   7
BRANCH   1  19
ATOM     19  C   UNK A   0       4.079   6.288  -4.912  0.00  0.00    +0.031 C 
BRANCH  19  20
ATOM     20  C   UNK A   0       3.240   5.045  -4.644  0.00  0.00    +0.033 C 
BRANCH  20  30
ATOM     21  N   UNK A   0      -2.751   5.924  -6.412  0.00  0.00    -0.086 NA
ATOM     22  C   UNK A   0      -1.711   5.608  -5.955  0.00  0.00    +0.261 A 
ATOM     23  N   UNK A   0      -0.756   4.919  -6.622  0.00  0.00    -0.172 NA
ATOM     24  C   UNK A   0       0.472   4.722  -6.085  0.00  0.00    +0.284 A 
ATOM     25  O   UNK A   0       1.394   4.315  -6.821  0.00  0.00    -0.265 OA
ATOM     26  C   UNK A   0       0.751   5.141  -4.793  0.00  0.00    +0.091 A 
ATOM     27  C   UNK A   0      -0.268   5.692  -4.070  0.00  0.00    +0.170 A 
ATOM     28  N   UNK A   0       0.241   5.956  -2.842  0.00  0.00    -0.225 NA
ATOM     29  C   UNK A   0       1.593   5.978  -2.896  0.00  0.00    +0.097 A 
ATOM     30  C   UNK A   0       1.924   5.496  -4.150  0.00  0.00    +0.005 A 
ATOM     31  N   UNK A   0      -1.485   5.751  -4.628  0.00  0.00    -0.192 NA
ENDBRANCH  20  30
ENDBRANCH  19  20
ENDBRANCH   1  19
TORSDOF 9
ENDMDL
MODEL 7
REMARK VINA RESULT:      -8.5      1.614      2.676
REMARK  Name = 
REMARK  9 active torsions:
REMARK  status: ('A' for Active; 'I' for Inactive)
REMARK    1  A    between atoms: C_7  and  C_8
REMARK    2  A    between atoms: C_8  and  C_9
REMARK    3  A    between atoms: C_9  and  C_10
REMARK    4  A    between atoms: C_13  and  C_14
REMARK    5  A    between atoms: N_16  and  CA_17
REMARK    6  A    between atoms: CA_17  and  CB_18
REMARK    7  A    between atoms: CA_17  and  C_23
REMARK    8  A    between atoms: CB_18  and  CG_19
REMARK    9  A    between atoms: CG_19  and  CD_20
REMARK                            x       y       z     vdW  Elec       q    Type
REMARK                         _______ _______ _______ _____ _____    ______ ____
ROOT
ATOM      1  C   UNK A   0       3.585   5.524  -7.982  0.00  0.00    -0.022 A 
ATOM      2  C   UNK A   0       3.119   6.824  -7.833  0.00  0.00    -0.004 A 
ATOM      3  C   UNK A   0       2.104   7.027  -6.934  0.00  0.00    +0.004 A 
ATOM      4  C   UNK A   0       1.362   5.993  -6.376  0.00  0.00    +0.055 A 
ATOM      5  C   UNK A   0       1.637   4.738  -6.844  0.00  0.00    +0.004 A 
ATOM      6  C   UNK A   0       2.624   4.536  -7.799  0.00  0.00    -0.004 A 
ENDROOT
BRANCH   4   7
ATOM      7  C   UNK A   0       0.896   6.257  -5.008  0.00  0.00    +0.265 C 
ATOM      8  N   GLU A   1       1.554   5.623  -3.956  0.00  0.00    -0.192 NA
ATOM      9  O   UNK A   0       0.082   7.194  -4.746  0.00  0.00    -0.268 OA
BRANCH   8  10
ATOM     10  CA  GLU A   1       1.272   6.175  -2.485  0.00  0.00    +0.199 C 
BRANCH  10  11
ATOM     11  C   GLU A   1       2.543   5.355  -1.845  0.00  0.00    +0.384 C 
ATOM     12  OXT GLU A   1       3.683   5.528  -2.638  0.00  0.00    -0.244 OA
ATOM     13  O   GLU A   1       2.558   5.458  -0.594  0.00  0.00    -0.244 OA
ENDBRANCH  10  11
BRANCH  10  14
ATOM     14  CB  GLU A   1       0.213   4.931  -2.131  0.00  0.00    +0.045 C 
BRANCH  14  15
ATOM     15  CG  GLU A   1      -0.885   5.726  -1.431  0.00  0.00    +0.116 C 
BRANCH  15  16
ATOM     16  CD  GLU A   1      -2.109   5.829  -2.264  0.00  0.00    +0.365 C 
ATOM     17  OE2 GLU A   1      -2.775   4.673  -2.616  0.00  0.00    -0.246 OA
ATOM     18  OE1 GLU A   1      -2.556   6.977  -2.549  0.00  0.00    -0.246 OA
ENDBRANCH  15  16
ENDBRANCH  14  15
ENDBRANCH  10  14
ENDBRANCH   8  10
ENDBRANCH   4   7
BRANCH   1  19
ATOM     19  C   UNK A   0       4.606   5.272  -9.037  0.00  0.00    +0.031 C 
BRANCH  19  20
ATOM     20  C   UNK A   0       4.388   6.360 -10.080  0.00  0.00    +0.033 C 
BRANCH  20  30
ATOM     21  N   UNK A   0       0.753   4.118 -14.722  0.00  0.00    -0.086 NA
ATOM     22  C   UNK A   0       1.491   4.683 -13.997  0.00  0.00    +0.261 A 
ATOM     23  N   UNK A   0       1.104   5.465 -12.962  0.00  0.00    -0.172 NA
ATOM     24  C   UNK A   0       2.005   5.961 -12.081  0.00  0.00    +0.284 A 
ATOM     25  O   UNK A   0       1.594   6.454 -11.011  0.00  0.00    -0.265 OA
ATOM     26  C   UNK A   0       3.363   5.759 -12.274  0.00  0.00    +0.091 A 
ATOM     27  C   UNK A   0       3.753   5.106 -13.408  0.00  0.00    +0.170 A 
ATOM     28  N   UNK A   0       5.108   5.092 -13.387  0.00  0.00    -0.225 NA
ATOM     29  C   UNK A   0       5.555   5.331 -12.132  0.00  0.00    +0.097 A 
ATOM     30  C   UNK A   0       4.442   5.720 -11.408  0.00  0.00    +0.005 A 
ATOM     31  N   UNK A   0       2.812   4.743 -14.289  0.00  0.00    -0.192 NA
ENDBRANCH  20  30
ENDBRANCH  19  20
ENDBRANCH   1  19
TORSDOF 9
ENDMDL
MODEL 8
REMARK VINA RESULT:      -8.4      2.712      5.029
REMARK  Name = 
REMARK  9 active torsions:
REMARK  status: ('A' for Active; 'I' for Inactive)
REMARK    1  A    between atoms: C_7  and  C_8
REMARK    2  A    between atoms: C_8  and  C_9
REMARK    3  A    between atoms: C_9  and  C_10
REMARK    4  A    between atoms: C_13  and  C_14
REMARK    5  A    between atoms: N_16  and  CA_17
REMARK    6  A    between atoms: CA_17  and  CB_18
REMARK    7  A    between atoms: CA_17  and  C_23
REMARK    8  A    between atoms: CB_18  and  CG_19
REMARK    9  A    between atoms: CG_19  and  CD_20
REMARK                            x       y       z     vdW  Elec       q    Type
REMARK                         _______ _______ _______ _____ _____    ______ ____
ROOT
ATOM      1  C   UNK A   0      -0.444   5.619  -6.812  0.00  0.00    -0.022 A 
ATOM      2  C   UNK A   0       0.148   6.527  -5.942  0.00  0.00    -0.004 A 
ATOM      3  C   UNK A   0      -0.379   6.621  -4.680  0.00  0.00    +0.004 A 
ATOM      4  C   UNK A   0      -1.602   6.064  -4.322  0.00  0.00    +0.055 A 
ATOM      5  C   UNK A   0      -2.314   5.482  -5.333  0.00  0.00    +0.004 A 
ATOM      6  C   UNK A   0      -1.810   5.438  -6.624  0.00  0.00    -0.004 A 
ENDROOT
BRANCH   4   7
ATOM      7  C   UNK A   0      -1.671   5.614  -2.925  0.00  0.00    +0.265 C 
ATOM      8  N   GLU A   1      -0.895   6.282  -1.981  0.00  0.00    -0.192 NA
ATOM      9  O   UNK A   0      -2.562   4.805  -2.525  0.00  0.00    -0.268 OA
BRANCH   8  10
ATOM     10  CA  GLU A   1      -1.234   6.018  -0.443  0.00  0.00    +0.199 C 
BRANCH  10  11
ATOM     11  C   GLU A   1      -2.047   7.436  -0.293  0.00  0.00    +0.384 C 
ATOM     12  OXT GLU A   1      -2.602   7.547   0.986  0.00  0.00    -0.244 OA
ATOM     13  O   GLU A   1      -1.422   8.372  -0.850  0.00  0.00    -0.244 OA
ENDBRANCH  10  11
BRANCH  10  14
ATOM     14  CB  GLU A   1       0.195   6.712   0.077  0.00  0.00    +0.045 C 
BRANCH  14  15
ATOM     15  CG  GLU A   1       1.183   5.939  -0.791  0.00  0.00    +0.116 C 
BRANCH  15  16
ATOM     16  CD  GLU A   1       2.537   6.547  -0.763  0.00  0.00    +0.365 C 
ATOM     17  OE2 GLU A   1       3.368   6.275   0.304  0.00  0.00    -0.246 OA
ATOM     18  OE1 GLU A   1       2.921   7.222  -1.761  0.00  0.00    -0.246 OA
ENDBRANCH  15  16
ENDBRANCH  14  15
ENDBRANCH  10  14
ENDBRANCH   8  10
ENDBRANCH   4   7
BRANCH   1  19
ATOM     19  C   UNK A   0       0.044   5.589  -8.218  0.00  0.00    +0.031 C 
BRANCH  19  20
ATOM     20  C   UNK A   0       1.236   6.538  -8.253  0.00  0.00    +0.033 C 
BRANCH  20  30
ATOM     21  N   UNK A   0       6.920   5.718 -10.864  0.00  0.00    -0.086 NA
ATOM     22  C   UNK A   0       5.819   5.673 -10.444  0.00  0.00    +0.261 A 
ATOM     23  N   UNK A   0       5.501   5.570  -9.132  0.00  0.00    -0.172 NA
ATOM     24  C   UNK A   0       4.218   5.676  -8.710  0.00  0.00    +0.284 A 
ATOM     25  O   UNK A   0       3.994   5.833  -7.493  0.00  0.00    -0.265 OA
ATOM     26  C   UNK A   0       3.183   5.796  -9.625  0.00  0.00    +0.091 A 
ATOM     27  C   UNK A   0       3.500   5.738 -10.953  0.00  0.00    +0.170 A 
ATOM     28  N   UNK A   0       2.325   5.817 -11.623  0.00  0.00    -0.225 NA
ATOM     29  C   UNK A   0       1.364   6.324 -10.817  0.00  0.00    +0.097 A 
ATOM     30  C   UNK A   0       1.917   6.348  -9.549  0.00  0.00    +0.005 A 
ATOM     31  N   UNK A   0       4.777   5.519 -11.293  0.00  0.00    -0.192 NA
ENDBRANCH  20  30
ENDBRANCH  19  20
ENDBRANCH   1  19
TORSDOF 9
ENDMDL
MODEL 9
REMARK VINA RESULT:      -8.2      3.142     10.024
REMARK  Name = 
REMARK  9 active torsions:
REMARK  status: ('A' for Active; 'I' for Inactive)
REMARK    1  A    between atoms: C_7  and  C_8
REMARK    2  A    between atoms: C_8  and  C_9
REMARK    3  A    between atoms: C_9  and  C_10
REMARK    4  A    between atoms: C_13  and  C_14
REMARK    5  A    between atoms: N_16  and  CA_17
REMARK    6  A    between atoms: CA_17  and  CB_18
REMARK    7  A    between atoms: CA_17  and  C_23
REMARK    8  A    between atoms: CB_18  and  CG_19
REMARK    9  A    between atoms: CG_19  and  CD_20
REMARK                            x       y       z     vdW  Elec       q    Type
REMARK                         _______ _______ _______ _____ _____    ______ ____
ROOT
ATOM      1  C   UNK A   0       3.024   6.154  -7.992  0.00  0.00    -0.022 A 
ATOM      2  C   UNK A   0       4.203   5.419  -7.997  0.00  0.00    -0.004 A 
ATOM      3  C   UNK A   0       4.695   5.030  -9.217  0.00  0.00    +0.004 A 
ATOM      4  C   UNK A   0       3.958   5.103 -10.393  0.00  0.00    +0.055 A 
ATOM      5  C   UNK A   0       2.659   5.506 -10.263  0.00  0.00    +0.004 A 
ATOM      6  C   UNK A   0       2.141   5.844  -9.021  0.00  0.00    -0.004 A 
ENDROOT
BRANCH   4   7
ATOM      7  C   UNK A   0       4.766   5.366 -11.592  0.00  0.00    +0.265 C 
ATOM      8  N   GLU A   1       6.114   5.671 -11.422  0.00  0.00    -0.192 NA
ATOM      9  O   UNK A   0       4.338   5.108 -12.758  0.00  0.00    -0.268 OA
BRANCH   8  10
ATOM     10  CA  GLU A   1       7.042   5.612 -12.719  0.00  0.00    +0.199 C 
BRANCH  10  11
ATOM     11  C   GLU A   1       8.309   6.312 -11.945  0.00  0.00    +0.384 C 
ATOM     12  OXT GLU A   1       7.907   6.809 -10.701  0.00  0.00    -0.244 OA
ATOM     13  O   GLU A   1       9.359   5.641 -12.106  0.00  0.00    -0.244 OA
ENDBRANCH  10  11
BRANCH  10  14
ATOM     14  CB  GLU A   1       6.493   7.087 -13.282  0.00  0.00    +0.045 C 
BRANCH  14  15
ATOM     15  CG  GLU A   1       6.796   6.920 -14.768  0.00  0.00    +0.116 C 
BRANCH  15  16
ATOM     16  CD  GLU A   1       5.722   7.493 -15.618  0.00  0.00    +0.365 C 
ATOM     17  OE2 GLU A   1       4.539   6.797 -15.757  0.00  0.00    -0.246 OA
ATOM     18  OE1 GLU A   1       5.888   8.644 -16.115  0.00  0.00    -0.246 OA
ENDBRANCH  15  16
ENDBRANCH  14  15
ENDBRANCH  10  14
ENDBRANCH   8  10
ENDBRANCH   4   7
BRANCH   1  19
ATOM     19  C   UNK A   0       2.420   6.483  -6.672  0.00  0.00    +0.031 C 
BRANCH  19  20
ATOM     20  C   UNK A   0       1.917   5.157  -6.115  0.00  0.00    +0.033 C 
BRANCH  20  30
ATOM     21  N   UNK A   0      -2.780   5.040  -1.906  0.00  0.00    -0.086 NA
ATOM     22  C   UNK A   0      -1.959   5.265  -2.721  0.00  0.00    +0.261 A 
ATOM     23  N   UNK A   0      -0.636   5.391  -2.465  0.00  0.00    -0.172 NA
ATOM     24  C   UNK A   0       0.268   5.500  -3.468  0.00  0.00    +0.284 A 
ATOM     25  O   UNK A   0       1.479   5.355  -3.208  0.00  0.00    -0.265 OA
ATOM     26  C   UNK A   0      -0.152   5.582  -4.788  0.00  0.00    +0.091 A 
ATOM     27  C   UNK A   0      -1.497   5.616  -5.025  0.00  0.00    +0.170 A 
ATOM     28  N   UNK A   0      -1.639   5.756  -6.365  0.00  0.00    -0.225 NA
ATOM     29  C   UNK A   0      -0.492   5.406  -6.992  0.00  0.00    +0.097 A 
ATOM     30  C   UNK A   0       0.449   5.256  -5.990  0.00  0.00    +0.005 A 
ATOM     31  N   UNK A   0      -2.329   5.618  -3.975  0.00  0.00    -0.192 NA
ENDBRANCH  20  30
ENDBRANCH  19  20
ENDBRANCH   1  19
TORSDOF 9
ENDMDL
