MODEL 1
REMARK VINA RESULT:      -5.3      0.000      0.000
REMARK  Name = 
REMARK  1 active torsions:
REMARK  status: ('A' for Active; 'I' for Inactive)
REMARK    1  A    between atoms: C_2  and  C_3
REMARK                            x       y       z     vdW  Elec       q    Type
REMARK                         _______ _______ _______ _____ _____    ______ ____
ROOT
ATOM      1  C   UNL     1       6.645   6.271 -11.499  0.00  0.00    +0.080 C 
ATOM      2  C   UNL     1       6.924   5.352 -12.645  0.00  0.00    +0.247 C 
ATOM      3  O   UNL     1       7.939   4.592 -12.644  0.00  0.00    -0.273 OA
ATOM      4  N   UNL     1       5.618   5.056 -13.159  0.00  0.00    -0.145 NA
ATOM      5  C   UNL     1       4.623   5.417 -12.192  0.00  0.00    +0.248 C 
ATOM      6  O   UNL     1       3.577   6.103 -12.405  0.00  0.00    -0.273 OA
ATOM      7  C   UNL     1       5.402   5.601 -10.925  0.00  0.00    +0.096 C 
ATOM      8  C   UNL     1       6.208   7.584 -12.076  0.00  0.00    +0.010 C 
ENDROOT
BRANCH   1  10
ATOM      9  C   UNL     1       7.395   5.694  -9.292  0.00  0.00    +0.001 C 
ATOM     10  C   UNL     1       7.768   6.360 -10.524  0.00  0.00    +0.009 C 
ENDBRANCH   1  10
TORSDOF 1
ENDMDL
MODEL 2
REMARK VINA RESULT:      -5.1     10.511     11.703
REMARK  Name = 
REMARK  1 active torsions:
REMARK  status: ('A' for Active; 'I' for Inactive)
REMARK    1  A    between atoms: C_2  and  C_3
REMARK                            x       y       z     vdW  Elec       q    Type
REMARK                         _______ _______ _______ _____ _____    ______ ____
ROOT
ATOM      1  C   UNL     1      -2.022   5.941  -4.726  0.00  0.00    +0.080 C 
ATOM      2  C   UNL     1      -2.192   7.344  -4.238  0.00  0.00    +0.247 C 
ATOM      3  O   UNL     1      -2.639   8.254  -5.000  0.00  0.00    -0.273 OA
ATOM      4  N   UNL     1      -2.452   7.179  -2.838  0.00  0.00    -0.145 NA
ATOM      5  C   UNL     1      -2.812   5.818  -2.568  0.00  0.00    +0.248 C 
ATOM      6  O   UNL     1      -2.331   5.075  -1.658  0.00  0.00    -0.273 OA
ATOM      7  C   UNL     1      -3.118   5.251  -3.921  0.00  0.00    +0.096 C 
ATOM      8  C   UNL     1      -0.711   5.441  -4.201  0.00  0.00    +0.010 C 
ENDROOT
BRANCH   1  10
ATOM      9  C   UNL     1      -0.994   5.244  -6.781  0.00  0.00    +0.001 C 
ATOM     10  C   UNL     1      -2.199   5.801  -6.199  0.00  0.00    +0.009 C 
ENDBRANCH   1  10
TORSDOF 1
ENDMDL
MODEL 3
REMARK VINA RESULT:      -5.0      2.099      2.711
REMARK  Name = 
REMARK  1 active torsions:
REMARK  status: ('A' for Active; 'I' for Inactive)
REMARK    1  A    between atoms: C_2  and  C_3
REMARK                            x       y       z     vdW  Elec       q    Type
REMARK                         _______ _______ _______ _____ _____    ______ ____
ROOT
ATOM      1  C   UNL     1       6.898   6.282 -10.899  0.00  0.00    +0.080 C 
ATOM      2  C   UNL     1       6.138   7.569 -10.900  0.00  0.00    +0.247 C 
ATOM      3  O   UNL     1       6.531   8.561 -11.585  0.00  0.00    -0.273 OA
ATOM      4  N   UNL     1       4.785   7.156 -10.668  0.00  0.00    -0.145 NA
ATOM      5  C   UNL     1       4.660   5.748 -10.908  0.00  0.00    +0.248 C 
ATOM      6  O   UNL     1       4.111   4.897 -10.142  0.00  0.00    -0.273 OA
ATOM      7  C   UNL     1       5.912   5.396 -11.652  0.00  0.00    +0.096 C 
ATOM      8  C   UNL     1       6.938   5.788  -9.484  0.00  0.00    +0.010 C 
ENDROOT
BRANCH   1  10
ATOM      9  C   UNL     1       8.194   5.660 -12.823  0.00  0.00    +0.001 C 
ATOM     10  C   UNL     1       8.228   6.378 -11.564  0.00  0.00    +0.009 C 
ENDBRANCH   1  10
TORSDOF 1
ENDMDL
MODEL 4
REMARK VINA RESULT:      -5.0      1.502      3.081
REMARK  Name = 
REMARK  1 active torsions:
REMARK  status: ('A' for Active; 'I' for Inactive)
REMARK    1  A    between atoms: C_2  and  C_3
REMARK                            x       y       z     vdW  Elec       q    Type
REMARK                         _______ _______ _______ _____ _____    ______ ____
ROOT
ATOM      1  C   UNL     1       6.415   6.246 -11.406  0.00  0.00    +0.080 C 
ATOM      2  C   UNL     1       6.188   5.080 -12.312  0.00  0.00    +0.247 C 
ATOM      3  O   UNL     1       5.079   4.916 -12.905  0.00  0.00    -0.273 OA
ATOM      4  N   UNL     1       7.496   4.799 -12.827  0.00  0.00    -0.145 NA
ATOM      5  C   UNL     1       8.361   5.917 -12.589  0.00  0.00    +0.248 C 
ATOM      6  O   UNL     1       9.524   5.879 -12.082  0.00  0.00    -0.273 OA
ATOM      7  C   UNL     1       7.422   7.032 -12.239  0.00  0.00    +0.096 C 
ATOM      8  C   UNL     1       7.145   5.739 -10.199  0.00  0.00    +0.010 C 
ENDROOT
BRANCH   1  10
ATOM      9  C   UNL     1       4.572   6.509  -9.889  0.00  0.00    +0.001 C 
ATOM     10  C   UNL     1       5.173   7.015 -11.107  0.00  0.00    +0.009 C 
ENDBRANCH   1  10
TORSDOF 1
ENDMDL
MODEL 5
REMARK VINA RESULT:      -4.9      9.951     11.113
REMARK  Name = 
REMARK  1 active torsions:
REMARK  status: ('A' for Active; 'I' for Inactive)
REMARK    1  A    between atoms: C_2  and  C_3
REMARK                            x       y       z     vdW  Elec       q    Type
REMARK                         _______ _______ _______ _____ _____    ______ ____
ROOT
ATOM      1  C   UNL     1      -1.494   6.020  -4.514  0.00  0.00    +0.080 C 
ATOM      2  C   UNL     1      -1.893   5.496  -3.172  0.00  0.00    +0.247 C 
ATOM      3  O   UNL     1      -2.840   4.662  -3.049  0.00  0.00    -0.273 OA
ATOM      4  N   UNL     1      -0.671   5.538  -2.423  0.00  0.00    -0.145 NA
ATOM      5  C   UNL     1       0.441   5.680  -3.315  0.00  0.00    +0.248 C 
ATOM      6  O   UNL     1       1.391   6.516  -3.212  0.00  0.00    -0.273 OA
ATOM      7  C   UNL     1      -0.132   5.351  -4.661  0.00  0.00    +0.096 C 
ATOM      8  C   UNL     1      -1.245   7.491  -4.363  0.00  0.00    +0.010 C 
ENDROOT
BRANCH   1  10
ATOM      9  C   UNL     1      -1.708   5.304  -6.796  0.00  0.00    +0.001 C 
ATOM     10  C   UNL     1      -2.447   5.656  -5.600  0.00  0.00    +0.009 C 
ENDBRANCH   1  10
TORSDOF 1
ENDMDL
MODEL 6
REMARK VINA RESULT:      -4.8      1.709      2.704
REMARK  Name = 
REMARK  1 active torsions:
REMARK  status: ('A' for Active; 'I' for Inactive)
REMARK    1  A    between atoms: C_2  and  C_3
REMARK                            x       y       z     vdW  Elec       q    Type
REMARK                         _______ _______ _______ _____ _____    ______ ____
ROOT
ATOM      1  C   UNL     1       7.086   6.411 -12.241  0.00  0.00    +0.080 C 
ATOM      2  C   UNL     1       6.074   5.314 -12.160  0.00  0.00    +0.247 C 
ATOM      3  O   UNL     1       5.250   5.252 -11.199  0.00  0.00    -0.273 OA
ATOM      4  N   UNL     1       5.832   4.984 -13.534  0.00  0.00    -0.145 NA
ATOM      5  C   UNL     1       6.324   6.032 -14.379  0.00  0.00    +0.248 C 
ATOM      6  O   UNL     1       7.063   5.894 -15.402  0.00  0.00    -0.273 OA
ATOM      7  C   UNL     1       6.542   7.180 -13.440  0.00  0.00    +0.096 C 
ATOM      8  C   UNL     1       8.383   5.793 -12.669  0.00  0.00    +0.010 C 
ENDROOT
BRANCH   1  10
ATOM      9  C   UNL     1       6.524   8.515 -11.229  0.00  0.00    +0.001 C 
ATOM     10  C   UNL     1       7.167   7.235 -11.002  0.00  0.00    +0.009 C 
ENDBRANCH   1  10
TORSDOF 1
ENDMDL
MODEL 7
REMARK VINA RESULT:      -4.8      1.830      2.185
REMARK  Name = 
REMARK  1 active torsions:
REMARK  status: ('A' for Active; 'I' for Inactive)
REMARK    1  A    between atoms: C_2  and  C_3
REMARK                            x       y       z     vdW  Elec       q    Type
REMARK                         _______ _______ _______ _____ _____    ______ ____
ROOT
ATOM      1  C   UNL     1       6.589   6.408 -11.709  0.00  0.00    +0.080 C 
ATOM      2  C   UNL     1       5.493   5.594 -12.317  0.00  0.00    +0.247 C 
ATOM      3  O   UNL     1       5.699   4.879 -13.344  0.00  0.00    -0.273 OA
ATOM      4  N   UNL     1       4.650   5.284 -11.199  0.00  0.00    -0.145 NA
ATOM      5  C   UNL     1       5.358   5.526  -9.976  0.00  0.00    +0.248 C 
ATOM      6  O   UNL     1       4.935   6.182  -8.975  0.00  0.00    -0.273 OA
ATOM      7  C   UNL     1       6.789   5.643 -10.405  0.00  0.00    +0.096 C 
ATOM      8  C   UNL     1       6.008   7.742 -11.350  0.00  0.00    +0.010 C 
ENDROOT
BRANCH   1  10
ATOM      9  C   UNL     1       8.880   5.717 -11.910  0.00  0.00    +0.001 C 
ATOM     10  C   UNL     1       7.818   6.468 -12.550  0.00  0.00    +0.009 C 
ENDBRANCH   1  10
TORSDOF 1
ENDMDL
MODEL 8
REMARK VINA RESULT:      -4.8      1.840      2.721
REMARK  Name = 
REMARK  1 active torsions:
REMARK  status: ('A' for Active; 'I' for Inactive)
REMARK    1  A    between atoms: C_2  and  C_3
REMARK                            x       y       z     vdW  Elec       q    Type
REMARK                         _______ _______ _______ _____ _____    ______ ____
ROOT
ATOM      1  C   UNL     1       6.722   5.976 -10.979  0.00  0.00    +0.080 C 
ATOM      2  C   UNL     1       6.720   7.341 -11.588  0.00  0.00    +0.247 C 
ATOM      3  O   UNL     1       7.043   8.362 -10.909  0.00  0.00    -0.273 OA
ATOM      4  N   UNL     1       7.013   7.089 -12.969  0.00  0.00    -0.145 NA
ATOM      5  C   UNL     1       7.542   5.766 -13.119  0.00  0.00    +0.248 C 
ATOM      6  O   UNL     1       7.167   4.892 -13.961  0.00  0.00    -0.273 OA
ATOM      7  C   UNL     1       7.903   5.361 -11.722  0.00  0.00    +0.096 C 
ATOM      8  C   UNL     1       5.489   5.271 -11.458  0.00  0.00    +0.010 C 
ENDROOT
BRANCH   1  10
ATOM      9  C   UNL     1       5.738   5.394  -8.867  0.00  0.00    +0.001 C 
ATOM     10  C   UNL     1       6.900   5.988  -9.500  0.00  0.00    +0.009 C 
ENDBRANCH   1  10
TORSDOF 1
ENDMDL
MODEL 9
REMARK VINA RESULT:      -4.7      2.077      3.290
REMARK  Name = 
REMARK  1 active torsions:
REMARK  status: ('A' for Active; 'I' for Inactive)
REMARK    1  A    between atoms: C_2  and  C_3
REMARK                            x       y       z     vdW  Elec       q    Type
REMARK                         _______ _______ _______ _____ _____    ______ ____
ROOT
ATOM      1  C   UNL     1       6.061   6.581 -10.888  0.00  0.00    +0.080 C 
ATOM      2  C   UNL     1       6.754   5.874  -9.767  0.00  0.00    +0.247 C 
ATOM      3  O   UNL     1       6.099   5.367  -8.807  0.00  0.00    -0.273 OA
ATOM      4  N   UNL     1       7.934   5.345 -10.387  0.00  0.00    -0.145 NA
ATOM      5  C   UNL     1       7.784   5.368 -11.812  0.00  0.00    +0.248 C 
ATOM      6  O   UNL     1       8.623   5.818 -12.653  0.00  0.00    -0.273 OA
ATOM      7  C   UNL     1       6.316   5.590 -12.018  0.00  0.00    +0.096 C 
ATOM      8  C   UNL     1       6.856   7.813 -11.198  0.00  0.00    +0.010 C 
ENDROOT
BRANCH   1  10
ATOM      9  C   UNL     1       3.820   5.985 -11.514  0.00  0.00    +0.001 C 
ATOM     10  C   UNL     1       4.613   6.820 -10.632  0.00  0.00    +0.009 C 
ENDBRANCH   1  10
TORSDOF 1
ENDMDL
