MODEL 1
REMARK VINA RESULT:     -10.7      0.000      0.000
REMARK  Name = 
REMARK  3 active torsions:
REMARK  status: ('A' for Active; 'I' for Inactive)
REMARK    1  A    between atoms: C_2  and  C_4
REMARK    2  A    between atoms: C_15  and  O_16
REMARK    3  A    between atoms: O_16  and  C_17
REMARK                            x       y       z     vdW  Elec       q    Type
REMARK                         _______ _______ _______ _____ _____    ______ ____
ROOT
ATOM      1  C   UNL     1       3.471   5.585  -5.769  0.00  0.00    +0.184 C 
ATOM      2  C   UNL     1       2.650   6.706  -5.574  0.00  0.00    +0.072 C 
ATOM      3  C   UNL     1       1.368   6.833  -6.609  0.00  0.00    +0.146 C 
ATOM      4  C   UNL     1       1.856   5.643  -7.641  0.00  0.00    +0.043 A 
ATOM      5  C   UNL     1       3.166   5.860  -8.072  0.00  0.00    +0.021 A 
ATOM      6  C   UNL     1       3.615   5.515  -9.343  0.00  0.00    +0.195 A 
ATOM      7  C   UNL     1       2.692   5.500 -10.351  0.00  0.00    +0.084 A 
ATOM      8  C   UNL     1       3.153   5.616 -11.743  0.00  0.00    +0.199 C 
ATOM      9  O   UNL     1       4.367   5.442 -12.068  0.00  0.00    -0.286 OA
ATOM     10  C   UNL     1       2.192   5.981 -12.790  0.00  0.00    +0.042 A 
ATOM     11  C   UNL     1       1.050   6.647 -12.360  0.00  0.00    +0.042 A 
ATOM     12  C   UNL     1       0.469   7.626 -13.156  0.00  0.00    +0.003 A 
ATOM     13  C   UNL     1       0.721   7.500 -14.515  0.00  0.00    +0.000 A 
ATOM     14  C   UNL     1       1.896   6.909 -14.967  0.00  0.00    +0.000 A 
ATOM     15  C   UNL     1       0.430   6.213 -11.100  0.00  0.00    +0.199 C 
ATOM     16  O   UNL     1      -0.578   6.834 -10.646  0.00  0.00    -0.286 OA
ATOM     17  C   UNL     1       2.518   5.988 -14.135  0.00  0.00    +0.003 A 
ATOM     18  C   UNL     1       1.366   5.782 -10.047  0.00  0.00    +0.084 A 
ATOM     19  O   UNL     1       4.957   5.366  -9.659  0.00  0.00    -0.287 OA
ATOM     20  C   UNL     1       0.972   5.754  -8.714  0.00  0.00    +0.197 A 
ATOM     21  O   UNL     1      -0.343   5.454  -8.518  0.00  0.00    -0.287 OA
ATOM     22  C   UNL     1       4.243   5.814  -7.068  0.00  0.00    +0.067 C 
ATOM     23  O   UNL     1       3.066   4.309  -5.740  0.00  0.00    -0.218 OA
ENDROOT
BRANCH   1  25
ATOM     24  C   UNL     1       5.062   7.109  -4.481  0.00  0.00    +0.075 C 
ATOM     25  C   UNL     1       4.581   5.716  -4.767  0.00  0.00    +0.179 C 
ATOM     26  O   UNL     1       5.036   4.801  -4.131  0.00  0.00    -0.293 OA
ENDBRANCH   1  25
BRANCH   3  27
ATOM     27  O   UNL     1       0.493   5.937  -5.709  0.00  0.00    -0.328 OA
BRANCH  27  28
ATOM     28  C   UNL     1       0.607   6.989  -4.547  0.00  0.00    +0.237 C 
ATOM     29  O   UNL     1       0.206   6.047  -3.423  0.00  0.00    -0.330 OA
ATOM     30  C   UNL     1      -1.259   5.829  -3.197  0.00  0.00    +0.150 C 
ATOM     31  C   UNL     1      -1.814   7.377  -3.203  0.00  0.00    +0.035 C 
ATOM     32  C   UNL     1      -1.574   5.287  -4.805  0.00  0.00    +0.196 C 
ATOM     33  O   UNL     1      -3.044   5.062  -4.521  0.00  0.00    -0.219 OA
ATOM     34  C   UNL     1      -1.753   6.742  -5.699  0.00  0.00    +0.130 C 
ATOM     35  N   UNL     1      -3.144   7.199  -5.093  0.00  0.00    -0.130 NA
ATOM     36  C   UNL     1      -0.850   7.737  -4.819  0.00  0.00    +0.083 C 
ENDBRANCH  27  28
ENDBRANCH   3  27
TORSDOF 3
ENDMDL
MODEL 2
REMARK VINA RESULT:     -10.6      2.955      8.558
REMARK  Name = 
REMARK  3 active torsions:
REMARK  status: ('A' for Active; 'I' for Inactive)
REMARK    1  A    between atoms: C_2  and  C_4
REMARK    2  A    between atoms: C_15  and  O_16
REMARK    3  A    between atoms: O_16  and  C_17
REMARK                            x       y       z     vdW  Elec       q    Type
REMARK                         _______ _______ _______ _____ _____    ______ ____
ROOT
ATOM      1  C   UNL     1       1.212   5.428  -9.783  0.00  0.00    +0.184 C 
ATOM      2  C   UNL     1       1.998   6.562 -10.038  0.00  0.00    +0.072 C 
ATOM      3  C   UNL     1       3.262   6.796  -9.001  0.00  0.00    +0.146 C 
ATOM      4  C   UNL     1       2.802   5.656  -7.902  0.00  0.00    +0.043 A 
ATOM      5  C   UNL     1       1.481   5.853  -7.498  0.00  0.00    +0.021 A 
ATOM      6  C   UNL     1       1.028   5.571  -6.213  0.00  0.00    +0.195 A 
ATOM      7  C   UNL     1       1.939   5.649  -5.197  0.00  0.00    +0.084 A 
ATOM      8  C   UNL     1       1.457   5.834  -3.820  0.00  0.00    +0.199 C 
ATOM      9  O   UNL     1       0.246   5.638  -3.497  0.00  0.00    -0.286 OA
ATOM     10  C   UNL     1       2.393   6.295  -2.787  0.00  0.00    +0.042 A 
ATOM     11  C   UNL     1       3.517   6.972  -3.246  0.00  0.00    +0.042 A 
ATOM     12  C   UNL     1       4.056   8.017  -2.506  0.00  0.00    +0.003 A 
ATOM     13  C   UNL     1       3.791   7.966  -1.144  0.00  0.00    +0.000 A 
ATOM     14  C   UNL     1       2.631   7.363  -0.668  0.00  0.00    +0.000 A 
ATOM     15  C   UNL     1       4.166   6.484  -4.470  0.00  0.00    +0.199 C 
ATOM     16  O   UNL     1       5.159   7.110  -4.952  0.00  0.00    -0.286 OA
ATOM     17  C   UNL     1       2.051   6.373  -1.449  0.00  0.00    +0.003 A 
ATOM     18  C   UNL     1       3.258   5.957  -5.504  0.00  0.00    +0.084 A 
ATOM     19  O   UNL     1      -0.312   5.396  -5.903  0.00  0.00    -0.287 OA
ATOM     20  C   UNL     1       3.669   5.862  -6.829  0.00  0.00    +0.197 A 
ATOM     21  O   UNL     1       4.995   5.595  -6.993  0.00  0.00    -0.287 OA
ATOM     22  C   UNL     1       0.418   5.709  -8.508  0.00  0.00    +0.067 C 
ATOM     23  O   UNL     1       1.661   4.168  -9.730  0.00  0.00    -0.218 OA
ENDROOT
BRANCH   1  25
ATOM     24  C   UNL     1      -0.362   6.818 -11.232  0.00  0.00    +0.075 C 
ATOM     25  C   UNL     1       0.111   5.460 -10.802  0.00  0.00    +0.179 C 
ATOM     26  O   UNL     1      -0.342   4.486 -11.346  0.00  0.00    -0.293 OA
ENDBRANCH   1  25
BRANCH   3  27
ATOM     27  O   UNL     1       4.177   5.878  -9.835  0.00  0.00    -0.328 OA
BRANCH  27  28
ATOM     28  C   UNL     1       3.991   6.819 -11.080  0.00  0.00    +0.237 C 
ATOM     29  O   UNL     1       4.403   5.799 -12.129  0.00  0.00    -0.330 OA
ATOM     30  C   UNL     1       5.871   5.621 -12.377  0.00  0.00    +0.150 C 
ATOM     31  C   UNL     1       6.359   7.184 -12.520  0.00  0.00    +0.035 C 
ATOM     32  C   UNL     1       6.248   5.235 -10.737  0.00  0.00    +0.196 C 
ATOM     33  O   UNL     1       7.718   5.045 -11.042  0.00  0.00    -0.219 OA
ATOM     34  C   UNL     1       6.387   6.769  -9.978  0.00  0.00    +0.130 C 
ATOM     35  N   UNL     1       7.742   7.226 -10.660  0.00  0.00    -0.130 NA
ATOM     36  C   UNL     1       5.421   7.646 -10.914  0.00  0.00    +0.083 C 
ENDBRANCH  27  28
ENDBRANCH   3  27
TORSDOF 3
ENDMDL
MODEL 3
REMARK VINA RESULT:     -10.3      2.471      4.864
REMARK  Name = 
REMARK  3 active torsions:
REMARK  status: ('A' for Active; 'I' for Inactive)
REMARK    1  A    between atoms: C_2  and  C_4
REMARK    2  A    between atoms: C_15  and  O_16
REMARK    3  A    between atoms: O_16  and  C_17
REMARK                            x       y       z     vdW  Elec       q    Type
REMARK                         _______ _______ _______ _____ _____    ______ ____
ROOT
ATOM      1  C   UNL     1      -0.367   5.918  -4.322  0.00  0.00    +0.184 C 
ATOM      2  C   UNL     1       0.708   5.116  -3.908  0.00  0.00    +0.072 C 
ATOM      3  C   UNL     1       2.157   5.448  -4.630  0.00  0.00    +0.146 C 
ATOM      4  C   UNL     1       1.551   6.452  -5.789  0.00  0.00    +0.043 A 
ATOM      5  C   UNL     1       0.511   5.839  -6.489  0.00  0.00    +0.021 A 
ATOM      6  C   UNL     1       0.267   6.066  -7.840  0.00  0.00    +0.195 A 
ATOM      7  C   UNL     1       1.334   6.414  -8.620  0.00  0.00    +0.084 A 
ATOM      8  C   UNL     1       1.253   6.206 -10.074  0.00  0.00    +0.199 C 
ATOM      9  O   UNL     1       0.151   5.990 -10.665  0.00  0.00    -0.286 OA
ATOM     10  C   UNL     1       2.486   6.209 -10.869  0.00  0.00    +0.042 A 
ATOM     11  C   UNL     1       3.657   5.932 -10.173  0.00  0.00    +0.042 A 
ATOM     12  C   UNL     1       4.684   5.223 -10.783  0.00  0.00    +0.003 A 
ATOM     13  C   UNL     1       4.711   5.309 -12.168  0.00  0.00    +0.000 A 
ATOM     14  C   UNL     1       3.539   5.505 -12.890  0.00  0.00    +0.000 A 
ATOM     15  C   UNL     1       3.811   6.497  -8.825  0.00  0.00    +0.199 C 
ATOM     16  O   UNL     1       4.839   6.220  -8.137  0.00  0.00    -0.286 OA
ATOM     17  C   UNL     1       2.486   6.145 -12.251  0.00  0.00    +0.003 A 
ATOM     18  C   UNL     1       2.578   6.566  -8.021  0.00  0.00    +0.084 A 
ATOM     19  O   UNL     1      -0.947   5.784  -8.449  0.00  0.00    -0.287 OA
ATOM     20  C   UNL     1       2.637   6.671  -6.636  0.00  0.00    +0.197 A 
ATOM     21  O   UNL     1       3.707   7.373  -6.167  0.00  0.00    -0.287 OA
ATOM     22  C   UNL     1      -0.717   5.499  -5.749  0.00  0.00    +0.067 C 
ATOM     23  O   UNL     1      -0.412   7.254  -4.253  0.00  0.00    -0.218 OA
ENDROOT
BRANCH   1  25
ATOM     24  C   UNL     1      -2.847   5.318  -4.365  0.00  0.00    +0.075 C 
ATOM     25  C   UNL     1      -1.567   5.399  -3.585  0.00  0.00    +0.179 C 
ATOM     26  O   UNL     1      -1.542   4.972  -2.459  0.00  0.00    -0.293 OA
ENDBRANCH   1  25
BRANCH   3  27
ATOM     27  O   UNL     1       2.474   6.545  -3.595  0.00  0.00    -0.328 OA
BRANCH  27  28
ATOM     28  C   UNL     1       3.849   5.852  -3.278  0.00  0.00    +0.237 C 
ATOM     29  O   UNL     1       3.355   5.017  -2.109  0.00  0.00    -0.330 OA
ATOM     30  C   UNL     1       3.285   5.682  -0.767  0.00  0.00    +0.150 C 
ATOM     31  C   UNL     1       4.763   6.399  -0.694  0.00  0.00    +0.035 C 
ATOM     32  C   UNL     1       2.249   6.959  -1.294  0.00  0.00    +0.196 C 
ATOM     33  O   UNL     1       2.192   7.582   0.084  0.00  0.00    -0.219 OA
ATOM     34  C   UNL     1       3.327   8.097  -1.995  0.00  0.00    +0.130 C 
ATOM     35  N   UNL     1       4.017   8.594  -0.658  0.00  0.00    -0.130 NA
ATOM     36  C   UNL     1       4.522   7.124  -2.450  0.00  0.00    +0.083 C 
ENDBRANCH  27  28
ENDBRANCH   3  27
TORSDOF 3
ENDMDL
MODEL 4
REMARK VINA RESULT:     -10.1      2.872      5.508
REMARK  Name = 
REMARK  3 active torsions:
REMARK  status: ('A' for Active; 'I' for Inactive)
REMARK    1  A    between atoms: C_2  and  C_4
REMARK    2  A    between atoms: C_15  and  O_16
REMARK    3  A    between atoms: O_16  and  C_17
REMARK                            x       y       z     vdW  Elec       q    Type
REMARK                         _______ _______ _______ _____ _____    ______ ____
ROOT
ATOM      1  C   UNL     1      -0.664   5.936  -3.097  0.00  0.00    +0.184 C 
ATOM      2  C   UNL     1       0.431   5.186  -2.641  0.00  0.00    +0.072 C 
ATOM      3  C   UNL     1       1.881   5.550  -3.345  0.00  0.00    +0.146 C 
ATOM      4  C   UNL     1       1.262   6.499  -4.543  0.00  0.00    +0.043 A 
ATOM      5  C   UNL     1       0.258   5.829  -5.244  0.00  0.00    +0.021 A 
ATOM      6  C   UNL     1       0.032   6.009  -6.606  0.00  0.00    +0.195 A 
ATOM      7  C   UNL     1       1.101   6.375  -7.375  0.00  0.00    +0.084 A 
ATOM      8  C   UNL     1       1.056   6.123  -8.824  0.00  0.00    +0.199 C 
ATOM      9  O   UNL     1      -0.026   5.850  -9.428  0.00  0.00    -0.286 OA
ATOM     10  C   UNL     1       2.303   6.149  -9.596  0.00  0.00    +0.042 A 
ATOM     11  C   UNL     1       3.470   5.935  -8.871  0.00  0.00    +0.042 A 
ATOM     12  C   UNL     1       4.534   5.247  -9.441  0.00  0.00    +0.003 A 
ATOM     13  C   UNL     1       4.584   5.295 -10.828  0.00  0.00    +0.000 A 
ATOM     14  C   UNL     1       3.420   5.428 -11.577  0.00  0.00    +0.000 A 
ATOM     15  C   UNL     1       3.576   6.543  -7.537  0.00  0.00    +0.199 C 
ATOM     16  O   UNL     1       4.601   6.322  -6.822  0.00  0.00    -0.286 OA
ATOM     17  C   UNL     1       2.332   6.047 -10.975  0.00  0.00    +0.003 A 
ATOM     18  C   UNL     1       2.327   6.588  -6.758  0.00  0.00    +0.084 A 
ATOM     19  O   UNL     1      -1.159   5.666  -7.228  0.00  0.00    -0.287 OA
ATOM     20  C   UNL     1       2.355   6.734  -5.376  0.00  0.00    +0.197 A 
ATOM     21  O   UNL     1       3.390   7.487  -4.908  0.00  0.00    -0.287 OA
ATOM     22  C   UNL     1      -0.971   5.465  -4.518  0.00  0.00    +0.067 C 
ATOM     23  O   UNL     1      -0.759   7.271  -3.067  0.00  0.00    -0.218 OA
ENDROOT
BRANCH   1  25
ATOM     24  C   UNL     1      -2.058   5.877  -0.960  0.00  0.00    +0.075 C 
ATOM     25  C   UNL     1      -1.858   5.394  -2.368  0.00  0.00    +0.179 C 
ATOM     26  O   UNL     1      -2.694   4.681  -2.863  0.00  0.00    -0.293 OA
ENDBRANCH   1  25
BRANCH   3  27
ATOM     27  O   UNL     1       2.138   6.686  -2.335  0.00  0.00    -0.328 OA
BRANCH  27  28
ATOM     28  C   UNL     1       3.487   6.004  -1.907  0.00  0.00    +0.237 C 
ATOM     29  O   UNL     1       3.055   5.642  -0.495  0.00  0.00    -0.330 OA
ATOM     30  C   UNL     1       3.164   6.709   0.553  0.00  0.00    +0.150 C 
ATOM     31  C   UNL     1       4.687   7.265   0.280  0.00  0.00    +0.035 C 
ATOM     32  C   UNL     1       2.170   7.841  -0.291  0.00  0.00    +0.196 C 
ATOM     33  O   UNL     1       2.292   8.878   0.805  0.00  0.00    -0.219 OA
ATOM     34  C   UNL     1       3.249   8.582  -1.402  0.00  0.00    +0.130 C 
ATOM     35  N   UNL     1       4.099   9.415  -0.357  0.00  0.00    -0.130 NA
ATOM     36  C   UNL     1       4.323   7.404  -1.595  0.00  0.00    +0.083 C 
ENDBRANCH  27  28
ENDBRANCH   3  27
TORSDOF 3
ENDMDL
MODEL 5
REMARK VINA RESULT:     -10.0      2.338      4.650
REMARK  Name = 
REMARK  3 active torsions:
REMARK  status: ('A' for Active; 'I' for Inactive)
REMARK    1  A    between atoms: C_2  and  C_4
REMARK    2  A    between atoms: C_15  and  O_16
REMARK    3  A    between atoms: O_16  and  C_17
REMARK                            x       y       z     vdW  Elec       q    Type
REMARK                         _______ _______ _______ _____ _____    ______ ____
ROOT
ATOM      1  C   UNL     1      -0.438   5.861  -5.875  0.00  0.00    +0.184 C 
ATOM      2  C   UNL     1       0.501   4.914  -5.438  0.00  0.00    +0.072 C 
ATOM      3  C   UNL     1       2.033   5.114  -6.025  0.00  0.00    +0.146 C 
ATOM      4  C   UNL     1       1.643   6.251  -7.154  0.00  0.00    +0.043 A 
ATOM      5  C   UNL     1       0.600   5.810  -7.970  0.00  0.00    +0.021 A 
ATOM      6  C   UNL     1       0.495   6.146  -9.317  0.00  0.00    +0.195 A 
ATOM      7  C   UNL     1       1.655   6.412  -9.989  0.00  0.00    +0.084 A 
ATOM      8  C   UNL     1       1.671   6.302 -11.455  0.00  0.00    +0.199 C 
ATOM      9  O   UNL     1       0.604   6.255 -12.140  0.00  0.00    -0.286 OA
ATOM     10  C   UNL     1       2.958   6.208 -12.154  0.00  0.00    +0.042 A 
ATOM     11  C   UNL     1       4.029   5.752 -11.394  0.00  0.00    +0.042 A 
ATOM     12  C   UNL     1       5.016   4.965 -11.974  0.00  0.00    +0.003 A 
ATOM     13  C   UNL     1       5.165   5.130 -13.344  0.00  0.00    +0.000 A 
ATOM     14  C   UNL     1       4.086   5.508 -14.135  0.00  0.00    +0.000 A 
ATOM     15  C   UNL     1       4.134   6.213 -10.002  0.00  0.00    +0.199 C 
ATOM     16  O   UNL     1       5.065   5.774  -9.260  0.00  0.00    -0.286 OA
ATOM     17  C   UNL     1       3.064   6.228 -13.534  0.00  0.00    +0.003 A 
ATOM     18  C   UNL     1       2.856   6.378  -9.290  0.00  0.00    +0.084 A 
ATOM     19  O   UNL     1      -0.688   6.048 -10.032  0.00  0.00    -0.287 OA
ATOM     20  C   UNL     1       2.812   6.392  -7.900  0.00  0.00    +0.197 A 
ATOM     21  O   UNL     1       3.913   6.931  -7.305  0.00  0.00    -0.287 OA
ATOM     22  C   UNL     1      -0.715   5.574  -7.349  0.00  0.00    +0.067 C 
ATOM     23  O   UNL     1      -0.336   7.187  -5.716  0.00  0.00    -0.218 OA
ENDROOT
BRANCH   1  25
ATOM     24  C   UNL     1      -1.839   5.516  -3.770  0.00  0.00    +0.075 C 
ATOM     25  C   UNL     1      -1.745   5.445  -5.267  0.00  0.00    +0.179 C 
ATOM     26  O   UNL     1      -2.726   5.148  -5.899  0.00  0.00    -0.293 OA
ENDBRANCH   1  25
BRANCH   3  27
ATOM     27  O   UNL     1       2.387   6.101  -4.895  0.00  0.00    -0.328 OA
BRANCH  27  28
ATOM     28  C   UNL     1       2.835   4.901  -3.984  0.00  0.00    +0.237 C 
ATOM     29  O   UNL     1       2.157   5.389  -2.714  0.00  0.00    -0.330 OA
ATOM     30  C   UNL     1       2.891   6.401  -1.887  0.00  0.00    +0.150 C 
ATOM     31  C   UNL     1       4.385   5.721  -1.807  0.00  0.00    +0.035 C 
ATOM     32  C   UNL     1       3.044   7.549  -3.167  0.00  0.00    +0.196 C 
ATOM     33  O   UNL     1       3.763   8.548  -2.286  0.00  0.00    -0.219 OA
ATOM     34  C   UNL     1       4.422   7.008  -4.038  0.00  0.00    +0.130 C 
ATOM     35  N   UNL     1       5.521   7.381  -2.960  0.00  0.00    -0.130 NA
ATOM     36  C   UNL     1       4.380   5.438  -3.702  0.00  0.00    +0.083 C 
ENDBRANCH  27  28
ENDBRANCH   3  27
TORSDOF 3
ENDMDL
MODEL 6
REMARK VINA RESULT:      -9.4      1.629      2.387
REMARK  Name = 
REMARK  3 active torsions:
REMARK  status: ('A' for Active; 'I' for Inactive)
REMARK    1  A    between atoms: C_2  and  C_4
REMARK    2  A    between atoms: C_15  and  O_16
REMARK    3  A    between atoms: O_16  and  C_17
REMARK                            x       y       z     vdW  Elec       q    Type
REMARK                         _______ _______ _______ _____ _____    ______ ____
ROOT
ATOM      1  C   UNL     1       3.142   6.321  -3.789  0.00  0.00    +0.184 C 
ATOM      2  C   UNL     1       2.140   7.284  -3.983  0.00  0.00    +0.072 C 
ATOM      3  C   UNL     1       1.116   6.996  -5.248  0.00  0.00    +0.146 C 
ATOM      4  C   UNL     1       1.993   5.765  -5.907  0.00  0.00    +0.043 A 
ATOM      5  C   UNL     1       3.318   6.149  -6.115  0.00  0.00    +0.021 A 
ATOM      6  C   UNL     1       4.085   5.689  -7.182  0.00  0.00    +0.195 A 
ATOM      7  C   UNL     1       3.422   5.334  -8.323  0.00  0.00    +0.084 A 
ATOM      8  C   UNL     1       4.159   5.303  -9.595  0.00  0.00    +0.199 C 
ATOM      9  O   UNL     1       5.427   5.308  -9.641  0.00  0.00    -0.286 OA
ATOM     10  C   UNL     1       3.412   5.303 -10.858  0.00  0.00    +0.042 A 
ATOM     11  C   UNL     1       2.117   5.805 -10.797  0.00  0.00    +0.042 A 
ATOM     12  C   UNL     1       1.588   6.512 -11.869  0.00  0.00    +0.003 A 
ATOM     13  C   UNL     1       2.152   6.213 -13.102  0.00  0.00    +0.000 A 
ATOM     14  C   UNL     1       3.472   5.785 -13.193  0.00  0.00    +0.000 A 
ATOM     15  C   UNL     1       1.304   5.477  -9.618  0.00  0.00    +0.199 C 
ATOM     16  O   UNL     1       0.138   5.964  -9.499  0.00  0.00    -0.286 OA
ATOM     17  C   UNL     1       4.023   5.148 -12.090  0.00  0.00    +0.003 A 
ATOM     18  C   UNL     1       2.035   5.409  -8.341  0.00  0.00    +0.084 A 
ATOM     19  O   UNL     1       5.470   5.744  -7.199  0.00  0.00    -0.287 OA
ATOM     20  C   UNL     1       1.363   5.528  -7.129  0.00  0.00    +0.197 A 
ATOM     21  O   UNL     1       0.097   5.024  -7.131  0.00  0.00    -0.287 OA
ATOM     22  C   UNL     1       4.140   6.472  -4.936  0.00  0.00    +0.067 C 
ATOM     23  O   UNL     1       2.934   5.014  -3.582  0.00  0.00    -0.218 OA
ENDROOT
BRANCH   1  25
ATOM     24  C   UNL     1       4.167   5.872  -1.496  0.00  0.00    +0.075 C 
ATOM     25  C   UNL     1       3.968   6.822  -2.641  0.00  0.00    +0.179 C 
ATOM     26  O   UNL     1       4.540   7.882  -2.625  0.00  0.00    -0.293 OA
ENDBRANCH   1  25
BRANCH   3  27
ATOM     27  O   UNL     1       0.206   6.113  -4.370  0.00  0.00    -0.328 OA
BRANCH  27  28
ATOM     28  C   UNL     1      -1.063   6.731  -5.060  0.00  0.00    +0.237 C 
ATOM     29  O   UNL     1      -1.170   7.952  -4.161  0.00  0.00    -0.330 OA
ATOM     30  C   UNL     1      -1.866   7.778  -2.845  0.00  0.00    +0.150 C 
ATOM     31  C   UNL     1      -3.228   6.983  -3.309  0.00  0.00    +0.035 C 
ATOM     32  C   UNL     1      -0.830   6.510  -2.300  0.00  0.00    +0.196 C 
ATOM     33  O   UNL     1      -1.552   6.388  -0.976  0.00  0.00    -0.219 OA
ATOM     34  C   UNL     1      -1.490   5.102  -3.030  0.00  0.00    +0.130 C 
ATOM     35  N   UNL     1      -2.814   5.010  -2.165  0.00  0.00    -0.130 NA
ATOM     36  C   UNL     1      -2.181   5.745  -4.330  0.00  0.00    +0.083 C 
ENDBRANCH  27  28
ENDBRANCH   3  27
TORSDOF 3
ENDMDL
MODEL 7
REMARK VINA RESULT:      -9.0      2.509      7.536
REMARK  Name = 
REMARK  3 active torsions:
REMARK  status: ('A' for Active; 'I' for Inactive)
REMARK    1  A    between atoms: C_2  and  C_4
REMARK    2  A    between atoms: C_15  and  O_16
REMARK    3  A    between atoms: O_16  and  C_17
REMARK                            x       y       z     vdW  Elec       q    Type
REMARK                         _______ _______ _______ _____ _____    ______ ____
ROOT
ATOM      1  C   UNL     1       4.956   6.071 -10.243  0.00  0.00    +0.184 C 
ATOM      2  C   UNL     1       4.074   5.091 -10.724  0.00  0.00    +0.072 C 
ATOM      3  C   UNL     1       2.496   5.276 -10.270  0.00  0.00    +0.146 C 
ATOM      4  C   UNL     1       2.772   6.454  -9.150  0.00  0.00    +0.043 A 
ATOM      5  C   UNL     1       3.752   6.059  -8.238  0.00  0.00    +0.021 A 
ATOM      6  C   UNL     1       3.740   6.436  -6.898  0.00  0.00    +0.195 A 
ATOM      7  C   UNL     1       2.524   6.697  -6.331  0.00  0.00    +0.084 A 
ATOM      8  C   UNL     1       2.391   6.630  -4.868  0.00  0.00    +0.199 C 
ATOM      9  O   UNL     1       3.399   6.626  -4.098  0.00  0.00    -0.286 OA
ATOM     10  C   UNL     1       1.054   6.528  -4.273  0.00  0.00    +0.042 A 
ATOM     11  C   UNL     1       0.057   6.028  -5.103  0.00  0.00    +0.042 A 
ATOM     12  C   UNL     1      -0.958   5.236  -4.581  0.00  0.00    +0.003 A 
ATOM     13  C   UNL     1      -1.223   5.439  -3.234  0.00  0.00    +0.000 A 
ATOM     14  C   UNL     1      -0.219   5.862  -2.369  0.00  0.00    +0.000 A 
ATOM     15  C   UNL     1       0.057   6.445  -6.512  0.00  0.00    +0.199 C 
ATOM     16  O   UNL     1      -0.801   5.964  -7.313  0.00  0.00    -0.286 OA
ATOM     17  C   UNL     1       0.835   6.586  -2.908  0.00  0.00    +0.003 A 
ATOM     18  C   UNL     1       1.386   6.616  -7.124  0.00  0.00    +0.084 A 
ATOM     19  O   UNL     1       4.863   6.384  -6.087  0.00  0.00    -0.287 OA
ATOM     20  C   UNL     1       1.542   6.590  -8.505  0.00  0.00    +0.197 A 
ATOM     21  O   UNL     1       0.484   7.089  -9.204  0.00  0.00    -0.287 OA
ATOM     22  C   UNL     1       5.117   5.833  -8.743  0.00  0.00    +0.067 C 
ATOM     23  O   UNL     1       4.843   7.389 -10.450  0.00  0.00    -0.218 OA
ENDROOT
BRANCH   1  25
ATOM     24  C   UNL     1       7.434   5.738  -9.730  0.00  0.00    +0.075 C 
ATOM     25  C   UNL     1       6.317   5.665 -10.730  0.00  0.00    +0.179 C 
ATOM     26  O   UNL     1       6.542   5.212 -11.823  0.00  0.00    -0.293 OA
ENDBRANCH   1  25
BRANCH   3  27
ATOM     27  O   UNL     1       2.217   6.221 -11.455  0.00  0.00    -0.328 OA
BRANCH  27  28
ATOM     28  C   UNL     1       0.919   5.406 -11.803  0.00  0.00    +0.237 C 
ATOM     29  O   UNL     1       1.598   4.373 -12.688  0.00  0.00    -0.330 OA
ATOM     30  C   UNL     1       1.847   4.749 -14.118  0.00  0.00    +0.150 C 
ATOM     31  C   UNL     1       0.381   5.356 -14.546  0.00  0.00    +0.035 C 
ATOM     32  C   UNL     1       2.766   6.160 -13.738  0.00  0.00    +0.196 C 
ATOM     33  O   UNL     1       3.010   6.486 -15.196  0.00  0.00    -0.219 OA
ATOM     34  C   UNL     1       1.572   7.360 -13.451  0.00  0.00    +0.130 C 
ATOM     35  N   UNL     1       1.074   7.532 -14.945  0.00  0.00    -0.130 NA
ATOM     36  C   UNL     1       0.346   6.441 -12.968  0.00  0.00    +0.083 C 
ENDBRANCH  27  28
ENDBRANCH   3  27
TORSDOF 3
ENDMDL
MODEL 8
REMARK VINA RESULT:      -8.7      3.543      9.039
REMARK  Name = 
REMARK  3 active torsions:
REMARK  status: ('A' for Active; 'I' for Inactive)
REMARK    1  A    between atoms: C_2  and  C_4
REMARK    2  A    between atoms: C_15  and  O_16
REMARK    3  A    between atoms: O_16  and  C_17
REMARK                            x       y       z     vdW  Elec       q    Type
REMARK                         _______ _______ _______ _____ _____    ______ ____
ROOT
ATOM      1  C   UNL     1      -0.191   5.404  -5.614  0.00  0.00    +0.184 C 
ATOM      2  C   UNL     1       0.253   6.576  -6.246  0.00  0.00    +0.072 C 
ATOM      3  C   UNL     1       1.686   7.180  -5.689  0.00  0.00    +0.146 C 
ATOM      4  C   UNL     1       1.786   6.206  -4.362  0.00  0.00    +0.043 A 
ATOM      5  C   UNL     1       0.619   6.276  -3.600  0.00  0.00    +0.021 A 
ATOM      6  C   UNL     1       0.610   6.171  -2.212  0.00  0.00    +0.195 A 
ATOM      7  C   UNL     1       1.735   6.568  -1.546  0.00  0.00    +0.084 A 
ATOM      8  C   UNL     1       1.633   6.929  -0.124  0.00  0.00    +0.199 C 
ATOM      9  O   UNL     1       0.623   6.619   0.580  0.00  0.00    -0.286 OA
ATOM     10  C   UNL     1       2.711   7.705   0.499  0.00  0.00    +0.042 A 
ATOM     11  C   UNL     1       3.505   8.445  -0.368  0.00  0.00    +0.042 A 
ATOM     12  C   UNL     1       4.014   9.677   0.025  0.00  0.00    +0.003 A 
ATOM     13  C   UNL     1       4.158   9.838   1.396  0.00  0.00    +0.000 A 
ATOM     14  C   UNL     1       3.320   9.168   2.282  0.00  0.00    +0.000 A 
ATOM     15  C   UNL     1       3.868   7.843  -1.659  0.00  0.00    +0.199 C 
ATOM     16  O   UNL     1       4.543   8.510  -2.501  0.00  0.00    -0.286 OA
ATOM     17  C   UNL     1       2.750   7.976   1.856  0.00  0.00    +0.003 A 
ATOM     18  C   UNL     1       2.828   7.007  -2.283  0.00  0.00    +0.084 A 
ATOM     19  O   UNL     1      -0.528   5.859  -1.483  0.00  0.00    -0.287 OA
ATOM     20  C   UNL     1       2.861   6.731  -3.646  0.00  0.00    +0.197 A 
ATOM     21  O   UNL     1       4.113   6.639  -4.175  0.00  0.00    -0.287 OA
ATOM     22  C   UNL     1      -0.635   5.793  -4.205  0.00  0.00    +0.067 C 
ATOM     23  O   UNL     1       0.493   4.255  -5.537  0.00  0.00    -0.218 OA
ENDROOT
BRANCH   1  25
ATOM     24  C   UNL     1      -2.735   5.383  -5.411  0.00  0.00    +0.075 C 
ATOM     25  C   UNL     1      -1.518   5.085  -6.238  0.00  0.00    +0.179 C 
ATOM     26  O   UNL     1      -1.663   4.696  -7.369  0.00  0.00    -0.293 OA
ENDBRANCH   1  25
BRANCH   3  27
ATOM     27  O   UNL     1       2.492   6.270  -6.637  0.00  0.00    -0.328 OA
BRANCH  27  28
ATOM     28  C   UNL     1       2.100   7.185  -7.853  0.00  0.00    +0.237 C 
ATOM     29  O   UNL     1       1.285   6.140  -8.598  0.00  0.00    -0.330 OA
ATOM     30  C   UNL     1       2.034   5.170  -9.461  0.00  0.00    +0.150 C 
ATOM     31  C   UNL     1       3.021   6.186 -10.296  0.00  0.00    +0.035 C 
ATOM     32  C   UNL     1       3.044   4.594  -8.186  0.00  0.00    +0.196 C 
ATOM     33  O   UNL     1       3.757   3.613  -9.093  0.00  0.00    -0.219 OA
ATOM     34  C   UNL     1       4.304   5.758  -8.104  0.00  0.00    +0.130 C 
ATOM     35  N   UNL     1       5.031   5.387  -9.462  0.00  0.00    -0.130 NA
ATOM     36  C   UNL     1       3.540   7.053  -8.668  0.00  0.00    +0.083 C 
ENDBRANCH  27  28
ENDBRANCH   3  27
TORSDOF 3
ENDMDL
MODEL 9
REMARK VINA RESULT:      -7.9      2.819      5.447
REMARK  Name = 
REMARK  3 active torsions:
REMARK  status: ('A' for Active; 'I' for Inactive)
REMARK    1  A    between atoms: C_2  and  C_4
REMARK    2  A    between atoms: C_15  and  O_16
REMARK    3  A    between atoms: O_16  and  C_17
REMARK                            x       y       z     vdW  Elec       q    Type
REMARK                         _______ _______ _______ _____ _____    ______ ____
ROOT
ATOM      1  C   UNL     1      -1.356   6.040  -4.394  0.00  0.00    +0.184 C 
ATOM      2  C   UNL     1      -0.532   5.230  -3.597  0.00  0.00    +0.072 C 
ATOM      3  C   UNL     1       1.087   5.538  -3.714  0.00  0.00    +0.146 C 
ATOM      4  C   UNL     1       0.984   6.536  -5.022  0.00  0.00    +0.043 A 
ATOM      5  C   UNL     1       0.280   5.928  -6.062  0.00  0.00    +0.021 A 
ATOM      6  C   UNL     1       0.573   6.144  -7.406  0.00  0.00    +0.195 A 
ATOM      7  C   UNL     1       1.862   6.472  -7.722  0.00  0.00    +0.084 A 
ATOM      8  C   UNL     1       2.338   6.248  -9.095  0.00  0.00    +0.199 C 
ATOM      9  O   UNL     1       1.542   6.039 -10.060  0.00  0.00    -0.286 OA
ATOM     10  C   UNL     1       3.781   6.229  -9.360  0.00  0.00    +0.042 A 
ATOM     11  C   UNL     1       4.595   5.947  -8.268  0.00  0.00    +0.042 A 
ATOM     12  C   UNL     1       5.766   5.219  -8.437  0.00  0.00    +0.003 A 
ATOM     13  C   UNL     1       6.320   5.290  -9.708  0.00  0.00    +0.000 A 
ATOM     14  C   UNL     1       5.515   5.492 -10.823  0.00  0.00    +0.000 A 
ATOM     15  C   UNL     1       4.231   6.524  -6.967  0.00  0.00    +0.199 C 
ATOM     16  O   UNL     1       4.915   6.242  -5.937  0.00  0.00    -0.286 OA
ATOM     17  C   UNL     1       4.307   6.151 -10.637  0.00  0.00    +0.003 A 
ATOM     18  C   UNL     1       2.786   6.615  -6.694  0.00  0.00    +0.084 A 
ATOM     19  O   UNL     1      -0.321   5.869  -8.429  0.00  0.00    -0.287 OA
ATOM     20  C   UNL     1       2.314   6.734  -5.392  0.00  0.00    +0.197 A 
ATOM     21  O   UNL     1       3.135   7.429  -4.554  0.00  0.00    -0.287 OA
ATOM     22  C   UNL     1      -1.142   5.610  -5.845  0.00  0.00    +0.067 C 
ATOM     23  O   UNL     1      -1.404   7.377  -4.355  0.00  0.00    -0.218 OA
ENDROOT
BRANCH   1  25
ATOM     24  C   UNL     1      -3.432   6.004  -2.910  0.00  0.00    +0.075 C 
ATOM     25  C   UNL     1      -2.753   5.543  -4.167  0.00  0.00    +0.179 C 
ATOM     26  O   UNL     1      -3.379   4.883  -4.958  0.00  0.00    -0.293 OA
ENDBRANCH   1  25
BRANCH   3  27
ATOM     27  O   UNL     1       1.002   6.642  -2.641  0.00  0.00    -0.328 OA
BRANCH  27  28
ATOM     28  C   UNL     1       0.318   5.631  -1.651  0.00  0.00    +0.237 C 
ATOM     29  O   UNL     1      -0.523   6.659  -0.912  0.00  0.00    -0.330 OA
ATOM     30  C   UNL     1       0.140   7.424   0.194  0.00  0.00    +0.150 C 
ATOM     31  C   UNL     1       0.867   6.208   1.028  0.00  0.00    +0.035 C 
ATOM     32  C   UNL     1       1.411   8.040  -0.799  0.00  0.00    +0.196 C 
ATOM     33  O   UNL     1       2.031   8.813   0.344  0.00  0.00    -0.219 OA
ATOM     34  C   UNL     1       2.557   6.762  -0.835  0.00  0.00    +0.130 C 
ATOM     35  N   UNL     1       3.057   6.876   0.665  0.00  0.00    -0.130 NA
ATOM     36  C   UNL     1       1.593   5.499  -0.596  0.00  0.00    +0.083 C 
ENDBRANCH  27  28
ENDBRANCH   3  27
TORSDOF 3
ENDMDL
