MODEL 1
REMARK VINA RESULT:      -3.5      0.000      0.000
REMARK  Name = 
REMARK  1 active torsions:
REMARK  status: ('A' for Active; 'I' for Inactive)
REMARK    1  A    between atoms: C_2  and  C_4
REMARK                            x       y       z     vdW  Elec       q    Type
REMARK                         _______ _______ _______ _____ _____    ______ ____
ROOT
ATOM      1  C   UNL     1       7.174   7.368 -10.960  0.00  0.00    +0.048 C 
ATOM      2  C   UNL     1       7.429   5.751 -10.730  0.00  0.00    +0.254 C 
ATOM      3  O   UNL     1       5.986   5.427 -11.096  0.00  0.00    -0.211 OA
ENDROOT
BRANCH   2   4
ATOM      4  C   UNL     1       8.004   5.575 -12.233  0.00  0.00    +0.395 C 
ATOM      5  O   UNL     1       9.374   5.856 -12.128  0.00  0.00    -0.243 OA
ATOM      6  O   UNL     1       7.712   4.602 -12.901  0.00  0.00    -0.243 OA
ENDBRANCH   2   4
TORSDOF 1
ENDMDL
MODEL 2
REMARK VINA RESULT:      -3.3      1.138      1.582
REMARK  Name = 
REMARK  1 active torsions:
REMARK  status: ('A' for Active; 'I' for Inactive)
REMARK    1  A    between atoms: C_2  and  C_4
REMARK                            x       y       z     vdW  Elec       q    Type
REMARK                         _______ _______ _______ _____ _____    ______ ____
ROOT
ATOM      1  C   UNL     1       6.769   7.743 -11.249  0.00  0.00    +0.048 C 
ATOM      2  C   UNL     1       7.790   6.446 -11.145  0.00  0.00    +0.254 C 
ATOM      3  O   UNL     1       7.074   5.928  -9.903  0.00  0.00    -0.211 OA
ENDROOT
BRANCH   2   4
ATOM      4  C   UNL     1       6.897   5.594 -12.193  0.00  0.00    +0.395 C 
ATOM      5  O   UNL     1       7.748   4.572 -12.640  0.00  0.00    -0.243 OA
ATOM      6  O   UNL     1       5.764   5.255 -11.914  0.00  0.00    -0.243 OA
ENDBRANCH   2   4
TORSDOF 1
ENDMDL
MODEL 3
REMARK VINA RESULT:      -3.3     13.019     13.564
REMARK  Name = 
REMARK  1 active torsions:
REMARK  status: ('A' for Active; 'I' for Inactive)
REMARK    1  A    between atoms: C_2  and  C_4
REMARK                            x       y       z     vdW  Elec       q    Type
REMARK                         _______ _______ _______ _____ _____    ______ ____
ROOT
ATOM      1  C   UNL     1      -2.267   7.385  -3.872  0.00  0.00    +0.048 C 
ATOM      2  C   UNL     1      -2.333   6.946  -2.279  0.00  0.00    +0.254 C 
ATOM      3  O   UNL     1      -3.842   6.750  -2.350  0.00  0.00    -0.211 OA
ENDROOT
BRANCH   2   4
ATOM      4  C   UNL     1      -1.969   5.409  -2.634  0.00  0.00    +0.395 C 
ATOM      5  O   UNL     1      -0.987   5.048  -1.699  0.00  0.00    -0.243 OA
ATOM      6  O   UNL     1      -2.847   4.590  -2.822  0.00  0.00    -0.243 OA
ENDBRANCH   2   4
TORSDOF 1
ENDMDL
MODEL 4
REMARK VINA RESULT:      -3.3     12.086     13.294
REMARK  Name = 
REMARK  1 active torsions:
REMARK  status: ('A' for Active; 'I' for Inactive)
REMARK    1  A    between atoms: C_2  and  C_4
REMARK                            x       y       z     vdW  Elec       q    Type
REMARK                         _______ _______ _______ _____ _____    ______ ____
ROOT
ATOM      1  C   UNL     1      -2.240   7.375  -4.300  0.00  0.00    +0.048 C 
ATOM      2  C   UNL     1      -2.422   5.747  -4.528  0.00  0.00    +0.254 C 
ATOM      3  O   UNL     1      -1.082   5.460  -3.862  0.00  0.00    -0.211 OA
ENDROOT
BRANCH   2   4
ATOM      4  C   UNL     1      -3.293   5.602  -3.171  0.00  0.00    +0.395 C 
ATOM      5  O   UNL     1      -2.568   4.701  -2.375  0.00  0.00    -0.243 OA
ATOM      6  O   UNL     1      -3.724   6.584  -2.601  0.00  0.00    -0.243 OA
ENDBRANCH   2   4
TORSDOF 1
ENDMDL
MODEL 5
REMARK VINA RESULT:      -3.3      1.671      1.969
REMARK  Name = 
REMARK  1 active torsions:
REMARK  status: ('A' for Active; 'I' for Inactive)
REMARK    1  A    between atoms: C_2  and  C_4
REMARK                            x       y       z     vdW  Elec       q    Type
REMARK                         _______ _______ _______ _____ _____    ______ ____
ROOT
ATOM      1  C   UNL     1       8.026   6.094 -11.369  0.00  0.00    +0.048 C 
ATOM      2  C   UNL     1       6.392   6.148 -11.622  0.00  0.00    +0.254 C 
ATOM      3  O   UNL     1       6.483   7.562 -12.183  0.00  0.00    -0.211 OA
ENDROOT
BRANCH   2   4
ATOM      4  C   UNL     1       6.538   5.412 -13.056  0.00  0.00    +0.395 C 
ATOM      5  O   UNL     1       7.715   4.655 -12.953  0.00  0.00    -0.243 OA
ATOM      6  O   UNL     1       5.589   4.848 -13.565  0.00  0.00    -0.243 OA
ENDBRANCH   2   4
TORSDOF 1
ENDMDL
MODEL 6
REMARK VINA RESULT:      -3.2      1.551      1.940
REMARK  Name = 
REMARK  1 active torsions:
REMARK  status: ('A' for Active; 'I' for Inactive)
REMARK    1  A    between atoms: C_2  and  C_4
REMARK                            x       y       z     vdW  Elec       q    Type
REMARK                         _______ _______ _______ _____ _____    ______ ____
ROOT
ATOM      1  C   UNL     1       6.446   7.022 -12.873  0.00  0.00    +0.048 C 
ATOM      2  C   UNL     1       6.006   5.696 -11.988  0.00  0.00    +0.254 C 
ATOM      3  O   UNL     1       5.673   4.911 -13.250  0.00  0.00    -0.211 OA
ENDROOT
BRANCH   2   4
ATOM      4  C   UNL     1       7.539   5.183 -11.897  0.00  0.00    +0.395 C 
ATOM      5  O   UNL     1       7.839   4.722 -13.188  0.00  0.00    -0.243 OA
ATOM      6  O   UNL     1       8.393   5.865 -11.366  0.00  0.00    -0.243 OA
ENDBRANCH   2   4
TORSDOF 1
ENDMDL
MODEL 7
REMARK VINA RESULT:      -3.2      1.341      2.735
REMARK  Name = 
REMARK  1 active torsions:
REMARK  status: ('A' for Active; 'I' for Inactive)
REMARK    1  A    between atoms: C_2  and  C_4
REMARK                            x       y       z     vdW  Elec       q    Type
REMARK                         _______ _______ _______ _____ _____    ______ ____
ROOT
ATOM      1  C   UNL     1       7.773   5.641 -10.959  0.00  0.00    +0.048 C 
ATOM      2  C   UNL     1       7.408   6.050 -12.519  0.00  0.00    +0.254 C 
ATOM      3  O   UNL     1       7.813   4.670 -13.021  0.00  0.00    -0.211 OA
ENDROOT
BRANCH   2   4
ATOM      4  C   UNL     1       5.847   5.676 -12.307  0.00  0.00    +0.395 C 
ATOM      5  O   UNL     1       5.549   4.783 -13.347  0.00  0.00    -0.243 OA
ATOM      6  O   UNL     1       5.424   5.370 -11.209  0.00  0.00    -0.243 OA
ENDBRANCH   2   4
TORSDOF 1
ENDMDL
MODEL 8
REMARK VINA RESULT:      -3.0     12.618     13.320
REMARK  Name = 
REMARK  1 active torsions:
REMARK  status: ('A' for Active; 'I' for Inactive)
REMARK    1  A    between atoms: C_2  and  C_4
REMARK                            x       y       z     vdW  Elec       q    Type
REMARK                         _______ _______ _______ _____ _____    ______ ____
ROOT
ATOM      1  C   UNL     1      -2.525   5.615  -4.410  0.00  0.00    +0.048 C 
ATOM      2  C   UNL     1      -3.260   5.959  -2.969  0.00  0.00    +0.254 C 
ATOM      3  O   UNL     1      -2.545   4.804  -2.279  0.00  0.00    -0.211 OA
ENDROOT
BRANCH   2   4
ATOM      4  C   UNL     1      -2.138   7.066  -2.602  0.00  0.00    +0.395 C 
ATOM      5  O   UNL     1      -0.930   6.352  -2.562  0.00  0.00    -0.243 OA
ATOM      6  O   UNL     1      -2.103   8.134  -3.182  0.00  0.00    -0.243 OA
ENDBRANCH   2   4
TORSDOF 1
ENDMDL
MODEL 9
REMARK VINA RESULT:      -2.7      2.119      3.037
REMARK  Name = 
REMARK  1 active torsions:
REMARK  status: ('A' for Active; 'I' for Inactive)
REMARK    1  A    between atoms: C_2  and  C_4
REMARK                            x       y       z     vdW  Elec       q    Type
REMARK                         _______ _______ _______ _____ _____    ______ ____
ROOT
ATOM      1  C   UNL     1       6.526   8.106 -11.486  0.00  0.00    +0.048 C 
ATOM      2  C   UNL     1       6.917   6.507 -11.331  0.00  0.00    +0.254 C 
ATOM      3  O   UNL     1       7.671   6.773 -10.034  0.00  0.00    -0.211 OA
ENDROOT
BRANCH   2   4
ATOM      4  C   UNL     1       5.504   6.177 -10.613  0.00  0.00    +0.395 C 
ATOM      5  O   UNL     1       4.836   7.410 -10.555  0.00  0.00    -0.243 OA
ATOM      6  O   UNL     1       4.833   5.227 -10.967  0.00  0.00    -0.243 OA
ENDBRANCH   2   4
TORSDOF 1
ENDMDL
