MODEL 1
REMARK VINA RESULT:      -7.0      0.000      0.000
REMARK  Name = 
REMARK  5 active torsions:
REMARK  status: ('A' for Active; 'I' for Inactive)
REMARK    1  A    between atoms: C_2  and  C_4
REMARK    2  A    between atoms: C_4  and  S_5
REMARK    3  A    between atoms: S_5  and  C_7
REMARK    4  A    between atoms: C_7  and  C_8
REMARK    5  A    between atoms: C_7  and  C_14
REMARK                            x       y       z     vdW  Elec       q    Type
REMARK                         _______ _______ _______ _____ _____    ______ ____
ROOT
ATOM      1  C   UNL     1       3.795   5.553 -10.104  0.00  0.00    +0.124 C 
ENDROOT
BRANCH   1   2
ATOM      2  C   UNL     1       3.251   6.023  -8.800  0.00  0.00    -0.006 A 
ATOM      3  C   UNL     1       2.812   5.051  -7.941  0.00  0.00    -0.003 A 
ATOM      4  C   UNL     1       2.060   5.318  -6.819  0.00  0.00    -0.000 A 
ATOM      5  C   UNL     1       1.703   6.635  -6.608  0.00  0.00    -0.000 A 
ATOM      6  C   UNL     1       2.086   7.644  -7.478  0.00  0.00    -0.000 A 
ATOM      7  C   UNL     1       2.824   7.309  -8.589  0.00  0.00    -0.003 A 
ENDBRANCH   1   2
BRANCH   1   8
ATOM      8  C   UNL     1       5.152   6.131 -10.238  0.00  0.00    -0.006 A 
ATOM      9  C   UNL     1       6.149   5.592  -9.439  0.00  0.00    -0.003 A 
ATOM     10  C   UNL     1       7.461   6.022  -9.528  0.00  0.00    -0.000 A 
ATOM     11  C   UNL     1       7.729   6.994 -10.479  0.00  0.00    -0.000 A 
ATOM     12  C   UNL     1       6.703   7.737 -11.005  0.00  0.00    -0.000 A 
ATOM     13  C   UNL     1       5.417   7.267 -10.973  0.00  0.00    -0.003 A 
ENDBRANCH   1   8
BRANCH   1  14
ATOM     14  S   UNL     1       2.764   6.225 -11.472  0.00  0.00    +0.059 S 
ATOM     15  O   UNL     1       3.410   5.484 -12.678  0.00  0.00    -0.255 OA
BRANCH  14  16
ATOM     16  C   UNL     1       1.215   5.285 -11.196  0.00  0.00    +0.180 C 
BRANCH  16  18
ATOM     17  N   UNL     1      -0.451   7.215 -11.350  0.00  0.00    -0.087 NA
ATOM     18  C   UNL     1       0.136   6.134 -10.688  0.00  0.00    +0.274 C 
ATOM     19  O   UNL     1      -0.282   5.880  -9.523  0.00  0.00    -0.271 OA
ENDBRANCH  16  18
ENDBRANCH  14  16
ENDBRANCH   1  14
TORSDOF 5
ENDMDL
MODEL 2
REMARK VINA RESULT:      -6.9      2.963      6.201
REMARK  Name = 
REMARK  5 active torsions:
REMARK  status: ('A' for Active; 'I' for Inactive)
REMARK    1  A    between atoms: C_2  and  C_4
REMARK    2  A    between atoms: C_4  and  S_5
REMARK    3  A    between atoms: S_5  and  C_7
REMARK    4  A    between atoms: C_7  and  C_8
REMARK    5  A    between atoms: C_7  and  C_14
REMARK                            x       y       z     vdW  Elec       q    Type
REMARK                         _______ _______ _______ _____ _____    ______ ____
ROOT
ATOM      1  C   UNL     1       0.747   4.825  -7.867  0.00  0.00    +0.124 C 
ENDROOT
BRANCH   1   2
ATOM      2  C   UNL     1       0.414   5.365  -9.214  0.00  0.00    -0.006 A 
ATOM      3  C   UNL     1       0.113   4.441 -10.180  0.00  0.00    -0.003 A 
ATOM      4  C   UNL     1       0.030   4.749 -11.519  0.00  0.00    -0.000 A 
ATOM      5  C   UNL     1       0.326   6.049 -11.879  0.00  0.00    -0.000 A 
ATOM      6  C   UNL     1       0.683   7.004 -10.940  0.00  0.00    -0.000 A 
ATOM      7  C   UNL     1       0.761   6.628  -9.618  0.00  0.00    -0.003 A 
ENDBRANCH   1   2
BRANCH   1   8
ATOM      8  C   UNL     1      -0.085   5.562  -6.889  0.00  0.00    -0.006 A 
ATOM      9  C   UNL     1      -1.454   5.347  -6.937  0.00  0.00    -0.003 A 
ATOM     10  C   UNL     1      -2.314   5.944  -6.031  0.00  0.00    -0.000 A 
ATOM     11  C   UNL     1      -1.730   6.739  -5.058  0.00  0.00    -0.000 A 
ATOM     12  C   UNL     1      -0.450   7.201  -5.229  0.00  0.00    -0.000 A 
ATOM     13  C   UNL     1       0.414   6.558  -6.077  0.00  0.00    -0.003 A 
ENDBRANCH   1   8
BRANCH   1  14
ATOM     14  S   UNL     1       2.511   5.185  -7.485  0.00  0.00    +0.059 S 
ATOM     15  O   UNL     1       2.687   4.316  -6.208  0.00  0.00    -0.255 OA
BRANCH  14  16
ATOM     16  C   UNL     1       3.330   4.182  -8.780  0.00  0.00    +0.180 C 
BRANCH  16  18
ATOM     17  N   UNL     1       5.492   5.469  -9.217  0.00  0.00    -0.087 NA
ATOM     18  C   UNL     1       4.243   4.978  -9.602  0.00  0.00    +0.274 C 
ATOM     19  O   UNL     1       3.844   5.274 -10.764  0.00  0.00    -0.271 OA
ENDBRANCH  16  18
ENDBRANCH  14  16
ENDBRANCH   1  14
TORSDOF 5
ENDMDL
MODEL 3
REMARK VINA RESULT:      -6.8      3.097      6.129
REMARK  Name = 
REMARK  5 active torsions:
REMARK  status: ('A' for Active; 'I' for Inactive)
REMARK    1  A    between atoms: C_2  and  C_4
REMARK    2  A    between atoms: C_4  and  S_5
REMARK    3  A    between atoms: S_5  and  C_7
REMARK    4  A    between atoms: C_7  and  C_8
REMARK    5  A    between atoms: C_7  and  C_14
REMARK                            x       y       z     vdW  Elec       q    Type
REMARK                         _______ _______ _______ _____ _____    ______ ____
ROOT
ATOM      1  C   UNL     1       1.640   6.832  -6.910  0.00  0.00    +0.124 C 
ENDROOT
BRANCH   1   2
ATOM      2  C   UNL     1       2.561   6.310  -5.863  0.00  0.00    -0.006 A 
ATOM      3  C   UNL     1       3.558   7.155  -5.455  0.00  0.00    -0.003 A 
ATOM      4  C   UNL     1       4.630   6.747  -4.692  0.00  0.00    -0.000 A 
ATOM      5  C   UNL     1       4.700   5.402  -4.387  0.00  0.00    -0.000 A 
ATOM      6  C   UNL     1       3.738   4.503  -4.820  0.00  0.00    -0.000 A 
ATOM      7  C   UNL     1       2.700   4.973  -5.591  0.00  0.00    -0.003 A 
ENDBRANCH   1   2
BRANCH   1   8
ATOM      8  C   UNL     1       0.262   6.525  -6.465  0.00  0.00    -0.006 A 
ATOM      9  C   UNL     1      -0.184   7.155  -5.314  0.00  0.00    -0.003 A 
ATOM     10  C   UNL     1      -1.474   6.980  -4.845  0.00  0.00    -0.000 A 
ATOM     11  C   UNL     1      -2.302   6.168  -5.605  0.00  0.00    -0.000 A 
ATOM     12  C   UNL     1      -1.760   5.307  -6.523  0.00  0.00    -0.000 A 
ATOM     13  C   UNL     1      -0.507   5.532  -7.032  0.00  0.00    -0.003 A 
ENDBRANCH   1   8
BRANCH   1  14
ATOM     14  S   UNL     1       1.934   5.928  -8.486  0.00  0.00    +0.059 S 
ATOM     15  O   UNL     1       1.136   6.836  -9.464  0.00  0.00    -0.255 OA
BRANCH  14  16
ATOM     16  C   UNL     1       3.673   6.407  -8.810  0.00  0.00    +0.180 C 
BRANCH  16  18
ATOM     17  N   UNL     1       5.964   5.278  -8.779  0.00  0.00    -0.087 NA
ATOM     18  C   UNL     1       4.569   5.249  -8.839  0.00  0.00    +0.274 C 
ATOM     19  O   UNL     1       4.024   4.116  -8.961  0.00  0.00    -0.271 OA
ENDBRANCH  16  18
ENDBRANCH  14  16
ENDBRANCH   1  14
TORSDOF 5
ENDMDL
MODEL 4
REMARK VINA RESULT:      -6.7      4.957      6.654
REMARK  Name = 
REMARK  5 active torsions:
REMARK  status: ('A' for Active; 'I' for Inactive)
REMARK    1  A    between atoms: C_2  and  C_4
REMARK    2  A    between atoms: C_4  and  S_5
REMARK    3  A    between atoms: S_5  and  C_7
REMARK    4  A    between atoms: C_7  and  C_8
REMARK    5  A    between atoms: C_7  and  C_14
REMARK                            x       y       z     vdW  Elec       q    Type
REMARK                         _______ _______ _______ _____ _____    ______ ____
ROOT
ATOM      1  C   UNL     1       1.374   6.841  -4.801  0.00  0.00    +0.124 C 
ENDROOT
BRANCH   1   2
ATOM      2  C   UNL     1      -0.038   6.467  -5.093  0.00  0.00    -0.006 A 
ATOM      3  C   UNL     1      -0.223   5.449  -5.989  0.00  0.00    -0.003 A 
ATOM      4  C   UNL     1      -1.443   5.151  -6.553  0.00  0.00    -0.000 A 
ATOM      5  C   UNL     1      -2.500   5.975  -6.220  0.00  0.00    -0.000 A 
ATOM      6  C   UNL     1      -2.347   7.047  -5.355  0.00  0.00    -0.000 A 
ATOM      7  C   UNL     1      -1.098   7.299  -4.836  0.00  0.00    -0.003 A 
ENDBRANCH   1   2
BRANCH   1   8
ATOM      8  C   UNL     1       2.116   6.753  -6.080  0.00  0.00    -0.006 A 
ATOM      9  C   UNL     1       3.234   5.933  -6.105  0.00  0.00    -0.003 A 
ATOM     10  C   UNL     1       3.963   5.738  -7.264  0.00  0.00    -0.000 A 
ATOM     11  C   UNL     1       3.498   6.378  -8.401  0.00  0.00    -0.000 A 
ATOM     12  C   UNL     1       2.620   7.425  -8.286  0.00  0.00    -0.000 A 
ATOM     13  C   UNL     1       1.851   7.566  -7.160  0.00  0.00    -0.003 A 
ENDBRANCH   1   8
BRANCH   1  14
ATOM     14  S   UNL     1       2.104   5.611  -3.644  0.00  0.00    +0.059 S 
ATOM     15  O   UNL     1       3.123   6.520  -2.901  0.00  0.00    -0.255 OA
BRANCH  14  16
ATOM     16  C   UNL     1       0.735   5.458  -2.435  0.00  0.00    +0.180 C 
BRANCH  16  18
ATOM     17  N   UNL     1       1.090   6.349  -0.068  0.00  0.00    -0.087 NA
ATOM     18  C   UNL     1       1.221   5.371  -1.057  0.00  0.00    +0.274 C 
ATOM     19  O   UNL     1       1.847   4.319  -0.744  0.00  0.00    -0.271 OA
ENDBRANCH  16  18
ENDBRANCH  14  16
ENDBRANCH   1  14
TORSDOF 5
ENDMDL
MODEL 5
REMARK VINA RESULT:      -6.6      6.185      8.295
REMARK  Name = 
REMARK  5 active torsions:
REMARK  status: ('A' for Active; 'I' for Inactive)
REMARK    1  A    between atoms: C_2  and  C_4
REMARK    2  A    between atoms: C_4  and  S_5
REMARK    3  A    between atoms: S_5  and  C_7
REMARK    4  A    between atoms: C_7  and  C_8
REMARK    5  A    between atoms: C_7  and  C_14
REMARK                            x       y       z     vdW  Elec       q    Type
REMARK                         _______ _______ _______ _____ _____    ______ ____
ROOT
ATOM      1  C   UNL     1       0.984   5.081  -3.867  0.00  0.00    +0.124 C 
ENDROOT
BRANCH   1   2
ATOM      2  C   UNL     1       2.201   5.648  -4.512  0.00  0.00    -0.006 A 
ATOM      3  C   UNL     1       3.173   4.752  -4.868  0.00  0.00    -0.003 A 
ATOM      4  C   UNL     1       4.446   5.125  -5.237  0.00  0.00    -0.000 A 
ATOM      5  C   UNL     1       4.740   6.473  -5.183  0.00  0.00    -0.000 A 
ATOM      6  C   UNL     1       3.801   7.410  -4.782  0.00  0.00    -0.000 A 
ATOM      7  C   UNL     1       2.551   6.970  -4.412  0.00  0.00    -0.003 A 
ENDBRANCH   1   2
BRANCH   1   8
ATOM      8  C   UNL     1      -0.179   5.549  -4.655  0.00  0.00    -0.006 A 
ATOM      9  C   UNL     1      -0.309   5.054  -5.944  0.00  0.00    -0.003 A 
ATOM     10  C   UNL     1      -1.390   5.385  -6.741  0.00  0.00    -0.000 A 
ATOM     11  C   UNL     1      -2.348   6.209  -6.171  0.00  0.00    -0.000 A 
ATOM     12  C   UNL     1      -2.043   6.942  -5.053  0.00  0.00    -0.000 A 
ATOM     13  C   UNL     1      -1.013   6.562  -4.233  0.00  0.00    -0.003 A 
ENDBRANCH   1   8
BRANCH   1  14
ATOM     14  S   UNL     1       0.821   5.764  -2.167  0.00  0.00    +0.059 S 
ATOM     15  O   UNL     1      -0.251   4.794  -1.594  0.00  0.00    -0.255 OA
BRANCH  14  16
ATOM     16  C   UNL     1       2.375   5.143  -1.421  0.00  0.00    +0.180 C 
BRANCH  16  18
ATOM     17  N   UNL     1       2.940   7.579  -0.904  0.00  0.00    -0.087 NA
ATOM     18  C   UNL     1       3.132   6.204  -0.755  0.00  0.00    +0.274 C 
ATOM     19  O   UNL     1       4.072   5.835   0.005  0.00  0.00    -0.271 OA
ENDBRANCH  16  18
ENDBRANCH  14  16
ENDBRANCH   1  14
TORSDOF 5
ENDMDL
MODEL 6
REMARK VINA RESULT:      -6.6      2.788      3.513
REMARK  Name = 
REMARK  5 active torsions:
REMARK  status: ('A' for Active; 'I' for Inactive)
REMARK    1  A    between atoms: C_2  and  C_4
REMARK    2  A    between atoms: C_4  and  S_5
REMARK    3  A    between atoms: S_5  and  C_7
REMARK    4  A    between atoms: C_7  and  C_8
REMARK    5  A    between atoms: C_7  and  C_14
REMARK                            x       y       z     vdW  Elec       q    Type
REMARK                         _______ _______ _______ _____ _____    ______ ____
ROOT
ATOM      1  C   UNL     1       3.584   5.082  -7.362  0.00  0.00    +0.124 C 
ENDROOT
BRANCH   1   2
ATOM      2  C   UNL     1       4.106   5.705  -6.115  0.00  0.00    -0.006 A 
ATOM      3  C   UNL     1       4.504   4.845  -5.127  0.00  0.00    -0.003 A 
ATOM      4  C   UNL     1       4.770   5.246  -3.837  0.00  0.00    -0.000 A 
ATOM      5  C   UNL     1       4.562   6.580  -3.545  0.00  0.00    -0.000 A 
ATOM      6  C   UNL     1       4.114   7.476  -4.502  0.00  0.00    -0.000 A 
ATOM      7  C   UNL     1       3.852   7.008  -5.769  0.00  0.00    -0.003 A 
ENDBRANCH   1   2
BRANCH   1   8
ATOM      8  C   UNL     1       4.372   5.638  -8.485  0.00  0.00    -0.006 A 
ATOM      9  C   UNL     1       5.718   5.308  -8.536  0.00  0.00    -0.003 A 
ATOM     10  C   UNL     1       6.529   5.730  -9.575  0.00  0.00    -0.000 A 
ATOM     11  C   UNL     1       5.917   6.471 -10.574  0.00  0.00    -0.000 A 
ATOM     12  C   UNL     1       4.701   7.060 -10.341  0.00  0.00    -0.000 A 
ATOM     13  C   UNL     1       3.877   6.587  -9.354  0.00  0.00    -0.003 A 
ENDBRANCH   1   8
BRANCH   1  14
ATOM     14  S   UNL     1       1.830   5.583  -7.607  0.00  0.00    +0.059 S 
ATOM     15  O   UNL     1       1.472   4.699  -8.834  0.00  0.00    -0.255 OA
BRANCH  14  16
ATOM     16  C   UNL     1       1.045   4.689  -6.214  0.00  0.00    +0.180 C 
BRANCH  16  18
ATOM     17  N   UNL     1      -1.370   5.226  -6.848  0.00  0.00    -0.087 NA
ATOM     18  C   UNL     1      -0.310   5.171  -5.940  0.00  0.00    +0.274 C 
ATOM     19  O   UNL     1      -0.529   5.610  -4.775  0.00  0.00    -0.271 OA
ENDBRANCH  16  18
ENDBRANCH  14  16
ENDBRANCH   1  14
TORSDOF 5
ENDMDL
MODEL 7
REMARK VINA RESULT:      -6.6      5.153      6.554
REMARK  Name = 
REMARK  5 active torsions:
REMARK  status: ('A' for Active; 'I' for Inactive)
REMARK    1  A    between atoms: C_2  and  C_4
REMARK    2  A    between atoms: C_4  and  S_5
REMARK    3  A    between atoms: S_5  and  C_7
REMARK    4  A    between atoms: C_7  and  C_8
REMARK    5  A    between atoms: C_7  and  C_14
REMARK                            x       y       z     vdW  Elec       q    Type
REMARK                         _______ _______ _______ _____ _____    ______ ____
ROOT
ATOM      1  C   UNL     1       1.079   6.769  -4.799  0.00  0.00    +0.124 C 
ENDROOT
BRANCH   1   2
ATOM      2  C   UNL     1       0.899   6.732  -6.277  0.00  0.00    -0.006 A 
ATOM      3  C   UNL     1       0.056   5.769  -6.761  0.00  0.00    -0.003 A 
ATOM      4  C   UNL     1      -0.026   5.438  -8.095  0.00  0.00    -0.000 A 
ATOM      5  C   UNL     1       0.839   6.090  -8.953  0.00  0.00    -0.000 A 
ATOM      6  C   UNL     1       1.742   7.037  -8.497  0.00  0.00    -0.000 A 
ATOM      7  C   UNL     1       1.783   7.312  -7.150  0.00  0.00    -0.003 A 
ENDBRANCH   1   2
BRANCH   1   8
ATOM      8  C   UNL     1       2.448   6.280  -4.518  0.00  0.00    -0.006 A 
ATOM      9  C   UNL     1       3.362   7.205  -4.037  0.00  0.00    -0.003 A 
ATOM     10  C   UNL     1       4.650   6.838  -3.691  0.00  0.00    -0.000 A 
ATOM     11  C   UNL     1       4.966   5.495  -3.821  0.00  0.00    -0.000 A 
ATOM     12  C   UNL     1       4.183   4.681  -4.599  0.00  0.00    -0.000 A 
ATOM     13  C   UNL     1       2.885   5.023  -4.876  0.00  0.00    -0.003 A 
ENDBRANCH   1   8
BRANCH   1  14
ATOM     14  S   UNL     1      -0.105   5.601  -4.011  0.00  0.00    +0.059 S 
ATOM     15  O   UNL     1       0.566   5.445  -2.617  0.00  0.00    -0.255 OA
BRANCH  14  16
ATOM     16  C   UNL     1      -1.499   6.740  -3.670  0.00  0.00    +0.180 C 
BRANCH  16  18
ATOM     17  N   UNL     1      -2.806   4.750  -2.744  0.00  0.00    -0.087 NA
ATOM     18  C   UNL     1      -2.532   6.116  -2.841  0.00  0.00    +0.274 C 
ATOM     19  O   UNL     1      -3.267   6.897  -2.171  0.00  0.00    -0.271 OA
ENDBRANCH  16  18
ENDBRANCH  14  16
ENDBRANCH   1  14
TORSDOF 5
ENDMDL
MODEL 8
REMARK VINA RESULT:      -6.5      4.706      7.526
REMARK  Name = 
REMARK  5 active torsions:
REMARK  status: ('A' for Active; 'I' for Inactive)
REMARK    1  A    between atoms: C_2  and  C_4
REMARK    2  A    between atoms: C_4  and  S_5
REMARK    3  A    between atoms: S_5  and  C_7
REMARK    4  A    between atoms: C_7  and  C_8
REMARK    5  A    between atoms: C_7  and  C_14
REMARK                            x       y       z     vdW  Elec       q    Type
REMARK                         _______ _______ _______ _____ _____    ______ ____
ROOT
ATOM      1  C   UNL     1       1.190   5.518  -5.186  0.00  0.00    +0.124 C 
ENDROOT
BRANCH   1   2
ATOM      2  C   UNL     1       1.951   5.928  -6.399  0.00  0.00    -0.006 A 
ATOM      3  C   UNL     1       1.781   7.222  -6.812  0.00  0.00    -0.003 A 
ATOM      4  C   UNL     1       2.204   7.686  -8.038  0.00  0.00    -0.000 A 
ATOM      5  C   UNL     1       2.774   6.760  -8.890  0.00  0.00    -0.000 A 
ATOM      6  C   UNL     1       2.921   5.430  -8.531  0.00  0.00    -0.000 A 
ATOM      7  C   UNL     1       2.464   5.028  -7.297  0.00  0.00    -0.003 A 
ENDBRANCH   1   2
BRANCH   1   8
ATOM      8  C   UNL     1      -0.216   5.931  -5.398  0.00  0.00    -0.006 A 
ATOM      9  C   UNL     1      -0.718   6.915  -4.560  0.00  0.00    -0.003 A 
ATOM     10  C   UNL     1      -2.001   7.411  -4.712  0.00  0.00    -0.000 A 
ATOM     11  C   UNL     1      -2.741   6.895  -5.764  0.00  0.00    -0.000 A 
ATOM     12  C   UNL     1      -2.365   5.715  -6.352  0.00  0.00    -0.000 A 
ATOM     13  C   UNL     1      -1.072   5.271  -6.253  0.00  0.00    -0.003 A 
ENDBRANCH   1   8
BRANCH   1  14
ATOM     14  S   UNL     1       1.829   6.437  -3.726  0.00  0.00    +0.059 S 
ATOM     15  O   UNL     1       1.699   5.331  -2.640  0.00  0.00    -0.255 OA
BRANCH  14  16
ATOM     16  C   UNL     1       3.622   6.431  -4.104  0.00  0.00    +0.180 C 
BRANCH  16  18
ATOM     17  N   UNL     1       3.971   8.323  -2.424  0.00  0.00    -0.087 NA
ATOM     18  C   UNL     1       4.301   7.620  -3.585  0.00  0.00    +0.274 C 
ATOM     19  O   UNL     1       5.259   8.070  -4.275  0.00  0.00    -0.271 OA
ENDBRANCH  16  18
ENDBRANCH  14  16
ENDBRANCH   1  14
TORSDOF 5
ENDMDL
MODEL 9
REMARK VINA RESULT:      -6.3      2.746      5.643
REMARK  Name = 
REMARK  5 active torsions:
REMARK  status: ('A' for Active; 'I' for Inactive)
REMARK    1  A    between atoms: C_2  and  C_4
REMARK    2  A    between atoms: C_4  and  S_5
REMARK    3  A    between atoms: S_5  and  C_7
REMARK    4  A    between atoms: C_7  and  C_8
REMARK    5  A    between atoms: C_7  and  C_14
REMARK                            x       y       z     vdW  Elec       q    Type
REMARK                         _______ _______ _______ _____ _____    ______ ____
ROOT
ATOM      1  C   UNL     1       2.229   6.710  -7.205  0.00  0.00    +0.124 C 
ENDROOT
BRANCH   1   2
ATOM      2  C   UNL     1       3.223   6.274  -6.186  0.00  0.00    -0.006 A 
ATOM      3  C   UNL     1       3.098   4.990  -5.727  0.00  0.00    -0.003 A 
ATOM      4  C   UNL     1       3.764   4.516  -4.619  0.00  0.00    -0.000 A 
ATOM      5  C   UNL     1       4.547   5.420  -3.928  0.00  0.00    -0.000 A 
ATOM      6  C   UNL     1       4.664   6.741  -4.330  0.00  0.00    -0.000 A 
ATOM      7  C   UNL     1       3.960   7.156  -5.437  0.00  0.00    -0.003 A 
ENDBRANCH   1   2
BRANCH   1   8
ATOM      8  C   UNL     1       0.887   6.416  -6.652  0.00  0.00    -0.006 A 
ATOM      9  C   UNL     1       0.075   5.565  -7.385  0.00  0.00    -0.003 A 
ATOM     10  C   UNL     1      -1.174   5.183  -6.928  0.00  0.00    -0.000 A 
ATOM     11  C   UNL     1      -1.553   5.670  -5.687  0.00  0.00    -0.000 A 
ATOM     12  C   UNL     1      -0.902   6.751  -5.148  0.00  0.00    -0.000 A 
ATOM     13  C   UNL     1       0.364   7.076  -5.560  0.00  0.00    -0.003 A 
ENDBRANCH   1   8
BRANCH   1  14
ATOM     14  S   UNL     1       2.438   5.704  -8.731  0.00  0.00    +0.059 S 
ATOM     15  O   UNL     1       1.848   6.688  -9.780  0.00  0.00    -0.255 OA
BRANCH  14  16
ATOM     16  C   UNL     1       4.245   5.873  -8.981  0.00  0.00    +0.180 C 
BRANCH  16  18
ATOM     17  N   UNL     1       4.611   5.335 -11.451  0.00  0.00    -0.087 NA
ATOM     18  C   UNL     1       4.583   6.212 -10.364  0.00  0.00    +0.274 C 
ATOM     19  O   UNL     1       4.911   7.412 -10.588  0.00  0.00    -0.271 OA
ENDBRANCH  16  18
ENDBRANCH  14  16
ENDBRANCH   1  14
TORSDOF 5
ENDMDL
