MODEL 1
REMARK VINA RESULT:      -6.7      0.000      0.000
REMARK  Name = 
REMARK  5 active torsions:
REMARK  status: ('A' for Active; 'I' for Inactive)
REMARK    1  A    between atoms: C_2  and  O_3
REMARK    2  A    between atoms: O_3  and  C_4
REMARK    3  A    between atoms: C_4  and  C_6
REMARK    4  A    between atoms: N_10  and  C_11
REMARK    5  A    between atoms: C_11  and  C_13
REMARK                            x       y       z     vdW  Elec       q    Type
REMARK                         _______ _______ _______ _____ _____    ______ ____
ROOT
ATOM      1  C   UNL     1       1.778   6.822  -8.674  0.00  0.00    +0.157 A 
ATOM      2  N   UNL     1       3.114   6.580  -8.690  0.00  0.00    -0.302 N 
ATOM      3  C   UNL     1       3.504   6.563  -7.461  0.00  0.00    +0.179 A 
ATOM      4  N   UNL     1       2.522   6.977  -6.622  0.00  0.00    -0.222 NA
ATOM      5  C   UNL     1       1.411   7.056  -7.354  0.00  0.00    +0.124 A 
ENDROOT
BRANCH   1   6
ATOM      6  C   UNL     1       0.762   6.434  -9.660  0.00  0.00    +0.359 C 
ATOM      7  O   UNL     1       0.075   5.415  -9.348  0.00  0.00    -0.243 OA
BRANCH   6   8
ATOM      8  O   UNL     1       0.172   7.333 -10.496  0.00  0.00    -0.444 OA
BRANCH   8  10
ATOM      9  C   UNL     1      -0.245   7.487 -12.089  0.00  0.00    +0.051 C 
ATOM     10  C   UNL     1       0.096   7.205 -11.917  0.00  0.00    +0.209 C 
ENDBRANCH   8  10
ENDBRANCH   6   8
ENDBRANCH   1   6
BRANCH   2  11
ATOM     11  C   UNL     1       3.604   5.689  -9.889  0.00  0.00    +0.110 C 
ATOM     12  C   UNL     1       4.074   4.395  -8.976  0.00  0.00    +0.029 C 
BRANCH  11  13
ATOM     13  C   UNL     1       5.080   6.344  -9.897  0.00  0.00    -0.002 A 
ATOM     14  C   UNL     1       5.212   7.403 -10.776  0.00  0.00    -0.002 A 
ATOM     15  C   UNL     1       6.499   7.668 -11.226  0.00  0.00    -0.000 A 
ATOM     16  C   UNL     1       7.581   6.915 -10.810  0.00  0.00    -0.000 A 
ATOM     17  C   UNL     1       7.410   6.064  -9.745  0.00  0.00    -0.000 A 
ATOM     18  C   UNL     1       6.122   5.603  -9.499  0.00  0.00    -0.002 A 
ENDBRANCH  11  13
ENDBRANCH   2  11
TORSDOF 5
ENDMDL
MODEL 2
REMARK VINA RESULT:      -6.5      2.243      3.875
REMARK  Name = 
REMARK  5 active torsions:
REMARK  status: ('A' for Active; 'I' for Inactive)
REMARK    1  A    between atoms: C_2  and  O_3
REMARK    2  A    between atoms: O_3  and  C_4
REMARK    3  A    between atoms: C_4  and  C_6
REMARK    4  A    between atoms: N_10  and  C_11
REMARK    5  A    between atoms: C_11  and  C_13
REMARK                            x       y       z     vdW  Elec       q    Type
REMARK                         _______ _______ _______ _____ _____    ______ ____
ROOT
ATOM      1  C   UNL     1       3.176   5.728  -7.561  0.00  0.00    +0.157 A 
ATOM      2  N   UNL     1       3.785   5.372  -8.721  0.00  0.00    -0.302 N 
ATOM      3  C   UNL     1       3.288   4.232  -9.066  0.00  0.00    +0.179 A 
ATOM      4  N   UNL     1       2.509   3.713  -8.086  0.00  0.00    -0.222 NA
ATOM      5  C   UNL     1       2.355   4.675  -7.177  0.00  0.00    +0.124 A 
ENDROOT
BRANCH   1   6
ATOM      6  C   UNL     1       2.942   7.074  -7.023  0.00  0.00    +0.359 C 
ATOM      7  O   UNL     1       1.882   7.637  -7.433  0.00  0.00    -0.243 OA
BRANCH   6   8
ATOM      8  O   UNL     1       3.408   7.468  -5.806  0.00  0.00    -0.444 OA
BRANCH   8  10
ATOM      9  C   UNL     1       4.671   7.137  -4.791  0.00  0.00    +0.051 C 
ATOM     10  C   UNL     1       4.461   6.828  -5.084  0.00  0.00    +0.209 C 
ENDBRANCH   8  10
ENDBRANCH   6   8
ENDBRANCH   1   6
BRANCH   2  11
ATOM     11  C   UNL     1       4.210   6.577  -9.636  0.00  0.00    +0.110 C 
ATOM     12  C   UNL     1       3.285   6.154 -10.938  0.00  0.00    +0.029 C 
BRANCH  11  13
ATOM     13  C   UNL     1       5.520   5.815 -10.195  0.00  0.00    -0.002 A 
ATOM     14  C   UNL     1       6.542   5.719  -9.269  0.00  0.00    -0.002 A 
ATOM     15  C   UNL     1       7.823   5.574  -9.786  0.00  0.00    -0.000 A 
ATOM     16  C   UNL     1       8.053   5.524 -11.148  0.00  0.00    -0.000 A 
ATOM     17  C   UNL     1       6.976   5.359 -11.985  0.00  0.00    -0.000 A 
ATOM     18  C   UNL     1       5.736   5.780 -11.516  0.00  0.00    -0.002 A 
ENDBRANCH  11  13
ENDBRANCH   2  11
TORSDOF 5
ENDMDL
MODEL 3
REMARK VINA RESULT:      -6.4      5.289      7.848
REMARK  Name = 
REMARK  5 active torsions:
REMARK  status: ('A' for Active; 'I' for Inactive)
REMARK    1  A    between atoms: C_2  and  O_3
REMARK    2  A    between atoms: O_3  and  C_4
REMARK    3  A    between atoms: C_4  and  C_6
REMARK    4  A    between atoms: N_10  and  C_11
REMARK    5  A    between atoms: C_11  and  C_13
REMARK                            x       y       z     vdW  Elec       q    Type
REMARK                         _______ _______ _______ _____ _____    ______ ____
ROOT
ATOM      1  C   UNL     1       2.931   6.389  -4.054  0.00  0.00    +0.157 A 
ATOM      2  N   UNL     1       1.923   6.336  -4.962  0.00  0.00    -0.302 N 
ATOM      3  C   UNL     1       2.399   6.790  -6.072  0.00  0.00    +0.179 A 
ATOM      4  N   UNL     1       3.631   7.330  -5.901  0.00  0.00    -0.222 NA
ATOM      5  C   UNL     1       4.015   7.006  -4.666  0.00  0.00    +0.124 A 
ENDROOT
BRANCH   1   6
ATOM      6  C   UNL     1       3.137   5.557  -2.862  0.00  0.00    +0.359 C 
ATOM      7  O   UNL     1       4.275   5.002  -2.788  0.00  0.00    -0.243 OA
BRANCH   6   8
ATOM      8  O   UNL     1       2.499   5.796  -1.683  0.00  0.00    -0.444 OA
BRANCH   8  10
ATOM      9  C   UNL     1       1.107   5.222  -1.000  0.00  0.00    +0.051 C 
ATOM     10  C   UNL     1       1.489   4.963  -1.113  0.00  0.00    +0.209 C 
ENDBRANCH   8  10
ENDBRANCH   6   8
ENDBRANCH   1   6
BRANCH   2  11
ATOM     11  C   UNL     1       0.900   5.164  -4.738  0.00  0.00    +0.110 C 
ATOM     12  C   UNL     1       1.189   4.391  -6.169  0.00  0.00    +0.029 C 
BRANCH  11  13
ATOM     13  C   UNL     1      -0.343   6.007  -5.332  0.00  0.00    -0.002 A 
ATOM     14  C   UNL     1      -0.656   7.130  -4.589  0.00  0.00    -0.002 A 
ATOM     15  C   UNL     1      -1.961   7.592  -4.699  0.00  0.00    -0.000 A 
ATOM     16  C   UNL     1      -2.885   6.964  -5.512  0.00  0.00    -0.000 A 
ATOM     17  C   UNL     1      -2.432   6.028  -6.411  0.00  0.00    -0.000 A 
ATOM     18  C   UNL     1      -1.236   5.386  -6.112  0.00  0.00    -0.002 A 
ENDBRANCH  11  13
ENDBRANCH   2  11
TORSDOF 5
ENDMDL
MODEL 4
REMARK VINA RESULT:      -6.4      4.142      7.462
REMARK  Name = 
REMARK  5 active torsions:
REMARK  status: ('A' for Active; 'I' for Inactive)
REMARK    1  A    between atoms: C_2  and  O_3
REMARK    2  A    between atoms: O_3  and  C_4
REMARK    3  A    between atoms: C_4  and  C_6
REMARK    4  A    between atoms: N_10  and  C_11
REMARK    5  A    between atoms: C_11  and  C_13
REMARK                            x       y       z     vdW  Elec       q    Type
REMARK                         _______ _______ _______ _____ _____    ______ ____
ROOT
ATOM      1  C   UNL     1       2.175   5.882  -6.669  0.00  0.00    +0.157 A 
ATOM      2  N   UNL     1       1.240   5.516  -5.755  0.00  0.00    -0.302 N 
ATOM      3  C   UNL     1       1.244   4.226  -5.717  0.00  0.00    +0.179 A 
ATOM      4  N   UNL     1       2.006   3.702  -6.708  0.00  0.00    -0.222 NA
ATOM      5  C   UNL     1       2.667   4.723  -7.255  0.00  0.00    +0.124 A 
ENDROOT
BRANCH   1   6
ATOM      6  C   UNL     1       2.953   7.126  -6.737  0.00  0.00    +0.359 C 
ATOM      7  O   UNL     1       2.483   8.010  -7.514  0.00  0.00    -0.243 OA
BRANCH   6   8
ATOM      8  O   UNL     1       3.714   7.571  -5.699  0.00  0.00    -0.444 OA
BRANCH   8  10
ATOM      9  C   UNL     1       4.847   7.018  -4.629  0.00  0.00    +0.051 C 
ATOM     10  C   UNL     1       4.729   6.812  -5.041  0.00  0.00    +0.209 C 
ENDBRANCH   8  10
ENDBRANCH   6   8
ENDBRANCH   1   6
BRANCH   2  11
ATOM     11  C   UNL     1       1.044   6.533  -4.573  0.00  0.00    +0.110 C 
ATOM     12  C   UNL     1       1.576   5.528  -3.375  0.00  0.00    +0.029 C 
BRANCH  11  13
ATOM     13  C   UNL     1      -0.505   6.130  -4.357  0.00  0.00    -0.002 A 
ATOM     14  C   UNL     1      -1.385   6.887  -5.110  0.00  0.00    -0.002 A 
ATOM     15  C   UNL     1      -2.682   6.980  -4.624  0.00  0.00    -0.000 A 
ATOM     16  C   UNL     1      -3.065   6.346  -3.457  0.00  0.00    -0.000 A 
ATOM     17  C   UNL     1      -2.218   5.408  -2.917  0.00  0.00    -0.000 A 
ATOM     18  C   UNL     1      -0.866   5.523  -3.220  0.00  0.00    -0.002 A 
ENDBRANCH  11  13
ENDBRANCH   2  11
TORSDOF 5
ENDMDL
MODEL 5
REMARK VINA RESULT:      -6.3      2.912      4.442
REMARK  Name = 
REMARK  5 active torsions:
REMARK  status: ('A' for Active; 'I' for Inactive)
REMARK    1  A    between atoms: C_2  and  O_3
REMARK    2  A    between atoms: O_3  and  C_4
REMARK    3  A    between atoms: C_4  and  C_6
REMARK    4  A    between atoms: N_10  and  C_11
REMARK    5  A    between atoms: C_11  and  C_13
REMARK                            x       y       z     vdW  Elec       q    Type
REMARK                         _______ _______ _______ _____ _____    ______ ____
ROOT
ATOM      1  C   UNL     1       1.276   6.094  -6.779  0.00  0.00    +0.157 A 
ATOM      2  N   UNL     1       1.793   6.269  -8.022  0.00  0.00    -0.302 N 
ATOM      3  C   UNL     1       2.882   6.946  -7.880  0.00  0.00    +0.179 A 
ATOM      4  N   UNL     1       3.020   7.404  -6.612  0.00  0.00    -0.222 NA
ATOM      5  C   UNL     1       2.073   6.805  -5.890  0.00  0.00    +0.124 A 
ENDROOT
BRANCH   1   6
ATOM      6  C   UNL     1       0.412   5.014  -6.287  0.00  0.00    +0.359 C 
ATOM      7  O   UNL     1       1.027   3.996  -5.847  0.00  0.00    -0.243 OA
BRANCH   6   8
ATOM      8  O   UNL     1      -0.829   5.243  -5.775  0.00  0.00    -0.444 OA
BRANCH   8  10
ATOM      9  C   UNL     1      -2.363   5.613  -6.269  0.00  0.00    +0.051 C 
ATOM     10  C   UNL     1      -2.007   5.472  -6.550  0.00  0.00    +0.209 C 
ENDBRANCH   8  10
ENDBRANCH   6   8
ENDBRANCH   1   6
BRANCH   2  11
ATOM     11  C   UNL     1       1.486   5.102  -9.030  0.00  0.00    +0.110 C 
ATOM     12  C   UNL     1       3.060   4.751  -9.389  0.00  0.00    +0.029 C 
BRANCH  11  13
ATOM     13  C   UNL     1       1.319   6.102 -10.287  0.00  0.00    -0.002 A 
ATOM     14  C   UNL     1       0.104   6.761 -10.313  0.00  0.00    -0.002 A 
ATOM     15  C   UNL     1      -0.326   7.201 -11.558  0.00  0.00    -0.000 A 
ATOM     16  C   UNL     1       0.427   6.994 -12.699  0.00  0.00    -0.000 A 
ATOM     17  C   UNL     1       1.728   6.576 -12.554  0.00  0.00    -0.000 A 
ATOM     18  C   UNL     1       2.048   5.888 -11.389  0.00  0.00    -0.002 A 
ENDBRANCH  11  13
ENDBRANCH   2  11
TORSDOF 5
ENDMDL
MODEL 6
REMARK VINA RESULT:      -6.1      5.476      6.251
REMARK  Name = 
REMARK  5 active torsions:
REMARK  status: ('A' for Active; 'I' for Inactive)
REMARK    1  A    between atoms: C_2  and  O_3
REMARK    2  A    between atoms: O_3  and  C_4
REMARK    3  A    between atoms: C_4  and  C_6
REMARK    4  A    between atoms: N_10  and  C_11
REMARK    5  A    between atoms: C_11  and  C_13
REMARK                            x       y       z     vdW  Elec       q    Type
REMARK                         _______ _______ _______ _____ _____    ______ ____
ROOT
ATOM      1  C   UNL     1      -0.871   6.551  -3.334  0.00  0.00    +0.157 A 
ATOM      2  N   UNL     1       0.425   6.150  -3.364  0.00  0.00    -0.302 N 
ATOM      3  C   UNL     1       0.522   5.146  -2.561  0.00  0.00    +0.179 A 
ATOM      4  N   UNL     1      -0.613   4.974  -1.841  0.00  0.00    -0.222 NA
ATOM      5  C   UNL     1      -1.524   5.786  -2.376  0.00  0.00    +0.124 A 
ENDROOT
BRANCH   1   6
ATOM      6  C   UNL     1      -1.645   7.238  -4.376  0.00  0.00    +0.359 C 
ATOM      7  O   UNL     1      -1.757   8.491  -4.221  0.00  0.00    -0.243 OA
BRANCH   6   8
ATOM      8  O   UNL     1      -1.725   6.774  -5.654  0.00  0.00    -0.444 OA
BRANCH   8  10
ATOM      9  C   UNL     1      -2.281   5.433  -6.444  0.00  0.00    +0.051 C 
ATOM     10  C   UNL     1      -2.486   5.639  -6.069  0.00  0.00    +0.209 C 
ENDBRANCH   8  10
ENDBRANCH   6   8
ENDBRANCH   1   6
BRANCH   2  11
ATOM     11  C   UNL     1       1.151   6.383  -4.739  0.00  0.00    +0.110 C 
ATOM     12  C   UNL     1       1.144   4.803  -5.220  0.00  0.00    +0.029 C 
BRANCH  11  13
ATOM     13  C   UNL     1       2.625   6.280  -4.087  0.00  0.00    -0.002 A 
ATOM     14  C   UNL     1       3.084   7.474  -3.562  0.00  0.00    -0.002 A 
ATOM     15  C   UNL     1       4.462   7.613  -3.471  0.00  0.00    -0.000 A 
ATOM     16  C   UNL     1       5.320   6.608  -3.880  0.00  0.00    -0.000 A 
ATOM     17  C   UNL     1       4.792   5.366  -4.137  0.00  0.00    -0.000 A 
ATOM     18  C   UNL     1       3.450   5.308  -4.496  0.00  0.00    -0.002 A 
ENDBRANCH  11  13
ENDBRANCH   2  11
TORSDOF 5
ENDMDL
MODEL 7
REMARK VINA RESULT:      -6.1      3.081      4.922
REMARK  Name = 
REMARK  5 active torsions:
REMARK  status: ('A' for Active; 'I' for Inactive)
REMARK    1  A    between atoms: C_2  and  O_3
REMARK    2  A    between atoms: O_3  and  C_4
REMARK    3  A    between atoms: C_4  and  C_6
REMARK    4  A    between atoms: N_10  and  C_11
REMARK    5  A    between atoms: C_11  and  C_13
REMARK                            x       y       z     vdW  Elec       q    Type
REMARK                         _______ _______ _______ _____ _____    ______ ____
ROOT
ATOM      1  C   UNL     1       1.618   5.138  -5.791  0.00  0.00    +0.157 A 
ATOM      2  N   UNL     1       1.811   5.785  -6.969  0.00  0.00    -0.302 N 
ATOM      3  C   UNL     1       0.664   5.836  -7.557  0.00  0.00    +0.179 A 
ATOM      4  N   UNL     1      -0.258   5.078  -6.914  0.00  0.00    -0.222 NA
ATOM      5  C   UNL     1       0.297   4.709  -5.760  0.00  0.00    +0.124 A 
ENDROOT
BRANCH   1   6
ATOM      6  C   UNL     1       2.379   5.259  -4.541  0.00  0.00    +0.359 C 
ATOM      7  O   UNL     1       1.686   5.537  -3.517  0.00  0.00    -0.243 OA
BRANCH   6   8
ATOM      8  O   UNL     1       3.542   4.584  -4.324  0.00  0.00    -0.444 OA
BRANCH   8  10
ATOM      9  C   UNL     1       4.958   5.412  -4.115  0.00  0.00    +0.051 C 
ATOM     10  C   UNL     1       4.734   5.156  -3.783  0.00  0.00    +0.209 C 
ENDBRANCH   8  10
ENDBRANCH   6   8
ENDBRANCH   1   6
BRANCH   2  11
ATOM     11  C   UNL     1       2.951   6.867  -6.943  0.00  0.00    +0.110 C 
ATOM     12  C   UNL     1       2.184   7.965  -7.910  0.00  0.00    +0.029 C 
BRANCH  11  13
ATOM     13  C   UNL     1       3.750   6.193  -8.175  0.00  0.00    -0.002 A 
ATOM     14  C   UNL     1       4.815   5.405  -7.780  0.00  0.00    -0.002 A 
ATOM     15  C   UNL     1       5.827   5.231  -8.715  0.00  0.00    -0.000 A 
ATOM     16  C   UNL     1       5.762   5.811  -9.968  0.00  0.00    -0.000 A 
ATOM     17  C   UNL     1       4.566   6.351 -10.375  0.00  0.00    -0.000 A 
ATOM     18  C   UNL     1       3.686   6.768  -9.382  0.00  0.00    -0.002 A 
ENDBRANCH  11  13
ENDBRANCH   2  11
TORSDOF 5
ENDMDL
MODEL 8
REMARK VINA RESULT:      -6.1      5.619      7.343
REMARK  Name = 
REMARK  5 active torsions:
REMARK  status: ('A' for Active; 'I' for Inactive)
REMARK    1  A    between atoms: C_2  and  O_3
REMARK    2  A    between atoms: O_3  and  C_4
REMARK    3  A    between atoms: C_4  and  C_6
REMARK    4  A    between atoms: N_10  and  C_11
REMARK    5  A    between atoms: C_11  and  C_13
REMARK                            x       y       z     vdW  Elec       q    Type
REMARK                         _______ _______ _______ _____ _____    ______ ____
ROOT
ATOM      1  C   UNL     1      -1.598   6.409  -2.292  0.00  0.00    +0.157 A 
ATOM      2  N   UNL     1      -0.315   6.357  -1.850  0.00  0.00    -0.302 N 
ATOM      3  C   UNL     1      -0.326   6.767  -0.627  0.00  0.00    +0.179 A 
ATOM      4  N   UNL     1      -1.535   7.277  -0.285  0.00  0.00    -0.222 NA
ATOM      5  C   UNL     1      -2.365   6.978  -1.283  0.00  0.00    +0.124 A 
ENDROOT
BRANCH   1   6
ATOM      6  C   UNL     1      -2.241   5.605  -3.338  0.00  0.00    +0.359 C 
ATOM      7  O   UNL     1      -2.930   4.628  -2.916  0.00  0.00    -0.243 OA
BRANCH   6   8
ATOM      8  O   UNL     1      -2.601   6.126  -4.544  0.00  0.00    -0.444 OA
BRANCH   8  10
ATOM      9  C   UNL     1      -2.343   5.897  -6.161  0.00  0.00    +0.051 C 
ATOM     10  C   UNL     1      -2.215   5.599  -5.814  0.00  0.00    +0.209 C 
ENDBRANCH   8  10
ENDBRANCH   6   8
ENDBRANCH   1   6
BRANCH   2  11
ATOM     11  C   UNL     1       0.556   5.221  -2.498  0.00  0.00    +0.110 C 
ATOM     12  C   UNL     1       1.616   5.063  -1.241  0.00  0.00    +0.029 C 
BRANCH  11  13
ATOM     13  C   UNL     1       1.500   6.264  -3.291  0.00  0.00    -0.002 A 
ATOM     14  C   UNL     1       1.282   6.282  -4.656  0.00  0.00    -0.002 A 
ATOM     15  C   UNL     1       2.343   6.717  -5.439  0.00  0.00    -0.000 A 
ATOM     16  C   UNL     1       3.543   7.114  -4.878  0.00  0.00    -0.000 A 
ATOM     17  C   UNL     1       3.589   7.320  -3.520  0.00  0.00    -0.000 A 
ATOM     18  C   UNL     1       2.663   6.635  -2.741  0.00  0.00    -0.002 A 
ENDBRANCH  11  13
ENDBRANCH   2  11
TORSDOF 5
ENDMDL
MODEL 9
REMARK VINA RESULT:      -6.0      3.611      7.129
REMARK  Name = 
REMARK  5 active torsions:
REMARK  status: ('A' for Active; 'I' for Inactive)
REMARK    1  A    between atoms: C_2  and  O_3
REMARK    2  A    between atoms: O_3  and  C_4
REMARK    3  A    between atoms: C_4  and  C_6
REMARK    4  A    between atoms: N_10  and  C_11
REMARK    5  A    between atoms: C_11  and  C_13
REMARK                            x       y       z     vdW  Elec       q    Type
REMARK                         _______ _______ _______ _____ _____    ______ ____
ROOT
ATOM      1  C   UNL     1       3.313   6.489  -6.562  0.00  0.00    +0.157 A 
ATOM      2  N   UNL     1       1.959   6.402  -6.591  0.00  0.00    -0.302 N 
ATOM      3  C   UNL     1       1.624   6.222  -7.824  0.00  0.00    +0.179 A 
ATOM      4  N   UNL     1       2.685   6.378  -8.654  0.00  0.00    -0.222 NA
ATOM      5  C   UNL     1       3.764   6.455  -7.876  0.00  0.00    +0.124 A 
ENDROOT
BRANCH   1   6
ATOM      6  C   UNL     1       4.231   6.162  -5.463  0.00  0.00    +0.359 C 
ATOM      7  O   UNL     1       4.593   4.948  -5.412  0.00  0.00    -0.243 OA
BRANCH   6   8
ATOM      8  O   UNL     1       5.087   7.076  -4.928  0.00  0.00    -0.444 OA
BRANCH   8  10
ATOM      9  C   UNL     1       4.731   7.688  -3.434  0.00  0.00    +0.051 C 
ATOM     10  C   UNL     1       4.785   7.941  -3.833  0.00  0.00    +0.209 C 
ENDBRANCH   8  10
ENDBRANCH   6   8
ENDBRANCH   1   6
BRANCH   2  11
ATOM     11  C   UNL     1       1.313   5.785  -5.298  0.00  0.00    +0.110 C 
ATOM     12  C   UNL     1       0.975   4.305  -5.950  0.00  0.00    +0.029 C 
BRANCH  11  13
ATOM     13  C   UNL     1      -0.153   6.376  -5.631  0.00  0.00    -0.002 A 
ATOM     14  C   UNL     1      -0.445   7.547  -4.957  0.00  0.00    -0.002 A 
ATOM     15  C   UNL     1      -1.792   7.825  -4.770  0.00  0.00    -0.000 A 
ATOM     16  C   UNL     1      -2.778   6.978  -5.239  0.00  0.00    -0.000 A 
ATOM     17  C   UNL     1      -2.420   5.986  -6.120  0.00  0.00    -0.000 A 
ATOM     18  C   UNL     1      -1.102   5.544  -6.078  0.00  0.00    -0.002 A 
ENDBRANCH  11  13
ENDBRANCH   2  11
TORSDOF 5
ENDMDL
