MODEL 1
REMARK VINA RESULT:      -4.0      0.000      0.000
REMARK  Name = 
REMARK  2 active torsions:
REMARK  status: ('A' for Active; 'I' for Inactive)
REMARK    1  A    between atoms: P_2  and  C_5
REMARK    2  A    between atoms: C_5  and  P_6
REMARK                            x       y       z     vdW  Elec       q    Type
REMARK                         _______ _______ _______ _____ _____    ______ ____
ROOT
ATOM      1  C   UNL     1       7.279   5.850 -10.490  0.00  0.00    +0.118 C 
ENDROOT
BRANCH   1   3
ATOM      2  O   UNL     1       4.969   5.678  -9.004  0.00  0.00    -0.460 OA
ATOM      3  P   UNL     1       5.488   6.069 -10.379  0.00  0.00    +0.124 P 
ATOM      4  O   UNL     1       4.680   5.162 -11.571  0.00  0.00    -0.357 OA
ATOM      5  O   UNL     1       5.182   7.710 -10.705  0.00  0.00    -0.357 OA
ENDBRANCH   1   3
BRANCH   1   6
ATOM      6  P   UNL     1       7.876   5.815 -12.183  0.00  0.00    +0.124 P 
ATOM      7  O   UNL     1       9.559   6.043 -12.281  0.00  0.00    -0.357 OA
ATOM      8  O   UNL     1       7.130   6.979 -13.145  0.00  0.00    -0.357 OA
ATOM      9  O   UNL     1       7.621   4.462 -12.827  0.00  0.00    -0.460 OA
ENDBRANCH   1   6
TORSDOF 2
ENDMDL
MODEL 2
REMARK VINA RESULT:      -3.9      2.839      4.172
REMARK  Name = 
REMARK  2 active torsions:
REMARK  status: ('A' for Active; 'I' for Inactive)
REMARK    1  A    between atoms: P_2  and  C_5
REMARK    2  A    between atoms: C_5  and  P_6
REMARK                            x       y       z     vdW  Elec       q    Type
REMARK                         _______ _______ _______ _____ _____    ______ ____
ROOT
ATOM      1  C   UNL     1       6.318   7.127 -13.592  0.00  0.00    +0.118 C 
ENDROOT
BRANCH   1   3
ATOM      2  O   UNL     1       5.118   4.653 -13.467  0.00  0.00    -0.460 OA
ATOM      3  P   UNL     1       6.254   5.470 -12.872  0.00  0.00    +0.124 P 
ATOM      4  O   UNL     1       6.078   5.539 -11.180  0.00  0.00    -0.357 OA
ATOM      5  O   UNL     1       7.760   4.747 -13.190  0.00  0.00    -0.357 OA
ENDBRANCH   1   3
BRANCH   1   6
ATOM      6  P   UNL     1       6.022   7.132 -15.363  0.00  0.00    +0.124 P 
ATOM      7  O   UNL     1       4.420   6.711 -15.754  0.00  0.00    -0.357 OA
ATOM      8  O   UNL     1       7.056   6.087 -16.185  0.00  0.00    -0.357 OA
ATOM      9  O   UNL     1       6.221   8.521 -15.949  0.00  0.00    -0.460 OA
ENDBRANCH   1   6
TORSDOF 2
ENDMDL
MODEL 3
REMARK VINA RESULT:      -3.9      0.331      3.925
REMARK  Name = 
REMARK  2 active torsions:
REMARK  status: ('A' for Active; 'I' for Inactive)
REMARK    1  A    between atoms: P_2  and  C_5
REMARK    2  A    between atoms: C_5  and  P_6
REMARK                            x       y       z     vdW  Elec       q    Type
REMARK                         _______ _______ _______ _____ _____    ______ ____
ROOT
ATOM      1  C   UNL     1       7.152   5.700 -10.588  0.00  0.00    +0.118 C 
ENDROOT
BRANCH   1   3
ATOM      2  O   UNL     1       7.560   4.496 -13.029  0.00  0.00    -0.460 OA
ATOM      3  P   UNL     1       7.831   5.780 -12.261  0.00  0.00    +0.124 P 
ATOM      4  O   UNL     1       9.507   6.083 -12.233  0.00  0.00    -0.357 OA
ATOM      5  O   UNL     1       7.094   7.113 -13.018  0.00  0.00    -0.357 OA
ENDBRANCH   1   3
BRANCH   1   6
ATOM      6  P   UNL     1       5.362   5.831 -10.552  0.00  0.00    +0.124 P 
ATOM      7  O   UNL     1       4.831   7.447 -10.573  0.00  0.00    -0.357 OA
ATOM      8  O   UNL     1       4.695   5.075  -9.203  0.00  0.00    -0.357 OA
ATOM      9  O   UNL     1       4.740   5.193 -11.784  0.00  0.00    -0.460 OA
ENDBRANCH   1   6
TORSDOF 2
ENDMDL
MODEL 4
REMARK VINA RESULT:      -3.8      1.781      2.471
REMARK  Name = 
REMARK  2 active torsions:
REMARK  status: ('A' for Active; 'I' for Inactive)
REMARK    1  A    between atoms: P_2  and  C_5
REMARK    2  A    between atoms: C_5  and  P_6
REMARK                            x       y       z     vdW  Elec       q    Type
REMARK                         _______ _______ _______ _____ _____    ______ ____
ROOT
ATOM      1  C   UNL     1       5.036   5.344 -12.202  0.00  0.00    +0.118 C 
ENDROOT
BRANCH   1   3
ATOM      2  O   UNL     1       4.434   7.122 -10.190  0.00  0.00    -0.460 OA
ATOM      3  P   UNL     1       4.018   5.781 -10.774  0.00  0.00    +0.124 P 
ATOM      4  O   UNL     1       4.103   4.584  -9.566  0.00  0.00    -0.357 OA
ATOM      5  O   UNL     1       2.409   5.826 -11.323  0.00  0.00    -0.357 OA
ENDBRANCH   1   3
BRANCH   1   6
ATOM      6  P   UNL     1       6.783   5.662 -11.941  0.00  0.00    +0.124 P 
ATOM      7  O   UNL     1       7.774   4.646 -12.879  0.00  0.00    -0.357 OA
ATOM      8  O   UNL     1       7.228   5.486 -10.326  0.00  0.00    -0.357 OA
ATOM      9  O   UNL     1       7.153   7.076 -12.362  0.00  0.00    -0.460 OA
ENDBRANCH   1   6
TORSDOF 2
ENDMDL
MODEL 5
REMARK VINA RESULT:      -3.8      1.643      4.048
REMARK  Name = 
REMARK  2 active torsions:
REMARK  status: ('A' for Active; 'I' for Inactive)
REMARK    1  A    between atoms: P_2  and  C_5
REMARK    2  A    between atoms: C_5  and  P_6
REMARK                            x       y       z     vdW  Elec       q    Type
REMARK                         _______ _______ _______ _____ _____    ______ ____
ROOT
ATOM      1  C   UNL     1       5.118   5.280 -12.245  0.00  0.00    +0.118 C 
ENDROOT
BRANCH   1   3
ATOM      2  O   UNL     1       7.166   7.108 -12.436  0.00  0.00    -0.460 OA
ATOM      3  P   UNL     1       6.707   5.757 -12.961  0.00  0.00    +0.124 P 
ATOM      4  O   UNL     1       6.630   5.804 -14.661  0.00  0.00    -0.357 OA
ATOM      5  O   UNL     1       7.811   4.531 -12.544  0.00  0.00    -0.357 OA
ENDBRANCH   1   3
BRANCH   1   6
ATOM      6  P   UNL     1       4.974   5.714 -10.509  0.00  0.00    +0.124 P 
ATOM      7  O   UNL     1       6.457   5.591  -9.685  0.00  0.00    -0.357 OA
ATOM      8  O   UNL     1       3.845   4.756  -9.706  0.00  0.00    -0.357 OA
ATOM      9  O   UNL     1       4.544   7.162 -10.339  0.00  0.00    -0.460 OA
ENDBRANCH   1   6
TORSDOF 2
ENDMDL
MODEL 6
REMARK VINA RESULT:      -3.7     10.970     12.021
REMARK  Name = 
REMARK  2 active torsions:
REMARK  status: ('A' for Active; 'I' for Inactive)
REMARK    1  A    between atoms: P_2  and  C_5
REMARK    2  A    between atoms: C_5  and  P_6
REMARK                            x       y       z     vdW  Elec       q    Type
REMARK                         _______ _______ _______ _____ _____    ______ ____
ROOT
ATOM      1  C   UNL     1      -0.293   5.951  -3.601  0.00  0.00    +0.118 C 
ENDROOT
BRANCH   1   3
ATOM      2  O   UNL     1       0.420   4.353  -1.477  0.00  0.00    -0.460 OA
ATOM      3  P   UNL     1       0.351   5.807  -1.919  0.00  0.00    +0.124 P 
ATOM      4  O   UNL     1      -0.598   6.692  -0.816  0.00  0.00    -0.357 OA
ATOM      5  O   UNL     1       1.897   6.517  -1.931  0.00  0.00    -0.357 OA
ENDBRANCH   1   3
BRANCH   1   6
ATOM      6  P   UNL     1      -2.083   5.832  -3.678  0.00  0.00    +0.124 P 
ATOM      7  O   UNL     1      -2.703   4.683  -2.587  0.00  0.00    -0.357 OA
ATOM      8  O   UNL     1      -2.629   5.440  -5.222  0.00  0.00    -0.357 OA
ATOM      9  O   UNL     1      -2.738   7.147  -3.285  0.00  0.00    -0.460 OA
ENDBRANCH   1   6
TORSDOF 2
ENDMDL
MODEL 7
REMARK VINA RESULT:      -3.7      9.053     11.193
REMARK  Name = 
REMARK  2 active torsions:
REMARK  status: ('A' for Active; 'I' for Inactive)
REMARK    1  A    between atoms: P_2  and  C_5
REMARK    2  A    between atoms: C_5  and  P_6
REMARK                            x       y       z     vdW  Elec       q    Type
REMARK                         _______ _______ _______ _____ _____    ______ ____
ROOT
ATOM      1  C   UNL     1      -0.219   5.405  -3.058  0.00  0.00    +0.118 C 
ENDROOT
BRANCH   1   3
ATOM      2  O   UNL     1       0.009   7.144  -5.179  0.00  0.00    -0.460 OA
ATOM      3  P   UNL     1       0.598   5.866  -4.603  0.00  0.00    +0.124 P 
ATOM      4  O   UNL     1       0.487   4.619  -5.756  0.00  0.00    -0.357 OA
ATOM      5  O   UNL     1       2.248   6.063  -4.236  0.00  0.00    -0.357 OA
ENDBRANCH   1   3
BRANCH   1   6
ATOM      6  P   UNL     1      -1.981   5.753  -3.068  0.00  0.00    +0.124 P 
ATOM      7  O   UNL     1      -2.705   5.390  -4.563  0.00  0.00    -0.357 OA
ATOM      8  O   UNL     1      -2.314   7.362  -2.699  0.00  0.00    -0.357 OA
ATOM      9  O   UNL     1      -2.715   4.893  -2.051  0.00  0.00    -0.460 OA
ENDBRANCH   1   6
TORSDOF 2
ENDMDL
MODEL 8
REMARK VINA RESULT:      -3.7      5.132      7.077
REMARK  Name = 
REMARK  2 active torsions:
REMARK  status: ('A' for Active; 'I' for Inactive)
REMARK    1  A    between atoms: P_2  and  C_5
REMARK    2  A    between atoms: C_5  and  P_6
REMARK                            x       y       z     vdW  Elec       q    Type
REMARK                         _______ _______ _______ _____ _____    ______ ____
ROOT
ATOM      1  C   UNL     1       1.021   5.937  -8.224  0.00  0.00    +0.118 C 
ENDROOT
BRANCH   1   3
ATOM      2  O   UNL     1       0.231   6.696  -5.699  0.00  0.00    -0.460 OA
ATOM      3  P   UNL     1       0.242   5.509  -6.650  0.00  0.00    +0.124 P 
ATOM      4  O   UNL     1       1.028   4.194  -5.908  0.00  0.00    -0.357 OA
ATOM      5  O   UNL     1      -1.341   5.005  -7.016  0.00  0.00    -0.357 OA
ENDBRANCH   1   3
BRANCH   1   6
ATOM      6  P   UNL     1       2.479   6.966  -8.027  0.00  0.00    +0.124 P 
ATOM      7  O   UNL     1       3.495   6.918  -9.390  0.00  0.00    -0.357 OA
ATOM      8  O   UNL     1       3.387   6.532  -6.677  0.00  0.00    -0.357 OA
ATOM      9  O   UNL     1       2.099   8.430  -7.866  0.00  0.00    -0.460 OA
ENDBRANCH   1   6
TORSDOF 2
ENDMDL
MODEL 9
REMARK VINA RESULT:      -3.7      1.672      4.040
REMARK  Name = 
REMARK  2 active torsions:
REMARK  status: ('A' for Active; 'I' for Inactive)
REMARK    1  A    between atoms: P_2  and  C_5
REMARK    2  A    between atoms: C_5  and  P_6
REMARK                            x       y       z     vdW  Elec       q    Type
REMARK                         _______ _______ _______ _____ _____    ______ ____
ROOT
ATOM      1  C   UNL     1       5.043   5.251 -12.242  0.00  0.00    +0.118 C 
ENDROOT
BRANCH   1   3
ATOM      2  O   UNL     1       6.513   5.746 -14.515  0.00  0.00    -0.460 OA
ATOM      3  P   UNL     1       6.625   5.684 -13.000  0.00  0.00    +0.124 P 
ATOM      4  O   UNL     1       7.842   4.575 -12.565  0.00  0.00    -0.357 OA
ATOM      5  O   UNL     1       7.072   7.194 -12.356  0.00  0.00    -0.357 OA
ENDBRANCH   1   3
BRANCH   1   6
ATOM      6  P   UNL     1       4.960   5.678 -10.500  0.00  0.00    +0.124 P 
ATOM      7  O   UNL     1       3.916   4.655  -9.630  0.00  0.00    -0.357 OA
ATOM      8  O   UNL     1       4.462   7.269 -10.257  0.00  0.00    -0.357 OA
ATOM      9  O   UNL     1       6.317   5.521  -9.831  0.00  0.00    -0.460 OA
ENDBRANCH   1   6
TORSDOF 2
ENDMDL
