MODEL 1
REMARK VINA RESULT:      -9.1      0.000      0.000
REMARK  Name = 
REMARK  6 active torsions:
REMARK  status: ('A' for Active; 'I' for Inactive)
REMARK    1  A    between atoms: O_2  and  C_3
REMARK    2  A    between atoms: C_7  and  C_8
REMARK    3  A    between atoms: C_9  and  C_10
REMARK    4  A    between atoms: C_12  and  C_13
REMARK    5  A    between atoms: C_14  and  C_15
REMARK    6  A    between atoms: C_17  and  C_18
REMARK                            x       y       z     vdW  Elec       q    Type
REMARK                         _______ _______ _______ _____ _____    ______ ____
ROOT
ATOM      1  C   UNL     1       0.072   5.347  -7.577  0.00  0.00    -0.001 C 
ATOM      2  C   UNL     1       0.851   6.235  -8.141  0.00  0.00    -0.004 C 
ENDROOT
BRANCH   1   8
ATOM      3  C   UNL     1      -0.267   5.453  -3.344  0.00  0.00    +0.134 A 
ATOM      4  C   UNL     1      -1.395   5.672  -4.125  0.00  0.00    +0.008 A 
ATOM      5  C   UNL     1      -2.745   5.771  -3.492  0.00  0.00    +0.034 C 
ATOM      6  C   UNL     1      -1.285   5.686  -5.508  0.00  0.00    -0.023 A 
ATOM      7  C   UNL     1      -2.419   6.063  -6.379  0.00  0.00    +0.031 C 
ATOM      8  C   UNL     1      -0.137   5.236  -6.128  0.00  0.00    -0.008 A 
ATOM      9  C   UNL     1       0.913   4.787  -5.335  0.00  0.00    -0.019 A 
ATOM     10  C   UNL     1       2.086   4.221  -6.023  0.00  0.00    +0.031 C 
ATOM     11  C   UNL     1       0.924   5.220  -4.017  0.00  0.00    +0.032 A 
BRANCH   3  13
ATOM     12  C   UNL     1      -0.003   5.687  -0.957  0.00  0.00    +0.252 C 
ATOM     13  O   UNL     1      -0.513   4.956  -2.065  0.00  0.00    -0.472 OA
ENDBRANCH   3  13
ENDBRANCH   1   8
BRANCH   2  14
ATOM     14  C   UNL     1       1.983   5.912  -9.018  0.00  0.00    -0.022 C 
ATOM     15  C   UNL     1       2.937   6.833  -9.154  0.00  0.00    -0.004 C 
ATOM     16  C   UNL     1       2.207   4.578  -9.599  0.00  0.00    +0.031 C 
BRANCH  15  17
ATOM     17  C   UNL     1       4.340   6.452  -9.356  0.00  0.00    -0.001 C 
ATOM     18  C   UNL     1       5.033   6.933 -10.378  0.00  0.00    -0.004 C 
BRANCH  18  19
ATOM     19  C   UNL     1       6.427   6.491 -10.473  0.00  0.00    -0.015 C 
ATOM     20  C   UNL     1       7.029   6.543 -11.640  0.00  0.00    +0.082 C 
ATOM     21  C   UNL     1       7.089   5.700  -9.398  0.00  0.00    +0.031 C 
BRANCH  20  22
ATOM     22  C   UNL     1       8.015   5.557 -12.080  0.00  0.00    +0.388 C 
ATOM     23  O   UNL     1       7.559   4.611 -13.003  0.00  0.00    -0.241 OA
ATOM     24  O   UNL     1       9.198   5.965 -12.284  0.00  0.00    -0.241 OA
ENDBRANCH  20  22
ENDBRANCH  18  19
ENDBRANCH  15  17
ENDBRANCH   2  14
TORSDOF 6
ENDMDL
MODEL 2
REMARK VINA RESULT:      -8.6      1.925      9.517
REMARK  Name = 
REMARK  6 active torsions:
REMARK  status: ('A' for Active; 'I' for Inactive)
REMARK    1  A    between atoms: O_2  and  C_3
REMARK    2  A    between atoms: C_7  and  C_8
REMARK    3  A    between atoms: C_9  and  C_10
REMARK    4  A    between atoms: C_12  and  C_13
REMARK    5  A    between atoms: C_14  and  C_15
REMARK    6  A    between atoms: C_17  and  C_18
REMARK                            x       y       z     vdW  Elec       q    Type
REMARK                         _______ _______ _______ _____ _____    ______ ____
ROOT
ATOM      1  C   UNL     1       4.508   5.165  -7.831  0.00  0.00    -0.001 C 
ATOM      2  C   UNL     1       4.164   6.111  -6.994  0.00  0.00    -0.004 C 
ENDROOT
BRANCH   1   8
ATOM      3  C   UNL     1       4.734   6.187 -11.948  0.00  0.00    +0.134 A 
ATOM      4  C   UNL     1       5.906   6.016 -11.222  0.00  0.00    +0.008 A 
ATOM      5  C   UNL     1       7.230   6.017 -11.913  0.00  0.00    +0.034 C 
ATOM      6  C   UNL     1       5.842   5.727  -9.867  0.00  0.00    -0.023 A 
ATOM      7  C   UNL     1       7.052   5.685  -9.017  0.00  0.00    +0.031 C 
ATOM      8  C   UNL     1       4.648   5.357  -9.280  0.00  0.00    -0.008 A 
ATOM      9  C   UNL     1       3.509   5.299 -10.075  0.00  0.00    -0.019 A 
ATOM     10  C   UNL     1       2.271   4.806  -9.446  0.00  0.00    +0.031 C 
ATOM     11  C   UNL     1       3.540   6.020 -11.259  0.00  0.00    +0.032 A 
BRANCH   3  13
ATOM     12  C   UNL     1       3.673   5.564 -14.024  0.00  0.00    +0.252 C 
ATOM     13  O   UNL     1       4.842   5.965 -13.320  0.00  0.00    -0.472 OA
ENDBRANCH   3  13
ENDBRANCH   1   8
BRANCH   2  14
ATOM     14  C   UNL     1       3.002   6.050  -6.099  0.00  0.00    -0.022 C 
ATOM     15  C   UNL     1       1.992   6.885  -6.345  0.00  0.00    -0.004 C 
ATOM     16  C   UNL     1       2.818   5.007  -5.076  0.00  0.00    +0.031 C 
BRANCH  15  17
ATOM     17  C   UNL     1       0.603   6.501  -6.066  0.00  0.00    -0.001 C 
ATOM     18  C   UNL     1      -0.121   7.176  -5.185  0.00  0.00    -0.004 C 
BRANCH  18  19
ATOM     19  C   UNL     1      -1.498   6.711  -4.995  0.00  0.00    -0.015 C 
ATOM     20  C   UNL     1      -2.053   6.842  -3.811  0.00  0.00    +0.082 C 
ATOM     21  C   UNL     1      -2.181   5.820  -5.974  0.00  0.00    +0.031 C 
BRANCH  20  22
ATOM     22  C   UNL     1      -2.993   5.872  -3.252  0.00  0.00    +0.388 C 
ATOM     23  O   UNL     1      -2.420   4.773  -2.605  0.00  0.00    -0.241 OA
ATOM     24  O   UNL     1      -4.038   6.326  -2.695  0.00  0.00    -0.241 OA
ENDBRANCH  20  22
ENDBRANCH  18  19
ENDBRANCH  15  17
ENDBRANCH   2  14
TORSDOF 6
ENDMDL
MODEL 3
REMARK VINA RESULT:      -8.5      0.791      2.064
REMARK  Name = 
REMARK  6 active torsions:
REMARK  status: ('A' for Active; 'I' for Inactive)
REMARK    1  A    between atoms: O_2  and  C_3
REMARK    2  A    between atoms: C_7  and  C_8
REMARK    3  A    between atoms: C_9  and  C_10
REMARK    4  A    between atoms: C_12  and  C_13
REMARK    5  A    between atoms: C_14  and  C_15
REMARK    6  A    between atoms: C_17  and  C_18
REMARK                            x       y       z     vdW  Elec       q    Type
REMARK                         _______ _______ _______ _____ _____    ______ ____
ROOT
ATOM      1  C   UNL     1       0.126   5.358  -7.173  0.00  0.00    -0.001 C 
ATOM      2  C   UNL     1       0.876   6.117  -7.933  0.00  0.00    -0.004 C 
ENDROOT
BRANCH   1   8
ATOM      3  C   UNL     1      -0.647   5.513  -2.999  0.00  0.00    +0.134 A 
ATOM      4  C   UNL     1       0.666   5.441  -3.448  0.00  0.00    +0.008 A 
ATOM      5  C   UNL     1       1.802   5.592  -2.489  0.00  0.00    +0.034 C 
ATOM      6  C   UNL     1       0.926   5.343  -4.807  0.00  0.00    -0.023 A 
ATOM      7  C   UNL     1       2.291   5.111  -5.328  0.00  0.00    +0.031 C 
ATOM      8  C   UNL     1      -0.070   5.571  -5.734  0.00  0.00    -0.008 A 
ATOM      9  C   UNL     1      -1.345   5.883  -5.274  0.00  0.00    -0.019 A 
ATOM     10  C   UNL     1      -2.365   6.220  -6.283  0.00  0.00    +0.031 C 
ATOM     11  C   UNL     1      -1.640   5.518  -3.968  0.00  0.00    +0.032 A 
BRANCH   3  13
ATOM     12  C   UNL     1      -1.815   7.112  -1.620  0.00  0.00    +0.252 C 
ATOM     13  O   UNL     1      -0.819   6.105  -1.748  0.00  0.00    -0.472 OA
ENDBRANCH   3  13
ENDBRANCH   1   8
BRANCH   2  14
ATOM     14  C   UNL     1       2.011   5.635  -8.729  0.00  0.00    -0.022 C 
ATOM     15  C   UNL     1       2.853   6.549  -9.213  0.00  0.00    -0.004 C 
ATOM     16  C   UNL     1       2.366   4.213  -8.863  0.00  0.00    +0.031 C 
BRANCH  15  17
ATOM     17  C   UNL     1       4.283   6.259  -9.368  0.00  0.00    -0.001 C 
ATOM     18  C   UNL     1       4.960   6.727 -10.407  0.00  0.00    -0.004 C 
BRANCH  18  19
ATOM     19  C   UNL     1       6.384   6.382 -10.453  0.00  0.00    -0.015 C 
ATOM     20  C   UNL     1       7.018   6.463 -11.601  0.00  0.00    +0.082 C 
ATOM     21  C   UNL     1       7.065   5.652  -9.347  0.00  0.00    +0.031 C 
BRANCH  20  22
ATOM     22  C   UNL     1       8.084   5.543 -11.997  0.00  0.00    +0.388 C 
ATOM     23  O   UNL     1       7.751   4.619 -12.992  0.00  0.00    -0.241 OA
ATOM     24  O   UNL     1       9.258   6.014 -12.086  0.00  0.00    -0.241 OA
ENDBRANCH  20  22
ENDBRANCH  18  19
ENDBRANCH  15  17
ENDBRANCH   2  14
TORSDOF 6
ENDMDL
MODEL 4
REMARK VINA RESULT:      -8.2      1.164      1.584
REMARK  Name = 
REMARK  6 active torsions:
REMARK  status: ('A' for Active; 'I' for Inactive)
REMARK    1  A    between atoms: O_2  and  C_3
REMARK    2  A    between atoms: C_7  and  C_8
REMARK    3  A    between atoms: C_9  and  C_10
REMARK    4  A    between atoms: C_12  and  C_13
REMARK    5  A    between atoms: C_14  and  C_15
REMARK    6  A    between atoms: C_17  and  C_18
REMARK                            x       y       z     vdW  Elec       q    Type
REMARK                         _______ _______ _______ _____ _____    ______ ____
ROOT
ATOM      1  C   UNL     1      -0.148   5.093  -7.641  0.00  0.00    -0.001 C 
ATOM      2  C   UNL     1      -0.236   6.195  -8.343  0.00  0.00    -0.004 C 
ENDROOT
BRANCH   1   8
ATOM      3  C   UNL     1      -0.067   5.383  -3.404  0.00  0.00    +0.134 A 
ATOM      4  C   UNL     1      -1.274   5.535  -4.076  0.00  0.00    +0.008 A 
ATOM      5  C   UNL     1      -2.557   5.624  -3.315  0.00  0.00    +0.034 C 
ATOM      6  C   UNL     1      -1.302   5.488  -5.462  0.00  0.00    -0.023 A 
ATOM      7  C   UNL     1      -2.529   5.793  -6.230  0.00  0.00    +0.031 C 
ATOM      8  C   UNL     1      -0.208   5.042  -6.175  0.00  0.00    -0.008 A 
ATOM      9  C   UNL     1       0.930   4.660  -5.473  0.00  0.00    -0.019 A 
ATOM     10  C   UNL     1       2.046   4.095  -6.251  0.00  0.00    +0.031 C 
ATOM     11  C   UNL     1       1.059   5.153  -4.183  0.00  0.00    +0.032 A 
BRANCH   3  13
ATOM     12  C   UNL     1       0.989   5.022  -1.265  0.00  0.00    +0.252 C 
ATOM     13  O   UNL     1      -0.168   4.938  -2.086  0.00  0.00    -0.472 OA
ENDBRANCH   3  13
ENDBRANCH   1   8
BRANCH   2  14
ATOM     14  C   UNL     1       0.784   6.663  -9.289  0.00  0.00    -0.022 C 
ATOM     15  C   UNL     1       2.011   6.877  -8.813  0.00  0.00    -0.004 C 
ATOM     16  C   UNL     1       0.574   6.730 -10.744  0.00  0.00    +0.031 C 
BRANCH  15  17
ATOM     17  C   UNL     1       3.200   6.644  -9.642  0.00  0.00    -0.001 C 
ATOM     18  C   UNL     1       3.993   5.608  -9.412  0.00  0.00    -0.004 C 
BRANCH  18  19
ATOM     19  C   UNL     1       5.144   5.470 -10.309  0.00  0.00    -0.015 C 
ATOM     20  C   UNL     1       6.352   5.641  -9.820  0.00  0.00    +0.082 C 
ATOM     21  C   UNL     1       5.004   5.458 -11.792  0.00  0.00    +0.031 C 
BRANCH  20  22
ATOM     22  C   UNL     1       7.446   6.249 -10.575  0.00  0.00    +0.388 C 
ATOM     23  O   UNL     1       7.817   7.537 -10.177  0.00  0.00    -0.241 OA
ATOM     24  O   UNL     1       8.414   5.500 -10.906  0.00  0.00    -0.241 OA
ENDBRANCH  20  22
ENDBRANCH  18  19
ENDBRANCH  15  17
ENDBRANCH   2  14
TORSDOF 6
ENDMDL
MODEL 5
REMARK VINA RESULT:      -8.1      2.899      8.841
REMARK  Name = 
REMARK  6 active torsions:
REMARK  status: ('A' for Active; 'I' for Inactive)
REMARK    1  A    between atoms: O_2  and  C_3
REMARK    2  A    between atoms: C_7  and  C_8
REMARK    3  A    between atoms: C_9  and  C_10
REMARK    4  A    between atoms: C_12  and  C_13
REMARK    5  A    between atoms: C_14  and  C_15
REMARK    6  A    between atoms: C_17  and  C_18
REMARK                            x       y       z     vdW  Elec       q    Type
REMARK                         _______ _______ _______ _____ _____    ______ ____
ROOT
ATOM      1  C   UNL     1       2.775   4.964  -8.859  0.00  0.00    -0.001 C 
ATOM      2  C   UNL     1       3.225   5.579  -7.794  0.00  0.00    -0.004 C 
ENDROOT
BRANCH   1   8
ATOM      3  C   UNL     1       1.348   6.490 -12.557  0.00  0.00    +0.134 A 
ATOM      4  C   UNL     1       0.534   6.553 -11.433  0.00  0.00    +0.008 A 
ATOM      5  C   UNL     1      -0.758   7.304 -11.476  0.00  0.00    +0.034 C 
ATOM      6  C   UNL     1       0.973   6.016 -10.232  0.00  0.00    -0.023 A 
ATOM      7  C   UNL     1       0.092   5.920  -9.049  0.00  0.00    +0.031 C 
ATOM      8  C   UNL     1       2.293   5.650 -10.065  0.00  0.00    -0.008 A 
ATOM      9  C   UNL     1       3.168   5.815 -11.133  0.00  0.00    -0.019 A 
ATOM     10  C   UNL     1       4.590   5.510 -10.896  0.00  0.00    +0.031 C 
ATOM     11  C   UNL     1       2.597   5.908 -12.394  0.00  0.00    +0.032 A 
BRANCH   3  13
ATOM     12  C   UNL     1       0.968   7.014 -14.882  0.00  0.00    +0.252 C 
ATOM     13  O   UNL     1       1.093   7.452 -13.535  0.00  0.00    -0.472 OA
ENDBRANCH   3  13
ENDBRANCH   1   8
BRANCH   2  14
ATOM     14  C   UNL     1       2.672   5.418  -6.444  0.00  0.00    -0.022 C 
ATOM     15  C   UNL     1       2.443   6.525  -5.739  0.00  0.00    -0.004 C 
ATOM     16  C   UNL     1       2.194   4.132  -5.909  0.00  0.00    +0.031 C 
BRANCH  15  17
ATOM     17  C   UNL     1       1.327   6.604  -4.788  0.00  0.00    -0.001 C 
ATOM     18  C   UNL     1       0.109   6.924  -5.198  0.00  0.00    -0.004 C 
BRANCH  18  19
ATOM     19  C   UNL     1      -0.928   6.963  -4.163  0.00  0.00    -0.015 C 
ATOM     20  C   UNL     1      -1.090   5.912  -3.391  0.00  0.00    +0.082 C 
ATOM     21  C   UNL     1      -2.003   7.993  -4.149  0.00  0.00    +0.031 C 
BRANCH  20  22
ATOM     22  C   UNL     1      -2.393   5.477  -2.890  0.00  0.00    +0.388 C 
ATOM     23  O   UNL     1      -3.193   4.782  -3.802  0.00  0.00    -0.241 OA
ATOM     24  O   UNL     1      -2.445   5.037  -1.702  0.00  0.00    -0.241 OA
ENDBRANCH  20  22
ENDBRANCH  18  19
ENDBRANCH  15  17
ENDBRANCH   2  14
TORSDOF 6
ENDMDL
MODEL 6
REMARK VINA RESULT:      -8.1      1.597      9.539
REMARK  Name = 
REMARK  6 active torsions:
REMARK  status: ('A' for Active; 'I' for Inactive)
REMARK    1  A    between atoms: O_2  and  C_3
REMARK    2  A    between atoms: C_7  and  C_8
REMARK    3  A    between atoms: C_9  and  C_10
REMARK    4  A    between atoms: C_12  and  C_13
REMARK    5  A    between atoms: C_14  and  C_15
REMARK    6  A    between atoms: C_17  and  C_18
REMARK                            x       y       z     vdW  Elec       q    Type
REMARK                         _______ _______ _______ _____ _____    ______ ____
ROOT
ATOM      1  C   UNL     1       2.915   6.071  -9.179  0.00  0.00    -0.001 C 
ATOM      2  C   UNL     1       2.374   5.067  -8.537  0.00  0.00    -0.004 C 
ENDROOT
BRANCH   1   8
ATOM      3  C   UNL     1       6.485   6.302 -11.470  0.00  0.00    +0.134 A 
ATOM      4  C   UNL     1       6.547   5.873 -10.149  0.00  0.00    +0.008 A 
ATOM      5  C   UNL     1       7.823   5.333  -9.590  0.00  0.00    +0.034 C 
ATOM      6  C   UNL     1       5.394   5.839  -9.380  0.00  0.00    -0.023 A 
ATOM      7  C   UNL     1       5.428   5.538  -7.932  0.00  0.00    +0.031 C 
ATOM      8  C   UNL     1       4.152   5.976  -9.965  0.00  0.00    -0.008 A 
ATOM      9  C   UNL     1       4.084   6.168 -11.340  0.00  0.00    -0.019 A 
ATOM     10  C   UNL     1       2.744   6.213 -11.952  0.00  0.00    +0.031 C 
ATOM     11  C   UNL     1       5.231   6.644 -11.958  0.00  0.00    +0.032 A 
BRANCH   3  13
ATOM     12  C   UNL     1       7.158   5.368 -13.591  0.00  0.00    +0.252 C 
ATOM     13  O   UNL     1       7.510   5.842 -12.296  0.00  0.00    -0.472 OA
ENDBRANCH   3  13
ENDBRANCH   1   8
BRANCH   2  14
ATOM     14  C   UNL     1       2.099   5.051  -7.095  0.00  0.00    -0.022 C 
ATOM     15  C   UNL     1       1.942   6.227  -6.487  0.00  0.00    -0.004 C 
ATOM     16  C   UNL     1       1.809   3.823  -6.336  0.00  0.00    +0.031 C 
BRANCH  15  17
ATOM     17  C   UNL     1       1.024   6.379  -5.351  0.00  0.00    -0.001 C 
ATOM     18  C   UNL     1      -0.249   6.691  -5.546  0.00  0.00    -0.004 C 
BRANCH  18  19
ATOM     19  C   UNL     1      -1.073   6.807  -4.340  0.00  0.00    -0.015 C 
ATOM     20  C   UNL     1      -1.229   5.749  -3.576  0.00  0.00    +0.082 C 
ATOM     21  C   UNL     1      -1.988   7.959  -4.106  0.00  0.00    +0.031 C 
BRANCH  20  22
ATOM     22  C   UNL     1      -2.468   5.453  -2.858  0.00  0.00    +0.388 C 
ATOM     23  O   UNL     1      -3.478   4.847  -3.612  0.00  0.00    -0.241 OA
ATOM     24  O   UNL     1      -2.366   5.019  -1.671  0.00  0.00    -0.241 OA
ENDBRANCH  20  22
ENDBRANCH  18  19
ENDBRANCH  15  17
ENDBRANCH   2  14
TORSDOF 6
ENDMDL
MODEL 7
REMARK VINA RESULT:      -8.0      1.987      8.896
REMARK  Name = 
REMARK  6 active torsions:
REMARK  status: ('A' for Active; 'I' for Inactive)
REMARK    1  A    between atoms: O_2  and  C_3
REMARK    2  A    between atoms: C_7  and  C_8
REMARK    3  A    between atoms: C_9  and  C_10
REMARK    4  A    between atoms: C_12  and  C_13
REMARK    5  A    between atoms: C_14  and  C_15
REMARK    6  A    between atoms: C_17  and  C_18
REMARK                            x       y       z     vdW  Elec       q    Type
REMARK                         _______ _______ _______ _____ _____    ______ ____
ROOT
ATOM      1  C   UNL     1       2.472   6.477 -12.136  0.00  0.00    -0.001 C 
ATOM      2  C   UNL     1       1.476   5.630 -12.069  0.00  0.00    -0.004 C 
ENDROOT
BRANCH   1   8
ATOM      3  C   UNL     1       6.645   5.913 -11.575  0.00  0.00    +0.134 A 
ATOM      4  C   UNL     1       5.808   5.966 -10.467  0.00  0.00    +0.008 A 
ATOM      5  C   UNL     1       6.337   5.655  -9.105  0.00  0.00    +0.034 C 
ATOM      6  C   UNL     1       4.451   6.196 -10.638  0.00  0.00    -0.023 A 
ATOM      7  C   UNL     1       3.544   6.413  -9.490  0.00  0.00    +0.031 C 
ATOM      8  C   UNL     1       3.875   6.121 -11.890  0.00  0.00    -0.008 A 
ATOM      9  C   UNL     1       4.690   5.827 -12.978  0.00  0.00    -0.019 A 
ATOM     10  C   UNL     1       4.034   5.654 -14.286  0.00  0.00    +0.031 C 
ATOM     11  C   UNL     1       6.047   6.063 -12.819  0.00  0.00    +0.032 A 
BRANCH   3  13
ATOM     12  C   UNL     1       9.006   5.696 -12.022  0.00  0.00    +0.252 C 
ATOM     13  O   UNL     1       7.829   5.199 -11.396  0.00  0.00    -0.472 OA
ENDBRANCH   3  13
ENDBRANCH   1   8
BRANCH   2  14
ATOM     14  C   UNL     1       0.311   5.783 -11.189  0.00  0.00    -0.022 C 
ATOM     15  C   UNL     1       0.172   4.902 -10.197  0.00  0.00    -0.004 C 
ATOM     16  C   UNL     1      -0.593   6.944 -11.230  0.00  0.00    +0.031 C 
BRANCH  15  17
ATOM     17  C   UNL     1      -0.430   5.290  -8.916  0.00  0.00    -0.001 C 
ATOM     18  C   UNL     1       0.325   5.478  -7.843  0.00  0.00    -0.004 C 
BRANCH  18  19
ATOM     19  C   UNL     1      -0.383   5.872  -6.621  0.00  0.00    -0.015 C 
ATOM     20  C   UNL     1       0.319   6.157  -5.547  0.00  0.00    +0.082 C 
ATOM     21  C   UNL     1      -1.847   5.663  -6.445  0.00  0.00    +0.031 C 
BRANCH  20  22
ATOM     22  C   UNL     1      -0.129   5.848  -4.190  0.00  0.00    +0.388 C 
ATOM     23  O   UNL     1       0.749   5.077  -3.422  0.00  0.00    -0.241 OA
ATOM     24  O   UNL     1      -0.725   6.765  -3.549  0.00  0.00    -0.241 OA
ENDBRANCH  20  22
ENDBRANCH  18  19
ENDBRANCH  15  17
ENDBRANCH   2  14
TORSDOF 6
ENDMDL
MODEL 8
REMARK VINA RESULT:      -7.9      1.980      9.071
REMARK  Name = 
REMARK  6 active torsions:
REMARK  status: ('A' for Active; 'I' for Inactive)
REMARK    1  A    between atoms: O_2  and  C_3
REMARK    2  A    between atoms: C_7  and  C_8
REMARK    3  A    between atoms: C_9  and  C_10
REMARK    4  A    between atoms: C_12  and  C_13
REMARK    5  A    between atoms: C_14  and  C_15
REMARK    6  A    between atoms: C_17  and  C_18
REMARK                            x       y       z     vdW  Elec       q    Type
REMARK                         _______ _______ _______ _____ _____    ______ ____
ROOT
ATOM      1  C   UNL     1       4.362   5.273  -7.695  0.00  0.00    -0.001 C 
ATOM      2  C   UNL     1       4.012   6.116  -6.756  0.00  0.00    -0.004 C 
ENDROOT
BRANCH   1   8
ATOM      3  C   UNL     1       4.333   5.657 -11.926  0.00  0.00    +0.134 A 
ATOM      4  C   UNL     1       3.141   5.773 -11.221  0.00  0.00    +0.008 A 
ATOM      5  C   UNL     1       1.890   6.202 -11.918  0.00  0.00    +0.034 C 
ATOM      6  C   UNL     1       3.133   5.604  -9.845  0.00  0.00    -0.023 A 
ATOM      7  C   UNL     1       1.876   5.567  -9.067  0.00  0.00    +0.031 C 
ATOM      8  C   UNL     1       4.315   5.574  -9.132  0.00  0.00    -0.008 A 
ATOM      9  C   UNL     1       5.512   5.700  -9.827  0.00  0.00    -0.019 A 
ATOM     10  C   UNL     1       6.752   5.766  -9.033  0.00  0.00    +0.031 C 
ATOM     11  C   UNL     1       5.478   5.405 -11.182  0.00  0.00    +0.032 A 
BRANCH   3  13
ATOM     12  C   UNL     1       5.338   5.898 -14.106  0.00  0.00    +0.252 C 
ATOM     13  O   UNL     1       4.369   6.317 -13.153  0.00  0.00    -0.472 OA
ENDBRANCH   3  13
ENDBRANCH   1   8
BRANCH   2  14
ATOM     14  C   UNL     1       2.974   5.859  -5.751  0.00  0.00    -0.022 C 
ATOM     15  C   UNL     1       2.188   6.878  -5.406  0.00  0.00    -0.004 C 
ATOM     16  C   UNL     1       2.642   4.515  -5.250  0.00  0.00    +0.031 C 
BRANCH  15  17
ATOM     17  C   UNL     1       0.784   6.664  -5.032  0.00  0.00    -0.001 C 
ATOM     18  C   UNL     1      -0.141   6.464  -5.960  0.00  0.00    -0.004 C 
BRANCH  18  19
ATOM     19  C   UNL     1      -1.505   6.252  -5.470  0.00  0.00    -0.015 C 
ATOM     20  C   UNL     1      -1.770   6.495  -4.206  0.00  0.00    +0.082 C 
ATOM     21  C   UNL     1      -2.520   5.482  -6.244  0.00  0.00    +0.031 C 
BRANCH  20  22
ATOM     22  C   UNL     1      -2.723   5.714  -3.420  0.00  0.00    +0.388 C 
ATOM     23  O   UNL     1      -2.165   4.794  -2.528  0.00  0.00    -0.241 OA
ATOM     24  O   UNL     1      -3.751   6.315  -2.983  0.00  0.00    -0.241 OA
ENDBRANCH  20  22
ENDBRANCH  18  19
ENDBRANCH  15  17
ENDBRANCH   2  14
TORSDOF 6
ENDMDL
MODEL 9
REMARK VINA RESULT:      -7.8      1.704      2.887
REMARK  Name = 
REMARK  6 active torsions:
REMARK  status: ('A' for Active; 'I' for Inactive)
REMARK    1  A    between atoms: O_2  and  C_3
REMARK    2  A    between atoms: C_7  and  C_8
REMARK    3  A    between atoms: C_9  and  C_10
REMARK    4  A    between atoms: C_12  and  C_13
REMARK    5  A    between atoms: C_14  and  C_15
REMARK    6  A    between atoms: C_17  and  C_18
REMARK                            x       y       z     vdW  Elec       q    Type
REMARK                         _______ _______ _______ _____ _____    ______ ____
ROOT
ATOM      1  C   UNL     1      -0.443   5.281  -7.783  0.00  0.00    -0.001 C 
ATOM      2  C   UNL     1      -0.174   6.074  -8.790  0.00  0.00    -0.004 C 
ENDROOT
BRANCH   1   8
ATOM      3  C   UNL     1       1.064   5.214  -3.812  0.00  0.00    +0.134 A 
ATOM      4  C   UNL     1       1.915   4.922  -4.871  0.00  0.00    +0.008 A 
ATOM      5  C   UNL     1       3.382   4.758  -4.638  0.00  0.00    +0.034 C 
ATOM      6  C   UNL     1       1.422   4.896  -6.167  0.00  0.00    -0.023 A 
ATOM      7  C   UNL     1       2.245   4.445  -7.309  0.00  0.00    +0.031 C 
ATOM      8  C   UNL     1       0.169   5.400  -6.454  0.00  0.00    -0.008 A 
ATOM      9  C   UNL     1      -0.593   5.917  -5.412  0.00  0.00    -0.019 A 
ATOM     10  C   UNL     1      -1.882   6.538  -5.761  0.00  0.00    +0.031 C 
ATOM     11  C   UNL     1      -0.256   5.503  -4.132  0.00  0.00    +0.032 A 
BRANCH   3  13
ATOM     12  C   UNL     1       0.852   6.150  -1.599  0.00  0.00    +0.252 C 
ATOM     13  O   UNL     1       1.683   5.714  -2.667  0.00  0.00    -0.472 OA
ENDBRANCH   3  13
ENDBRANCH   1   8
BRANCH   2  14
ATOM     14  C   UNL     1       0.335   5.624 -10.091  0.00  0.00    -0.022 C 
ATOM     15  C   UNL     1       1.238   6.395 -10.697  0.00  0.00    -0.004 C 
ATOM     16  C   UNL     1       0.043   4.300 -10.665  0.00  0.00    +0.031 C 
BRANCH  15  17
ATOM     17  C   UNL     1       2.295   5.814 -11.534  0.00  0.00    -0.001 C 
ATOM     18  C   UNL     1       3.542   6.258 -11.456  0.00  0.00    -0.004 C 
BRANCH  18  19
ATOM     19  C   UNL     1       4.514   5.597 -12.331  0.00  0.00    -0.015 C 
ATOM     20  C   UNL     1       5.729   5.382 -11.878  0.00  0.00    +0.082 C 
ATOM     21  C   UNL     1       4.294   5.443 -13.796  0.00  0.00    +0.031 C 
BRANCH  20  22
ATOM     22  C   UNL     1       6.923   5.449 -12.719  0.00  0.00    +0.388 C 
ATOM     23  O   UNL     1       7.467   6.724 -12.901  0.00  0.00    -0.241 OA
ATOM     24  O   UNL     1       7.781   4.524 -12.591  0.00  0.00    -0.241 OA
ENDBRANCH  20  22
ENDBRANCH  18  19
ENDBRANCH  15  17
ENDBRANCH   2  14
TORSDOF 6
ENDMDL
