MODEL 1
REMARK VINA RESULT:      -8.2      0.000      0.000
REMARK  Name = 
REMARK  8 active torsions:
REMARK  status: ('A' for Active; 'I' for Inactive)
REMARK    1  A    between atoms: C_2  and  C_4
REMARK    2  A    between atoms: C_4  and  O_5
REMARK    3  A    between atoms: O_5  and  C_6
REMARK    4  A    between atoms: C_6  and  C_7
REMARK    5  A    between atoms: C_7  and  N_8
REMARK    6  A    between atoms: N_11  and  C_12
REMARK    7  A    between atoms: C_12  and  C_13
REMARK    8  A    between atoms: C_12  and  C_19
REMARK                            x       y       z     vdW  Elec       q    Type
REMARK                         _______ _______ _______ _____ _____    ______ ____
ROOT
ATOM      1  C   UNL     1       1.502   5.391  -5.930  0.00  0.00    +0.103 C 
ENDROOT
BRANCH   1   2
ATOM      2  C   UNL     1       1.781   6.091  -4.499  0.00  0.00    -0.004 A 
ATOM      3  C   UNL     1       1.312   5.377  -3.412  0.00  0.00    -0.002 A 
ATOM      4  C   UNL     1       1.935   5.558  -2.183  0.00  0.00    +0.011 A 
ATOM      5  C   UNL     1       3.071   6.354  -2.098  0.00  0.00    +0.058 A 
ATOM      6 CL   UNL     1       4.313   5.980  -0.907  0.00  0.00    -0.082 Cl
ATOM      7  C   UNL     1       3.266   7.267  -3.120  0.00  0.00    +0.011 A 
ATOM      8  C   UNL     1       2.806   6.960  -4.397  0.00  0.00    -0.002 A 
ENDBRANCH   1   2
BRANCH   1   9
ATOM      9  C   UNL     1       0.239   6.366  -6.297  0.00  0.00    -0.004 A 
ATOM     10  C   UNL     1      -0.137   7.171  -5.225  0.00  0.00    -0.003 A 
ATOM     11  C   UNL     1      -1.459   7.359  -4.857  0.00  0.00    -0.000 A 
ATOM     12  C   UNL     1      -2.444   6.546  -5.391  0.00  0.00    -0.000 A 
ATOM     13  C   UNL     1      -2.115   5.714  -6.419  0.00  0.00    -0.000 A 
ATOM     14  C   UNL     1      -0.788   5.483  -6.633  0.00  0.00    -0.003 A 
ENDBRANCH   1   9
BRANCH   1  18
ATOM     15  N   UNL     1       3.205   5.529  -9.393  0.00  0.00    -0.268 NA
ATOM     16  C   UNL     1       3.292   4.573  -8.340  0.00  0.00    +0.090 C 
ATOM     17  C   UNL     1       3.585   5.192  -7.001  0.00  0.00    +0.090 C 
ATOM     18  N   UNL     1       2.611   6.212  -6.711  0.00  0.00    -0.264 NA
ATOM     19  C   UNL     1       2.041   6.861  -7.804  0.00  0.00    +0.090 C 
ATOM     20  C   UNL     1       2.984   6.878  -8.984  0.00  0.00    +0.090 C 
BRANCH  15  21
ATOM     21  C   UNL     1       4.104   5.345 -10.482  0.00  0.00    +0.105 C 
BRANCH  21  22
ATOM     22  C   UNL     1       5.241   6.336 -10.272  0.00  0.00    +0.160 C 
BRANCH  22  23
ATOM     23  O   UNL     1       6.442   5.626 -10.150  0.00  0.00    -0.341 OA
BRANCH  23  24
ATOM     24  C   UNL     1       7.432   6.408 -10.754  0.00  0.00    +0.257 C 
BRANCH  24  26
ATOM     25  O   UNL     1       8.643   5.547 -11.582  0.00  0.00    -0.243 OA
ATOM     26  C   UNL     1       8.219   5.515 -11.610  0.00  0.00    +0.394 C 
ATOM     27  O   UNL     1       7.726   4.584 -12.468  0.00  0.00    -0.243 OA
ENDBRANCH  24  26
ENDBRANCH  23  24
ENDBRANCH  22  23
ENDBRANCH  21  22
ENDBRANCH  15  21
ENDBRANCH   1  18
TORSDOF 8
ENDMDL
MODEL 2
REMARK VINA RESULT:      -8.1      4.769      7.403
REMARK  Name = 
REMARK  8 active torsions:
REMARK  status: ('A' for Active; 'I' for Inactive)
REMARK    1  A    between atoms: C_2  and  C_4
REMARK    2  A    between atoms: C_4  and  O_5
REMARK    3  A    between atoms: O_5  and  C_6
REMARK    4  A    between atoms: C_6  and  C_7
REMARK    5  A    between atoms: C_7  and  N_8
REMARK    6  A    between atoms: N_11  and  C_12
REMARK    7  A    between atoms: C_12  and  C_13
REMARK    8  A    between atoms: C_12  and  C_19
REMARK                            x       y       z     vdW  Elec       q    Type
REMARK                         _______ _______ _______ _____ _____    ______ ____
ROOT
ATOM      1  C   UNL     1       2.407   6.807  -6.373  0.00  0.00    +0.103 C 
ENDROOT
BRANCH   1   2
ATOM      2  C   UNL     1       2.931   6.181  -7.769  0.00  0.00    -0.004 A 
ATOM      3  C   UNL     1       3.043   7.095  -8.800  0.00  0.00    -0.002 A 
ATOM      4  C   UNL     1       3.954   6.836  -9.817  0.00  0.00    +0.011 A 
ATOM      5  C   UNL     1       4.800   5.737  -9.720  0.00  0.00    +0.058 A 
ATOM      6 CL   UNL     1       6.410   5.807 -10.431  0.00  0.00    -0.082 Cl
ATOM      7  C   UNL     1       4.405   4.725  -8.862  0.00  0.00    +0.011 A 
ATOM      8  C   UNL     1       3.661   5.049  -7.732  0.00  0.00    -0.002 A 
ENDBRANCH   1   2
BRANCH   1   9
ATOM      9  C   UNL     1       1.234   5.684  -6.169  0.00  0.00    -0.004 A 
ATOM     10  C   UNL     1       0.563   5.399  -7.354  0.00  0.00    -0.003 A 
ATOM     11  C   UNL     1      -0.817   5.296  -7.427  0.00  0.00    -0.000 A 
ATOM     12  C   UNL     1      -1.596   5.726  -6.367  0.00  0.00    -0.000 A 
ATOM     13  C   UNL     1      -0.979   6.052  -5.196  0.00  0.00    -0.000 A 
ATOM     14  C   UNL     1       0.368   6.260  -5.238  0.00  0.00    -0.003 A 
ENDBRANCH   1   9
BRANCH   1  18
ATOM     15  N   UNL     1       3.353   6.333  -2.659  0.00  0.00    -0.268 NA
ATOM     16  C   UNL     1       3.404   7.480  -3.503  0.00  0.00    +0.090 C 
ATOM     17  C   UNL     1       4.109   7.225  -4.806  0.00  0.00    +0.090 C 
ATOM     18  N   UNL     1       3.508   6.102  -5.476  0.00  0.00    -0.264 NA
ATOM     19  C   UNL     1       2.914   5.136  -4.666  0.00  0.00    +0.090 C 
ATOM     20  C   UNL     1       3.571   5.080  -3.308  0.00  0.00    +0.090 C 
BRANCH  15  21
ATOM     21  C   UNL     1       3.935   6.478  -1.368  0.00  0.00    +0.105 C 
BRANCH  21  22
ATOM     22  C   UNL     1       2.795   6.821  -0.419  0.00  0.00    +0.160 C 
BRANCH  22  23
ATOM     23  O   UNL     1       1.963   5.702  -0.289  0.00  0.00    -0.341 OA
BRANCH  23  24
ATOM     24  C   UNL     1       0.671   6.124  -0.622  0.00  0.00    +0.257 C 
BRANCH  24  26
ATOM     25  O   UNL     1       0.354   4.784  -1.619  0.00  0.00    -0.243 OA
ATOM     26  C   UNL     1       0.089   5.086  -1.477  0.00  0.00    +0.394 C 
ATOM     27  O   UNL     1      -1.215   4.986  -1.846  0.00  0.00    -0.243 OA
ENDBRANCH  24  26
ENDBRANCH  23  24
ENDBRANCH  22  23
ENDBRANCH  21  22
ENDBRANCH  15  21
ENDBRANCH   1  18
TORSDOF 8
ENDMDL
MODEL 3
REMARK VINA RESULT:      -7.9      4.847      8.901
REMARK  Name = 
REMARK  8 active torsions:
REMARK  status: ('A' for Active; 'I' for Inactive)
REMARK    1  A    between atoms: C_2  and  C_4
REMARK    2  A    between atoms: C_4  and  O_5
REMARK    3  A    between atoms: O_5  and  C_6
REMARK    4  A    between atoms: C_6  and  C_7
REMARK    5  A    between atoms: C_7  and  N_8
REMARK    6  A    between atoms: N_11  and  C_12
REMARK    7  A    between atoms: C_12  and  C_13
REMARK    8  A    between atoms: C_12  and  C_19
REMARK                            x       y       z     vdW  Elec       q    Type
REMARK                         _______ _______ _______ _____ _____    ______ ____
ROOT
ATOM      1  C   UNL     1       3.724   5.208  -9.908  0.00  0.00    +0.103 C 
ENDROOT
BRANCH   1   2
ATOM      2  C   UNL     1       3.234   5.865 -11.302  0.00  0.00    -0.004 A 
ATOM      3  C   UNL     1       3.778   5.283 -12.431  0.00  0.00    -0.002 A 
ATOM      4  C   UNL     1       3.067   5.359 -13.623  0.00  0.00    +0.011 A 
ATOM      5  C   UNL     1       1.791   5.910 -13.629  0.00  0.00    +0.058 A 
ATOM      6 CL   UNL     1       0.588   5.317 -14.770  0.00  0.00    -0.082 Cl
ATOM      7  C   UNL     1       1.471   6.744 -12.571  0.00  0.00    +0.011 A 
ATOM      8  C   UNL     1       2.050   6.510 -11.328  0.00  0.00    -0.002 A 
ENDBRANCH   1   2
BRANCH   1   9
ATOM      9  C   UNL     1       4.844   6.365  -9.616  0.00  0.00    -0.004 A 
ATOM     10  C   UNL     1       5.008   7.227 -10.696  0.00  0.00    -0.003 A 
ATOM     11  C   UNL     1       6.254   7.622 -11.156  0.00  0.00    -0.000 A 
ATOM     12  C   UNL     1       7.391   6.969 -10.712  0.00  0.00    -0.000 A 
ATOM     13  C   UNL     1       7.272   6.087  -9.679  0.00  0.00    -0.000 A 
ATOM     14  C   UNL     1       6.018   5.651  -9.372  0.00  0.00    -0.003 A 
ENDBRANCH   1   9
BRANCH   1  18
ATOM     15  N   UNL     1       2.392   5.192  -6.283  0.00  0.00    -0.268 NA
ATOM     16  C   UNL     1       2.385   4.185  -7.292  0.00  0.00    +0.090 C 
ATOM     17  C   UNL     1       1.841   4.668  -8.608  0.00  0.00    +0.090 C 
ATOM     18  N   UNL     1       2.562   5.839  -9.034  0.00  0.00    -0.264 NA
ATOM     19  C   UNL     1       3.103   6.640  -8.030  0.00  0.00    +0.090 C 
ATOM     20  C   UNL     1       2.302   6.536  -6.754  0.00  0.00    +0.090 C 
BRANCH  15  21
ATOM     21  C   UNL     1       1.663   4.895  -5.097  0.00  0.00    +0.105 C 
BRANCH  21  22
ATOM     22  C   UNL     1       0.589   5.967  -4.972  0.00  0.00    +0.160 C 
BRANCH  22  23
ATOM     23  O   UNL     1      -0.662   5.345  -4.884  0.00  0.00    -0.341 OA
BRANCH  23  24
ATOM     24  C   UNL     1      -1.447   6.143  -4.044  0.00  0.00    +0.257 C 
BRANCH  24  26
ATOM     25  O   UNL     1      -2.875   5.237  -3.865  0.00  0.00    -0.243 OA
ATOM     26  C   UNL     1      -2.562   5.310  -3.584  0.00  0.00    +0.394 C 
ATOM     27  O   UNL     1      -2.687   4.739  -2.358  0.00  0.00    -0.243 OA
ENDBRANCH  24  26
ENDBRANCH  23  24
ENDBRANCH  22  23
ENDBRANCH  21  22
ENDBRANCH  15  21
ENDBRANCH   1  18
TORSDOF 8
ENDMDL
MODEL 4
REMARK VINA RESULT:      -7.9      4.631      7.367
REMARK  Name = 
REMARK  8 active torsions:
REMARK  status: ('A' for Active; 'I' for Inactive)
REMARK    1  A    between atoms: C_2  and  C_4
REMARK    2  A    between atoms: C_4  and  O_5
REMARK    3  A    between atoms: O_5  and  C_6
REMARK    4  A    between atoms: C_6  and  C_7
REMARK    5  A    between atoms: C_7  and  N_8
REMARK    6  A    between atoms: N_11  and  C_12
REMARK    7  A    between atoms: C_12  and  C_13
REMARK    8  A    between atoms: C_12  and  C_19
REMARK                            x       y       z     vdW  Elec       q    Type
REMARK                         _______ _______ _______ _____ _____    ______ ____
ROOT
ATOM      1  C   UNL     1       2.756   6.597  -6.720  0.00  0.00    +0.103 C 
ENDROOT
BRANCH   1   2
ATOM      2  C   UNL     1       3.832   6.188  -5.583  0.00  0.00    -0.004 A 
ATOM      3  C   UNL     1       4.375   7.259  -4.899  0.00  0.00    -0.002 A 
ATOM      4  C   UNL     1       4.847   7.049  -3.608  0.00  0.00    +0.011 A 
ATOM      5  C   UNL     1       4.662   5.812  -3.001  0.00  0.00    +0.058 A 
ATOM      6 CL   UNL     1       4.447   5.718  -1.255  0.00  0.00    -0.082 Cl
ATOM      7  C   UNL     1       4.426   4.738  -3.842  0.00  0.00    +0.011 A 
ATOM      8  C   UNL     1       3.762   4.955  -5.044  0.00  0.00    -0.002 A 
ENDBRANCH   1   2
BRANCH   1   9
ATOM      9  C   UNL     1       3.415   5.629  -7.863  0.00  0.00    -0.004 A 
ATOM     10  C   UNL     1       4.766   5.384  -7.635  0.00  0.00    -0.003 A 
ATOM     11  C   UNL     1       5.718   5.444  -8.639  0.00  0.00    -0.000 A 
ATOM     12  C   UNL     1       5.392   6.001  -9.864  0.00  0.00    -0.000 A 
ATOM     13  C   UNL     1       4.085   6.292 -10.119  0.00  0.00    -0.000 A 
ATOM     14  C   UNL     1       3.237   6.336  -9.054  0.00  0.00    -0.003 A 
ENDBRANCH   1   9
BRANCH   1  18
ATOM     15  N   UNL     1      -1.050   6.457  -6.082  0.00  0.00    -0.268 NA
ATOM     16  C   UNL     1      -0.004   7.129  -5.386  0.00  0.00    +0.090 C 
ATOM     17  C   UNL     1       1.151   6.231  -5.041  0.00  0.00    +0.090 C 
ATOM     18  N   UNL     1       1.638   5.583  -6.231  0.00  0.00    -0.264 NA
ATOM     19  C   UNL     1       0.712   5.369  -7.250  0.00  0.00    +0.090 C 
ATOM     20  C   UNL     1      -0.686   5.222  -6.698  0.00  0.00    +0.090 C 
BRANCH  15  21
ATOM     21  C   UNL     1      -2.336   6.495  -5.470  0.00  0.00    +0.105 C 
BRANCH  21  22
ATOM     22  C   UNL     1      -2.289   7.619  -4.444  0.00  0.00    +0.160 C 
BRANCH  22  23
ATOM     23  O   UNL     1      -2.909   7.182  -3.267  0.00  0.00    -0.341 OA
BRANCH  23  24
ATOM     24  C   UNL     1      -1.890   6.970  -2.332  0.00  0.00    +0.257 C 
BRANCH  24  26
ATOM     25  O   UNL     1      -1.400   5.381  -1.980  0.00  0.00    -0.243 OA
ATOM     26  C   UNL     1      -1.757   5.520  -2.166  0.00  0.00    +0.394 C 
ATOM     27  O   UNL     1      -2.668   4.582  -2.533  0.00  0.00    -0.243 OA
ENDBRANCH  24  26
ENDBRANCH  23  24
ENDBRANCH  22  23
ENDBRANCH  21  22
ENDBRANCH  15  21
ENDBRANCH   1  18
TORSDOF 8
ENDMDL
MODEL 5
REMARK VINA RESULT:      -7.8      3.348      5.261
REMARK  Name = 
REMARK  8 active torsions:
REMARK  status: ('A' for Active; 'I' for Inactive)
REMARK    1  A    between atoms: C_2  and  C_4
REMARK    2  A    between atoms: C_4  and  O_5
REMARK    3  A    between atoms: O_5  and  C_6
REMARK    4  A    between atoms: C_6  and  C_7
REMARK    5  A    between atoms: C_7  and  N_8
REMARK    6  A    between atoms: N_11  and  C_12
REMARK    7  A    between atoms: C_12  and  C_13
REMARK    8  A    between atoms: C_12  and  C_19
REMARK                            x       y       z     vdW  Elec       q    Type
REMARK                         _______ _______ _______ _____ _____    ______ ____
ROOT
ATOM      1  C   UNL     1       1.911   6.431  -8.688  0.00  0.00    +0.103 C 
ENDROOT
BRANCH   1   2
ATOM      2  C   UNL     1       0.880   5.945  -9.836  0.00  0.00    -0.004 A 
ATOM      3  C   UNL     1       0.511   6.934 -10.729  0.00  0.00    -0.002 A 
ATOM      4  C   UNL     1       0.113   6.556 -12.006  0.00  0.00    +0.011 A 
ATOM      5  C   UNL     1       0.202   5.223 -12.389  0.00  0.00    +0.058 A 
ATOM      6 CL   UNL     1       0.529   4.816 -14.071  0.00  0.00    -0.082 Cl
ATOM      7  C   UNL     1       0.255   4.288 -11.369  0.00  0.00    +0.011 A 
ATOM      8  C   UNL     1       0.851   4.637 -10.162  0.00  0.00    -0.002 A 
ENDBRANCH   1   2
BRANCH   1   9
ATOM      9  C   UNL     1       1.111   5.672  -7.479  0.00  0.00    -0.004 A 
ATOM     10  C   UNL     1      -0.225   5.439  -7.792  0.00  0.00    -0.003 A 
ATOM     11  C   UNL     1      -1.257   5.682  -6.901  0.00  0.00    -0.000 A 
ATOM     12  C   UNL     1      -1.014   6.410  -5.748  0.00  0.00    -0.000 A 
ATOM     13  C   UNL     1       0.278   6.694  -5.419  0.00  0.00    -0.000 A 
ATOM     14  C   UNL     1       1.217   6.547  -6.396  0.00  0.00    -0.003 A 
ENDBRANCH   1   9
BRANCH   1  18
ATOM     15  N   UNL     1       5.729   5.955  -9.020  0.00  0.00    -0.268 NA
ATOM     16  C   UNL     1       4.784   6.598  -9.871  0.00  0.00    +0.090 C 
ATOM     17  C   UNL     1       3.589   5.740 -10.183  0.00  0.00    +0.090 C 
ATOM     18  N   UNL     1       2.978   5.290  -8.959  0.00  0.00    -0.264 NA
ATOM     19  C   UNL     1       3.817   5.152  -7.856  0.00  0.00    +0.090 C 
ATOM     20  C   UNL     1       5.233   4.841  -8.279  0.00  0.00    +0.090 C 
BRANCH  15  21
ATOM     21  C   UNL     1       7.050   5.827  -9.534  0.00  0.00    +0.105 C 
BRANCH  21  22
ATOM     22  C   UNL     1       7.162   6.821 -10.682  0.00  0.00    +0.160 C 
BRANCH  22  23
ATOM     23  O   UNL     1       8.159   6.383 -11.563  0.00  0.00    -0.341 OA
BRANCH  23  24
ATOM     24  C   UNL     1       7.625   6.484 -12.853  0.00  0.00    +0.257 C 
BRANCH  24  26
ATOM     25  O   UNL     1       7.440   4.849 -13.280  0.00  0.00    -0.243 OA
ATOM     26  C   UNL     1       7.144   5.150 -13.222  0.00  0.00    +0.394 C 
ATOM     27  O   UNL     1       5.847   4.778 -13.379  0.00  0.00    -0.243 OA
ENDBRANCH  24  26
ENDBRANCH  23  24
ENDBRANCH  22  23
ENDBRANCH  21  22
ENDBRANCH  15  21
ENDBRANCH   1  18
TORSDOF 8
ENDMDL
MODEL 6
REMARK VINA RESULT:      -7.8      4.725      7.814
REMARK  Name = 
REMARK  8 active torsions:
REMARK  status: ('A' for Active; 'I' for Inactive)
REMARK    1  A    between atoms: C_2  and  C_4
REMARK    2  A    between atoms: C_4  and  O_5
REMARK    3  A    between atoms: O_5  and  C_6
REMARK    4  A    between atoms: C_6  and  C_7
REMARK    5  A    between atoms: C_7  and  N_8
REMARK    6  A    between atoms: N_11  and  C_12
REMARK    7  A    between atoms: C_12  and  C_13
REMARK    8  A    between atoms: C_12  and  C_19
REMARK                            x       y       z     vdW  Elec       q    Type
REMARK                         _______ _______ _______ _____ _____    ______ ____
ROOT
ATOM      1  C   UNL     1       2.967   6.584  -7.741  0.00  0.00    +0.103 C 
ENDROOT
BRANCH   1   2
ATOM      2  C   UNL     1       4.091   6.108  -8.803  0.00  0.00    -0.004 A 
ATOM      3  C   UNL     1       4.087   6.811  -9.993  0.00  0.00    -0.002 A 
ATOM      4  C   UNL     1       5.271   6.893 -10.716  0.00  0.00    +0.011 A 
ATOM      5  C   UNL     1       6.443   6.372 -10.180  0.00  0.00    +0.058 A 
ATOM      6 CL   UNL     1       7.990   7.121 -10.565  0.00  0.00    -0.082 Cl
ATOM      7  C   UNL     1       6.299   5.423  -9.182  0.00  0.00    +0.011 A 
ATOM      8  C   UNL     1       5.197   5.494  -8.336  0.00  0.00    -0.002 A 
ENDBRANCH   1   2
BRANCH   1   9
ATOM      9  C   UNL     1       1.947   5.351  -8.086  0.00  0.00    -0.004 A 
ATOM     10  C   UNL     1       2.157   4.831  -9.360  0.00  0.00    -0.003 A 
ATOM     11  C   UNL     1       1.120   4.539 -10.230  0.00  0.00    -0.000 A 
ATOM     12  C   UNL     1      -0.158   4.995  -9.956  0.00  0.00    -0.000 A 
ATOM     13  C   UNL     1      -0.403   5.547  -8.733  0.00  0.00    -0.000 A 
ATOM     14  C   UNL     1       0.676   5.922  -7.991  0.00  0.00    -0.003 A 
ENDBRANCH   1   9
BRANCH   1  18
ATOM     15  N   UNL     1       2.206   5.658  -4.070  0.00  0.00    -0.268 NA
ATOM     16  C   UNL     1       2.395   6.921  -4.701  0.00  0.00    +0.090 C 
ATOM     17  C   UNL     1       3.649   6.988  -5.528  0.00  0.00    +0.090 C 
ATOM     18  N   UNL     1       3.662   5.912  -6.484  0.00  0.00    -0.264 NA
ATOM     19  C   UNL     1       2.980   4.751  -6.127  0.00  0.00    +0.090 C 
ATOM     20  C   UNL     1       2.946   4.573  -4.628  0.00  0.00    +0.090 C 
BRANCH  15  21
ATOM     21  C   UNL     1       2.097   5.676  -2.650  0.00  0.00    +0.105 C 
BRANCH  21  22
ATOM     22  C   UNL     1       0.667   6.094  -2.335  0.00  0.00    +0.160 C 
BRANCH  22  23
ATOM     23  O   UNL     1      -0.182   5.004  -2.559  0.00  0.00    -0.341 OA
BRANCH  23  24
ATOM     24  C   UNL     1      -1.225   5.470  -3.368  0.00  0.00    +0.257 C 
BRANCH  24  26
ATOM     25  O   UNL     1      -2.530   4.892  -2.444  0.00  0.00    -0.243 OA
ATOM     26  C   UNL     1      -2.468   5.277  -2.616  0.00  0.00    +0.394 C 
ATOM     27  O   UNL     1      -3.431   6.211  -2.402  0.00  0.00    -0.243 OA
ENDBRANCH  24  26
ENDBRANCH  23  24
ENDBRANCH  22  23
ENDBRANCH  21  22
ENDBRANCH  15  21
ENDBRANCH   1  18
TORSDOF 8
ENDMDL
MODEL 7
REMARK VINA RESULT:      -7.8      4.192      7.632
REMARK  Name = 
REMARK  8 active torsions:
REMARK  status: ('A' for Active; 'I' for Inactive)
REMARK    1  A    between atoms: C_2  and  C_4
REMARK    2  A    between atoms: C_4  and  O_5
REMARK    3  A    between atoms: O_5  and  C_6
REMARK    4  A    between atoms: C_6  and  C_7
REMARK    5  A    between atoms: C_7  and  N_8
REMARK    6  A    between atoms: N_11  and  C_12
REMARK    7  A    between atoms: C_12  and  C_13
REMARK    8  A    between atoms: C_12  and  C_19
REMARK                            x       y       z     vdW  Elec       q    Type
REMARK                         _______ _______ _______ _____ _____    ______ ____
ROOT
ATOM      1  C   UNL     1       3.315   6.760  -9.988  0.00  0.00    +0.103 C 
ENDROOT
BRANCH   1   2
ATOM      2  C   UNL     1       4.485   6.632 -11.098  0.00  0.00    -0.004 A 
ATOM      3  C   UNL     1       5.398   7.669 -11.089  0.00  0.00    -0.002 A 
ATOM      4  C   UNL     1       6.681   7.425 -11.564  0.00  0.00    +0.011 A 
ATOM      5  C   UNL     1       7.047   6.135 -11.927  0.00  0.00    +0.058 A 
ATOM      6 CL   UNL     1       8.715   5.608 -11.723  0.00  0.00    -0.082 Cl
ATOM      7  C   UNL     1       6.016   5.257 -12.218  0.00  0.00    +0.011 A 
ATOM      8  C   UNL     1       4.797   5.406 -11.564  0.00  0.00    -0.002 A 
ENDBRANCH   1   2
BRANCH   1   9
ATOM      9  C   UNL     1       2.157   6.137 -10.961  0.00  0.00    -0.004 A 
ATOM     10  C   UNL     1       2.308   6.536 -12.286  0.00  0.00    -0.003 A 
ATOM     11  C   UNL     1       1.246   6.968 -13.064  0.00  0.00    -0.000 A 
ATOM     12  C   UNL     1       0.030   7.259 -12.468  0.00  0.00    -0.000 A 
ATOM     13  C   UNL     1      -0.151   6.920 -11.160  0.00  0.00    -0.000 A 
ATOM     14  C   UNL     1       0.963   6.630 -10.431  0.00  0.00    -0.003 A 
ENDBRANCH   1   9
BRANCH   1  18
ATOM     15  N   UNL     1       2.437   4.827  -6.762  0.00  0.00    -0.268 NA
ATOM     16  C   UNL     1       3.169   6.033  -6.966  0.00  0.00    +0.090 C 
ATOM     17  C   UNL     1       4.247   5.902  -8.006  0.00  0.00    +0.090 C 
ATOM     18  N   UNL     1       3.681   5.412  -9.236  0.00  0.00    -0.264 NA
ATOM     19  C   UNL     1       2.549   4.607  -9.127  0.00  0.00    +0.090 C 
ATOM     20  C   UNL     1       2.530   3.865  -7.812  0.00  0.00    +0.090 C 
BRANCH  15  21
ATOM     21  C   UNL     1       2.441   4.308  -5.436  0.00  0.00    +0.105 C 
BRANCH  21  22
ATOM     22  C   UNL     1       1.716   5.333  -4.572  0.00  0.00    +0.160 C 
BRANCH  22  23
ATOM     23  O   UNL     1       0.354   5.013  -4.540  0.00  0.00    -0.341 OA
BRANCH  23  24
ATOM     24  C   UNL     1      -0.341   6.190  -4.841  0.00  0.00    +0.257 C 
BRANCH  24  26
ATOM     25  O   UNL     1      -1.636   6.048  -5.933  0.00  0.00    -0.243 OA
ATOM     26  C   UNL     1      -1.245   5.880  -5.952  0.00  0.00    +0.394 C 
ATOM     27  O   UNL     1      -0.949   5.126  -7.042  0.00  0.00    -0.243 OA
ENDBRANCH  24  26
ENDBRANCH  23  24
ENDBRANCH  22  23
ENDBRANCH  21  22
ENDBRANCH  15  21
ENDBRANCH   1  18
TORSDOF 8
ENDMDL
MODEL 8
REMARK VINA RESULT:      -7.5      4.859      8.094
REMARK  Name = 
REMARK  8 active torsions:
REMARK  status: ('A' for Active; 'I' for Inactive)
REMARK    1  A    between atoms: C_2  and  C_4
REMARK    2  A    between atoms: C_4  and  O_5
REMARK    3  A    between atoms: O_5  and  C_6
REMARK    4  A    between atoms: C_6  and  C_7
REMARK    5  A    between atoms: C_7  and  N_8
REMARK    6  A    between atoms: N_11  and  C_12
REMARK    7  A    between atoms: C_12  and  C_13
REMARK    8  A    between atoms: C_12  and  C_19
REMARK                            x       y       z     vdW  Elec       q    Type
REMARK                         _______ _______ _______ _____ _____    ______ ____
ROOT
ATOM      1  C   UNL     1       2.734   6.907  -8.976  0.00  0.00    +0.103 C 
ENDROOT
BRANCH   1   2
ATOM      2  C   UNL     1       4.109   6.423  -9.676  0.00  0.00    -0.004 A 
ATOM      3  C   UNL     1       4.567   7.259 -10.677  0.00  0.00    -0.002 A 
ATOM      4  C   UNL     1       5.929   7.274 -10.954  0.00  0.00    +0.011 A 
ATOM      5  C   UNL     1       6.802   6.545 -10.156  0.00  0.00    +0.058 A 
ATOM      6 CL   UNL     1       8.443   7.128  -9.895  0.00  0.00    -0.082 Cl
ATOM      7  C   UNL     1       6.251   5.509  -9.421  0.00  0.00    +0.011 A 
ATOM      8  C   UNL     1       4.937   5.619  -8.979  0.00  0.00    -0.002 A 
ENDBRANCH   1   2
BRANCH   1   9
ATOM      9  C   UNL     1       1.788   5.911  -9.866  0.00  0.00    -0.004 A 
ATOM     10  C   UNL     1       2.342   5.628 -11.111  0.00  0.00    -0.003 A 
ATOM     11  C   UNL     1       1.603   5.652 -12.283  0.00  0.00    -0.000 A 
ATOM     12  C   UNL     1       0.335   6.208 -12.286  0.00  0.00    -0.000 A 
ATOM     13  C   UNL     1      -0.234   6.536 -11.091  0.00  0.00    -0.000 A 
ATOM     14  C   UNL     1       0.590   6.614 -10.008  0.00  0.00    -0.003 A 
ENDBRANCH   1   9
BRANCH   1  18
ATOM     15  N   UNL     1       0.665   5.642  -5.971  0.00  0.00    -0.268 NA
ATOM     16  C   UNL     1       1.208   6.927  -6.264  0.00  0.00    +0.090 C 
ATOM     17  C   UNL     1       2.667   6.884  -6.626  0.00  0.00    +0.090 C 
ATOM     18  N   UNL     1       2.874   5.961  -7.712  0.00  0.00    -0.264 NA
ATOM     19  C   UNL     1       1.976   4.900  -7.810  0.00  0.00    +0.090 C 
ATOM     20  C   UNL     1       1.414   4.530  -6.458  0.00  0.00    +0.090 C 
BRANCH  15  21
ATOM     21  C   UNL     1       0.083   5.488  -4.680  0.00  0.00    +0.105 C 
BRANCH  21  22
ATOM     22  C   UNL     1      -0.647   6.790  -4.380  0.00  0.00    +0.160 C 
BRANCH  22  23
ATOM     23  O   UNL     1      -1.024   6.796  -3.032  0.00  0.00    -0.341 OA
BRANCH  23  24
ATOM     24  C   UNL     1      -1.276   5.465  -2.681  0.00  0.00    +0.257 C 
BRANCH  24  26
ATOM     25  O   UNL     1      -2.851   4.984  -2.257  0.00  0.00    -0.243 OA
ATOM     26  C   UNL     1      -2.706   5.367  -2.375  0.00  0.00    +0.394 C 
ATOM     27  O   UNL     1      -3.607   6.383  -2.416  0.00  0.00    -0.243 OA
ENDBRANCH  24  26
ENDBRANCH  23  24
ENDBRANCH  22  23
ENDBRANCH  21  22
ENDBRANCH  15  21
ENDBRANCH   1  18
TORSDOF 8
ENDMDL
MODEL 9
REMARK VINA RESULT:      -7.5      4.082      7.247
REMARK  Name = 
REMARK  8 active torsions:
REMARK  status: ('A' for Active; 'I' for Inactive)
REMARK    1  A    between atoms: C_2  and  C_4
REMARK    2  A    between atoms: C_4  and  O_5
REMARK    3  A    between atoms: O_5  and  C_6
REMARK    4  A    between atoms: C_6  and  C_7
REMARK    5  A    between atoms: C_7  and  N_8
REMARK    6  A    between atoms: N_11  and  C_12
REMARK    7  A    between atoms: C_12  and  C_13
REMARK    8  A    between atoms: C_12  and  C_19
REMARK                            x       y       z     vdW  Elec       q    Type
REMARK                         _______ _______ _______ _____ _____    ______ ____
ROOT
ATOM      1  C   UNL     1       3.354   6.744  -9.901  0.00  0.00    +0.103 C 
ENDROOT
BRANCH   1   2
ATOM      2  C   UNL     1       4.507   6.612 -11.028  0.00  0.00    -0.004 A 
ATOM      3  C   UNL     1       5.394   7.672 -11.066  0.00  0.00    -0.002 A 
ATOM      4  C   UNL     1       6.674   7.446 -11.557  0.00  0.00    +0.011 A 
ATOM      5  C   UNL     1       7.066   6.154 -11.889  0.00  0.00    +0.058 A 
ATOM      6 CL   UNL     1       8.750   5.675 -11.699  0.00  0.00    -0.082 Cl
ATOM      7  C   UNL     1       6.052   5.243 -12.135  0.00  0.00    +0.011 A 
ATOM      8  C   UNL     1       4.842   5.381 -11.464  0.00  0.00    -0.002 A 
ENDBRANCH   1   2
BRANCH   1   9
ATOM      9  C   UNL     1       2.183   6.110 -10.852  0.00  0.00    -0.004 A 
ATOM     10  C   UNL     1       2.368   6.419 -12.197  0.00  0.00    -0.003 A 
ATOM     11  C   UNL     1       1.335   6.846 -13.016  0.00  0.00    -0.000 A 
ATOM     12  C   UNL     1       0.126   7.224 -12.459  0.00  0.00    -0.000 A 
ATOM     13  C   UNL     1      -0.087   6.975 -11.136  0.00  0.00    -0.000 A 
ATOM     14  C   UNL     1       1.004   6.685 -10.372  0.00  0.00    -0.003 A 
ENDBRANCH   1   9
BRANCH   1  18
ATOM     15  N   UNL     1       2.631   4.893  -6.590  0.00  0.00    -0.268 NA
ATOM     16  C   UNL     1       3.375   6.077  -6.862  0.00  0.00    +0.090 C 
ATOM     17  C   UNL     1       4.385   5.904  -7.962  0.00  0.00    +0.090 C 
ATOM     18  N   UNL     1       3.736   5.403  -9.146  0.00  0.00    -0.264 NA
ATOM     19  C   UNL     1       2.596   4.625  -8.952  0.00  0.00    +0.090 C 
ATOM     20  C   UNL     1       2.640   3.909  -7.624  0.00  0.00    +0.090 C 
BRANCH  15  21
ATOM     21  C   UNL     1       2.704   4.399  -5.256  0.00  0.00    +0.105 C 
BRANCH  21  22
ATOM     22  C   UNL     1       2.386   5.577  -4.345  0.00  0.00    +0.160 C 
BRANCH  22  23
ATOM     23  O   UNL     1       3.454   5.765  -3.460  0.00  0.00    -0.341 OA
BRANCH  23  24
ATOM     24  C   UNL     1       3.396   7.099  -3.040  0.00  0.00    +0.257 C 
BRANCH  24  26
ATOM     25  O   UNL     1       4.661   8.166  -3.433  0.00  0.00    -0.243 OA
ATOM     26  C   UNL     1       4.616   7.752  -3.523  0.00  0.00    +0.394 C 
ATOM     27  O   UNL     1       5.623   7.160  -4.217  0.00  0.00    -0.243 OA
ENDBRANCH  24  26
ENDBRANCH  23  24
ENDBRANCH  22  23
ENDBRANCH  21  22
ENDBRANCH  15  21
ENDBRANCH   1  18
TORSDOF 8
ENDMDL
