MODEL 1
REMARK VINA RESULT:      -5.6      0.000      0.000
REMARK  Name = 
REMARK  3 active torsions:
REMARK  status: ('A' for Active; 'I' for Inactive)
REMARK    1  A    between atoms: C_2  and  O_3
REMARK    2  A    between atoms: O_3  and  C_4
REMARK    3  A    between atoms: C_4  and  C_6
REMARK                            x       y       z     vdW  Elec       q    Type
REMARK                         _______ _______ _______ _____ _____    ______ ____
ROOT
ATOM      1  C   UNL     1       7.507   6.494 -11.238  0.00  0.00    +0.076 A 
ATOM      2  C   UNL     1       6.660   7.578 -11.438  0.00  0.00    +0.008 A 
ATOM      3  C   UNL     1       5.406   7.626 -10.841  0.00  0.00    +0.018 A 
ATOM      4  C   UNL     1       4.922   6.536 -10.123  0.00  0.00    +0.089 A 
ATOM      5  N   UNL     1       3.585   6.053 -10.283  0.00  0.00    -0.128 NA
ATOM      6  C   UNL     1       5.925   5.768  -9.541  0.00  0.00    +0.018 A 
ATOM      7  C   UNL     1       7.175   5.694 -10.149  0.00  0.00    +0.008 A 
ENDROOT
BRANCH   1   8
ATOM      8  C   UNL     1       8.315   5.961 -12.343  0.00  0.00    +0.341 C 
ATOM      9  O   UNL     1       9.576   5.889 -12.212  0.00  0.00    -0.245 OA
BRANCH   8  10
ATOM     10  O   UNL     1       7.786   5.048 -13.263  0.00  0.00    -0.445 OA
BRANCH  10  12
ATOM     11  C   UNL     1       7.067   6.576 -14.963  0.00  0.00    +0.051 C 
ATOM     12  C   UNL     1       6.703   5.390 -14.117  0.00  0.00    +0.209 C 
ENDBRANCH  10  12
ENDBRANCH   8  10
ENDBRANCH   1   8
TORSDOF 3
ENDMDL
MODEL 2
REMARK VINA RESULT:      -5.6      3.441      4.923
REMARK  Name = 
REMARK  3 active torsions:
REMARK  status: ('A' for Active; 'I' for Inactive)
REMARK    1  A    between atoms: C_2  and  O_3
REMARK    2  A    between atoms: O_3  and  C_4
REMARK    3  A    between atoms: C_4  and  C_6
REMARK                            x       y       z     vdW  Elec       q    Type
REMARK                         _______ _______ _______ _____ _____    ______ ____
ROOT
ATOM      1  C   UNL     1       5.635   5.733  -9.517  0.00  0.00    +0.076 A 
ATOM      2  C   UNL     1       7.023   5.766  -9.443  0.00  0.00    +0.008 A 
ATOM      3  C   UNL     1       7.800   5.750 -10.594  0.00  0.00    +0.018 A 
ATOM      4  C   UNL     1       7.212   5.582 -11.845  0.00  0.00    +0.089 A 
ATOM      5  N   UNL     1       7.748   4.685 -12.822  0.00  0.00    -0.128 NA
ATOM      6  C   UNL     1       5.908   6.060 -11.910  0.00  0.00    +0.018 A 
ATOM      7  C   UNL     1       5.115   6.054 -10.767  0.00  0.00    +0.008 A 
ENDROOT
BRANCH   1   8
ATOM      8  C   UNL     1       4.853   4.939  -8.559  0.00  0.00    +0.341 C 
ATOM      9  O   UNL     1       4.582   5.432  -7.421  0.00  0.00    -0.245 OA
BRANCH   8  10
ATOM     10  O   UNL     1       3.949   3.960  -8.984  0.00  0.00    -0.445 OA
BRANCH  10  12
ATOM     11  C   UNL     1       1.726   4.704  -9.483  0.00  0.00    +0.051 C 
ATOM     12  C   UNL     1       2.601   3.941  -8.531  0.00  0.00    +0.209 C 
ENDBRANCH  10  12
ENDBRANCH   8  10
ENDBRANCH   1   8
TORSDOF 3
ENDMDL
MODEL 3
REMARK VINA RESULT:      -5.3     10.135     12.177
REMARK  Name = 
REMARK  3 active torsions:
REMARK  status: ('A' for Active; 'I' for Inactive)
REMARK    1  A    between atoms: C_2  and  O_3
REMARK    2  A    between atoms: O_3  and  C_4
REMARK    3  A    between atoms: C_4  and  C_6
REMARK                            x       y       z     vdW  Elec       q    Type
REMARK                         _______ _______ _______ _____ _____    ______ ____
ROOT
ATOM      1  C   UNL     1      -2.312   6.302  -4.574  0.00  0.00    +0.076 A 
ATOM      2  C   UNL     1      -1.149   7.064  -4.565  0.00  0.00    +0.008 A 
ATOM      3  C   UNL     1      -0.131   6.823  -5.479  0.00  0.00    +0.018 A 
ATOM      4  C   UNL     1      -0.200   5.739  -6.349  0.00  0.00    +0.089 A 
ATOM      5  N   UNL     1       0.917   4.876  -6.579  0.00  0.00    -0.128 NA
ATOM      6  C   UNL     1      -1.503   5.369  -6.667  0.00  0.00    +0.018 A 
ATOM      7  C   UNL     1      -2.524   5.582  -5.746  0.00  0.00    +0.008 A 
ENDROOT
BRANCH   1   8
ATOM      8  C   UNL     1      -2.947   5.890  -3.314  0.00  0.00    +0.341 C 
ATOM      9  O   UNL     1      -2.940   4.663  -2.988  0.00  0.00    -0.245 OA
BRANCH   8  10
ATOM     10  O   UNL     1      -3.057   6.767  -2.229  0.00  0.00    -0.445 OA
BRANCH  10  12
ATOM     11  C   UNL     1      -1.589   7.807  -0.647  0.00  0.00    +0.051 C 
ATOM     12  C   UNL     1      -2.331   6.558  -1.024  0.00  0.00    +0.209 C 
ENDBRANCH  10  12
ENDBRANCH   8  10
ENDBRANCH   1   8
TORSDOF 3
ENDMDL
MODEL 4
REMARK VINA RESULT:      -5.3      3.296      4.990
REMARK  Name = 
REMARK  3 active torsions:
REMARK  status: ('A' for Active; 'I' for Inactive)
REMARK    1  A    between atoms: C_2  and  O_3
REMARK    2  A    between atoms: O_3  and  C_4
REMARK    3  A    between atoms: C_4  and  C_6
REMARK                            x       y       z     vdW  Elec       q    Type
REMARK                         _______ _______ _______ _____ _____    ______ ____
ROOT
ATOM      1  C   UNL     1       5.299   6.295  -9.958  0.00  0.00    +0.076 A 
ATOM      2  C   UNL     1       6.360   5.661  -9.322  0.00  0.00    +0.008 A 
ATOM      3  C   UNL     1       7.647   5.731  -9.840  0.00  0.00    +0.018 A 
ATOM      4  C   UNL     1       7.885   6.338 -11.069  0.00  0.00    +0.089 A 
ATOM      5  N   UNL     1       8.728   5.744 -12.060  0.00  0.00    -0.128 NA
ATOM      6  C   UNL     1       6.973   7.343 -11.375  0.00  0.00    +0.018 A 
ATOM      7  C   UNL     1       5.674   7.266 -10.882  0.00  0.00    +0.008 A 
ENDROOT
BRANCH   1   8
ATOM      8  C   UNL     1       3.981   5.649 -10.040  0.00  0.00    +0.341 C 
ATOM      9  O   UNL     1       3.817   4.506  -9.512  0.00  0.00    -0.245 OA
BRANCH   8  10
ATOM     10  O   UNL     1       2.804   6.397 -10.154  0.00  0.00    -0.445 OA
BRANCH  10  12
ATOM     11  C   UNL     1       2.383   7.553  -8.098  0.00  0.00    +0.051 C 
ATOM     12  C   UNL     1       1.891   6.522  -9.072  0.00  0.00    +0.209 C 
ENDBRANCH  10  12
ENDBRANCH   8  10
ENDBRANCH   1   8
TORSDOF 3
ENDMDL
MODEL 5
REMARK VINA RESULT:      -5.3      3.468      5.395
REMARK  Name = 
REMARK  3 active torsions:
REMARK  status: ('A' for Active; 'I' for Inactive)
REMARK    1  A    between atoms: C_2  and  O_3
REMARK    2  A    between atoms: O_3  and  C_4
REMARK    3  A    between atoms: C_4  and  C_6
REMARK                            x       y       z     vdW  Elec       q    Type
REMARK                         _______ _______ _______ _____ _____    ______ ____
ROOT
ATOM      1  C   UNL     1       5.738   5.992  -9.551  0.00  0.00    +0.076 A 
ATOM      2  C   UNL     1       7.094   5.709  -9.436  0.00  0.00    +0.008 A 
ATOM      3  C   UNL     1       7.897   5.592 -10.564  0.00  0.00    +0.018 A 
ATOM      4  C   UNL     1       7.340   5.638 -11.839  0.00  0.00    +0.089 A 
ATOM      5  N   UNL     1       7.705   4.708 -12.862  0.00  0.00    -0.128 NA
ATOM      6  C   UNL     1       6.177   6.400 -11.906  0.00  0.00    +0.018 A 
ATOM      7  C   UNL     1       5.355   6.500 -10.789  0.00  0.00    +0.008 A 
ENDROOT
BRANCH   1   8
ATOM      8  C   UNL     1       4.759   5.336  -8.673  0.00  0.00    +0.341 C 
ATOM      9  O   UNL     1       4.197   4.266  -9.061  0.00  0.00    -0.245 OA
BRANCH   8  10
ATOM     10  O   UNL     1       4.812   5.477  -7.282  0.00  0.00    -0.445 OA
BRANCH  10  12
ATOM     11  C   UNL     1       3.944   6.825  -5.501  0.00  0.00    +0.051 C 
ATOM     12  C   UNL     1       3.649   5.757  -6.514  0.00  0.00    +0.209 C 
ENDBRANCH  10  12
ENDBRANCH   8  10
ENDBRANCH   1   8
TORSDOF 3
ENDMDL
MODEL 6
REMARK VINA RESULT:      -5.2      7.742      9.315
REMARK  Name = 
REMARK  3 active torsions:
REMARK  status: ('A' for Active; 'I' for Inactive)
REMARK    1  A    between atoms: C_2  and  O_3
REMARK    2  A    between atoms: O_3  and  C_4
REMARK    3  A    between atoms: C_4  and  C_6
REMARK                            x       y       z     vdW  Elec       q    Type
REMARK                         _______ _______ _______ _____ _____    ______ ____
ROOT
ATOM      1  C   UNL     1      -0.340   5.805  -6.154  0.00  0.00    +0.076 A 
ATOM      2  C   UNL     1      -1.592   5.384  -6.585  0.00  0.00    +0.008 A 
ATOM      3  C   UNL     1      -2.692   5.429  -5.737  0.00  0.00    +0.018 A 
ATOM      4  C   UNL     1      -2.542   5.785  -4.400  0.00  0.00    +0.089 A 
ATOM      5  N   UNL     1      -3.172   5.056  -3.343  0.00  0.00    -0.128 NA
ATOM      6  C   UNL     1      -1.472   6.645  -4.174  0.00  0.00    +0.018 A 
ATOM      7  C   UNL     1      -0.356   6.587  -5.004  0.00  0.00    +0.008 A 
ENDROOT
BRANCH   1   8
ATOM      8  C   UNL     1       0.872   5.072  -6.547  0.00  0.00    +0.341 C 
ATOM      9  O   UNL     1       1.118   3.947  -6.013  0.00  0.00    -0.245 OA
BRANCH   8  10
ATOM     10  O   UNL     1       1.453   5.242  -7.809  0.00  0.00    -0.445 OA
BRANCH  10  12
ATOM     11  C   UNL     1       2.484   7.401  -7.691  0.00  0.00    +0.051 C 
ATOM     12  C   UNL     1       1.525   6.517  -8.433  0.00  0.00    +0.209 C 
ENDBRANCH  10  12
ENDBRANCH   8  10
ENDBRANCH   1   8
TORSDOF 3
ENDMDL
MODEL 7
REMARK VINA RESULT:      -5.2      3.220      4.131
REMARK  Name = 
REMARK  3 active torsions:
REMARK  status: ('A' for Active; 'I' for Inactive)
REMARK    1  A    between atoms: C_2  and  O_3
REMARK    2  A    between atoms: O_3  and  C_4
REMARK    3  A    between atoms: C_4  and  C_6
REMARK                            x       y       z     vdW  Elec       q    Type
REMARK                         _______ _______ _______ _____ _____    ______ ____
ROOT
ATOM      1  C   UNL     1       5.043   6.451 -10.299  0.00  0.00    +0.076 A 
ATOM      2  C   UNL     1       5.943   5.698  -9.554  0.00  0.00    +0.008 A 
ATOM      3  C   UNL     1       7.307   5.751  -9.816  0.00  0.00    +0.018 A 
ATOM      4  C   UNL     1       7.792   6.468 -10.905  0.00  0.00    +0.089 A 
ATOM      5  N   UNL     1       8.786   5.935 -11.785  0.00  0.00    -0.128 NA
ATOM      6  C   UNL     1       6.988   7.547 -11.259  0.00  0.00    +0.018 A 
ATOM      7  C   UNL     1       5.618   7.490 -11.024  0.00  0.00    +0.008 A 
ENDROOT
BRANCH   1   8
ATOM      8  C   UNL     1       3.743   5.889 -10.693  0.00  0.00    +0.341 C 
ATOM      9  O   UNL     1       3.043   5.278  -9.828  0.00  0.00    -0.245 OA
BRANCH   8  10
ATOM     10  O   UNL     1       2.998   6.434 -11.745  0.00  0.00    -0.445 OA
BRANCH  10  12
ATOM     11  C   UNL     1       3.986   5.238 -13.571  0.00  0.00    +0.051 C 
ATOM     12  C   UNL     1       2.710   5.689 -12.921  0.00  0.00    +0.209 C 
ENDBRANCH  10  12
ENDBRANCH   8  10
ENDBRANCH   1   8
TORSDOF 3
ENDMDL
MODEL 8
REMARK VINA RESULT:      -5.1      8.245      9.806
REMARK  Name = 
REMARK  3 active torsions:
REMARK  status: ('A' for Active; 'I' for Inactive)
REMARK    1  A    between atoms: C_2  and  O_3
REMARK    2  A    between atoms: O_3  and  C_4
REMARK    3  A    between atoms: C_4  and  C_6
REMARK                            x       y       z     vdW  Elec       q    Type
REMARK                         _______ _______ _______ _____ _____    ______ ____
ROOT
ATOM      1  C   UNL     1      -0.444   6.659  -5.831  0.00  0.00    +0.076 A 
ATOM      2  C   UNL     1      -1.345   5.720  -6.317  0.00  0.00    +0.008 A 
ATOM      3  C   UNL     1      -2.472   5.365  -5.585  0.00  0.00    +0.018 A 
ATOM      4  C   UNL     1      -2.662   5.854  -4.296  0.00  0.00    +0.089 A 
ATOM      5  N   UNL     1      -3.078   5.012  -3.217  0.00  0.00    -0.128 NA
ATOM      6  C   UNL     1      -2.077   7.098  -4.086  0.00  0.00    +0.018 A 
ATOM      7  C   UNL     1      -0.933   7.449  -4.796  0.00  0.00    +0.008 A 
ENDROOT
BRANCH   1   8
ATOM      8  C   UNL     1       1.003   6.474  -6.016  0.00  0.00    +0.341 C 
ATOM      9  O   UNL     1       1.647   7.302  -6.731  0.00  0.00    -0.245 OA
BRANCH   8  10
ATOM     10  O   UNL     1       1.786   5.819  -5.059  0.00  0.00    -0.445 OA
BRANCH  10  12
ATOM     11  C   UNL     1       1.974   3.822  -6.371  0.00  0.00    +0.051 C 
ATOM     12  C   UNL     1       2.658   4.752  -5.411  0.00  0.00    +0.209 C 
ENDBRANCH  10  12
ENDBRANCH   8  10
ENDBRANCH   1   8
TORSDOF 3
ENDMDL
MODEL 9
REMARK VINA RESULT:      -5.0      1.826      2.615
REMARK  Name = 
REMARK  3 active torsions:
REMARK  status: ('A' for Active; 'I' for Inactive)
REMARK    1  A    between atoms: C_2  and  O_3
REMARK    2  A    between atoms: O_3  and  C_4
REMARK    3  A    between atoms: C_4  and  C_6
REMARK                            x       y       z     vdW  Elec       q    Type
REMARK                         _______ _______ _______ _____ _____    ______ ____
ROOT
ATOM      1  C   UNL     1       5.430   6.100 -10.656  0.00  0.00    +0.076 A 
ATOM      2  C   UNL     1       4.279   6.809 -10.331  0.00  0.00    +0.008 A 
ATOM      3  C   UNL     1       3.631   6.601  -9.120  0.00  0.00    +0.018 A 
ATOM      4  C   UNL     1       4.051   5.595  -8.255  0.00  0.00    +0.089 A 
ATOM      5  N   UNL     1       3.129   4.708  -7.615  0.00  0.00    -0.128 NA
ATOM      6  C   UNL     1       5.408   5.307  -8.359  0.00  0.00    +0.018 A 
ATOM      7  C   UNL     1       6.058   5.488  -9.576  0.00  0.00    +0.008 A 
ENDROOT
BRANCH   1   8
ATOM      8  C   UNL     1       5.647   5.614 -12.026  0.00  0.00    +0.341 C 
ATOM      9  O   UNL     1       5.093   6.219 -12.995  0.00  0.00    -0.245 OA
BRANCH   8  10
ATOM     10  O   UNL     1       6.809   4.919 -12.381  0.00  0.00    -0.445 OA
BRANCH  10  12
ATOM     11  C   UNL     1       8.999   5.852 -12.110  0.00  0.00    +0.051 C 
ATOM     12  C   UNL     1       7.880   5.554 -13.066  0.00  0.00    +0.209 C 
ENDBRANCH  10  12
ENDBRANCH   8  10
ENDBRANCH   1   8
TORSDOF 3
ENDMDL
