MODEL 1
REMARK VINA RESULT:      -6.6      0.000      0.000
REMARK  Name = 
REMARK  2 active torsions:
REMARK  status: ('A' for Active; 'I' for Inactive)
REMARK    1  A    between atoms: C_2  and  C_3
REMARK    2  A    between atoms: C_2  and  N_12
REMARK                            x       y       z     vdW  Elec       q    Type
REMARK                         _______ _______ _______ _____ _____    ______ ____
ROOT
ATOM      1  C   UNL     1       3.972   6.288  -9.884  0.00  0.00    +0.026 A 
ATOM      2  S   UNL     1       3.999   6.014 -11.585  0.00  0.00    -0.090 S 
ATOM      3  C   UNL     1       5.695   5.894 -11.833  0.00  0.00    +0.029 A 
ATOM      4  C   UNL     1       6.159   6.322 -10.595  0.00  0.00    +0.006 A 
ATOM      5  C   UNL     1       7.536   6.505 -10.507  0.00  0.00    +0.001 A 
ATOM      6  C   UNL     1       8.354   6.198 -11.555  0.00  0.00    +0.000 A 
ATOM      7  C   UNL     1       7.929   5.376 -12.590  0.00  0.00    +0.001 A 
ATOM      8  C   UNL     1       6.558   5.424 -12.820  0.00  0.00    +0.006 A 
ATOM      9  C   UNL     1       5.293   6.035  -9.589  0.00  0.00    +0.004 A 
ENDROOT
BRANCH   1  11
ATOM     10  C   UNL     1       3.703   5.936  -7.532  0.00  0.00    +0.027 C 
ATOM     11  C   UNL     1       2.943   5.418  -8.931  0.00  0.00    +0.109 C 
BRANCH  11  12
ATOM     12  N   UNL     1       1.868   6.603  -8.873  0.00  0.00    -0.264 N 
ATOM     13  C   UNL     1       0.758   6.327  -9.704  0.00  0.00    +0.188 C 
ATOM     14  O   UNL     1      -0.032   5.414  -9.317  0.00  0.00    -0.524 OA
ATOM     15  N   UNL     1       0.269   7.203 -10.718  0.00  0.00    -0.102 NA
ATOM     16  O   UNL     1       2.322   7.795  -8.526  0.00  0.00    -0.418 OA
ENDBRANCH  11  12
ENDBRANCH   1  11
TORSDOF 2
ENDMDL
MODEL 2
REMARK VINA RESULT:      -6.6      3.772      5.560
REMARK  Name = 
REMARK  2 active torsions:
REMARK  status: ('A' for Active; 'I' for Inactive)
REMARK    1  A    between atoms: C_2  and  C_3
REMARK    2  A    between atoms: C_2  and  N_12
REMARK                            x       y       z     vdW  Elec       q    Type
REMARK                         _______ _______ _______ _____ _____    ______ ____
ROOT
ATOM      1  C   UNL     1       6.033   6.015 -11.315  0.00  0.00    +0.026 A 
ATOM      2  S   UNL     1       4.403   6.570 -11.254  0.00  0.00    -0.090 S 
ATOM      3  C   UNL     1       4.098   6.390  -9.572  0.00  0.00    +0.029 A 
ATOM      4  C   UNL     1       5.224   5.669  -9.191  0.00  0.00    +0.006 A 
ATOM      5  C   UNL     1       5.215   5.201  -7.880  0.00  0.00    +0.001 A 
ATOM      6  C   UNL     1       4.196   5.517  -7.029  0.00  0.00    +0.000 A 
ATOM      7  C   UNL     1       3.334   6.574  -7.289  0.00  0.00    +0.001 A 
ATOM      8  C   UNL     1       3.165   6.842  -8.643  0.00  0.00    +0.006 A 
ATOM      9  C   UNL     1       6.304   5.944  -9.967  0.00  0.00    +0.004 A 
ENDROOT
BRANCH   1  11
ATOM     10  C   UNL     1       8.395   5.855 -11.668  0.00  0.00    +0.027 C 
ATOM     11  C   UNL     1       7.166   6.894 -12.132  0.00  0.00    +0.109 C 
BRANCH  11  12
ATOM     12  N   UNL     1       6.912   6.100 -13.500  0.00  0.00    -0.264 N 
ATOM     13  C   UNL     1       6.037   6.814 -14.351  0.00  0.00    +0.188 C 
ATOM     14  O   UNL     1       6.499   7.863 -14.893  0.00  0.00    -0.524 OA
ATOM     15  N   UNL     1       4.844   6.278 -14.918  0.00  0.00    -0.102 NA
ATOM     16  O   UNL     1       7.089   4.790 -13.462  0.00  0.00    -0.418 OA
ENDBRANCH  11  12
ENDBRANCH   1  11
TORSDOF 2
ENDMDL
MODEL 3
REMARK VINA RESULT:      -6.5      6.112      7.876
REMARK  Name = 
REMARK  2 active torsions:
REMARK  status: ('A' for Active; 'I' for Inactive)
REMARK    1  A    between atoms: C_2  and  C_3
REMARK    2  A    between atoms: C_2  and  N_12
REMARK                            x       y       z     vdW  Elec       q    Type
REMARK                         _______ _______ _______ _____ _____    ______ ____
ROOT
ATOM      1  C   UNL     1      -0.540   6.089  -4.379  0.00  0.00    +0.026 A 
ATOM      2  S   UNL     1       1.061   6.629  -4.721  0.00  0.00    -0.090 S 
ATOM      3  C   UNL     1       1.046   6.514  -6.436  0.00  0.00    +0.029 A 
ATOM      4  C   UNL     1      -0.142   5.821  -6.629  0.00  0.00    +0.006 A 
ATOM      5  C   UNL     1      -0.384   5.406  -7.935  0.00  0.00    +0.001 A 
ATOM      6  C   UNL     1       0.465   5.745  -8.948  0.00  0.00    +0.000 A 
ATOM      7  C   UNL     1       1.379   6.782  -8.812  0.00  0.00    +0.001 A 
ATOM      8  C   UNL     1       1.800   6.994  -7.504  0.00  0.00    +0.006 A 
ATOM      9  C   UNL     1      -1.056   6.075  -5.656  0.00  0.00    +0.004 A 
ENDROOT
BRANCH   1  11
ATOM     10  C   UNL     1      -2.889   6.456  -4.107  0.00  0.00    +0.027 C 
ATOM     11  C   UNL     1      -1.487   6.946  -3.334  0.00  0.00    +0.109 C 
BRANCH  11  12
ATOM     12  N   UNL     1      -1.557   5.739  -2.283  0.00  0.00    -0.264 N 
ATOM     13  C   UNL     1      -0.366   5.651  -1.526  0.00  0.00    +0.188 C 
ATOM     14  O   UNL     1      -0.167   6.562  -0.667  0.00  0.00    -0.524 OA
ATOM     15  N   UNL     1       0.424   4.470  -1.396  0.00  0.00    -0.102 NA
ATOM     16  O   UNL     1      -2.388   4.753  -2.573  0.00  0.00    -0.418 OA
ENDBRANCH  11  12
ENDBRANCH   1  11
TORSDOF 2
ENDMDL
MODEL 4
REMARK VINA RESULT:      -6.3      1.867      2.193
REMARK  Name = 
REMARK  2 active torsions:
REMARK  status: ('A' for Active; 'I' for Inactive)
REMARK    1  A    between atoms: C_2  and  C_3
REMARK    2  A    between atoms: C_2  and  N_12
REMARK                            x       y       z     vdW  Elec       q    Type
REMARK                         _______ _______ _______ _____ _____    ______ ____
ROOT
ATOM      1  C   UNL     1       3.018   5.594  -9.804  0.00  0.00    +0.026 A 
ATOM      2  S   UNL     1       4.363   4.608  -9.365  0.00  0.00    -0.090 S 
ATOM      3  C   UNL     1       5.649   5.671  -9.777  0.00  0.00    +0.029 A 
ATOM      4  C   UNL     1       4.949   6.653 -10.468  0.00  0.00    +0.006 A 
ATOM      5  C   UNL     1       5.736   7.612 -11.098  0.00  0.00    +0.001 A 
ATOM      6  C   UNL     1       7.093   7.609 -10.959  0.00  0.00    +0.000 A 
ATOM      7  C   UNL     1       7.715   6.909  -9.933  0.00  0.00    +0.001 A 
ATOM      8  C   UNL     1       7.009   5.790  -9.506  0.00  0.00    +0.006 A 
ATOM      9  C   UNL     1       3.670   6.785 -10.029  0.00  0.00    +0.004 A 
ENDROOT
BRANCH   1  11
ATOM     10  C   UNL     1       2.095   7.384  -8.512  0.00  0.00    +0.027 C 
ATOM     11  C   UNL     1       1.753   5.763  -8.758  0.00  0.00    +0.109 C 
BRANCH  11  12
ATOM     12  N   UNL     1       0.718   6.085  -9.938  0.00  0.00    -0.264 N 
ATOM     13  C   UNL     1       0.651   5.019 -10.864  0.00  0.00    +0.188 C 
ATOM     14  O   UNL     1       0.077   3.959 -10.472  0.00  0.00    -0.524 OA
ATOM     15  N   UNL     1       0.842   5.157 -12.271  0.00  0.00    -0.102 NA
ATOM     16  O   UNL     1       0.479   7.363 -10.179  0.00  0.00    -0.418 OA
ENDBRANCH  11  12
ENDBRANCH   1  11
TORSDOF 2
ENDMDL
MODEL 5
REMARK VINA RESULT:      -6.2      5.309      8.726
REMARK  Name = 
REMARK  2 active torsions:
REMARK  status: ('A' for Active; 'I' for Inactive)
REMARK    1  A    between atoms: C_2  and  C_3
REMARK    2  A    between atoms: C_2  and  N_12
REMARK                            x       y       z     vdW  Elec       q    Type
REMARK                         _______ _______ _______ _____ _____    ______ ____
ROOT
ATOM      1  C   UNL     1       1.060   6.356  -5.262  0.00  0.00    +0.026 A 
ATOM      2  S   UNL     1       0.969   5.635  -3.698  0.00  0.00    -0.090 S 
ATOM      3  C   UNL     1      -0.703   5.860  -3.372  0.00  0.00    +0.029 A 
ATOM      4  C   UNL     1      -1.048   6.711  -4.414  0.00  0.00    +0.006 A 
ATOM      5  C   UNL     1      -2.337   7.235  -4.352  0.00  0.00    +0.001 A 
ATOM      6  C   UNL     1      -3.203   6.854  -3.370  0.00  0.00    +0.000 A 
ATOM      7  C   UNL     1      -2.993   5.701  -2.625  0.00  0.00    +0.001 A 
ATOM      8  C   UNL     1      -1.653   5.354  -2.489  0.00  0.00    +0.006 A 
ATOM      9  C   UNL     1      -0.283   6.517  -5.519  0.00  0.00    +0.004 A 
ENDROOT
BRANCH   1  11
ATOM     10  C   UNL     1       0.821   6.223  -7.639  0.00  0.00    +0.027 C 
ATOM     11  C   UNL     1       1.838   5.564  -6.483  0.00  0.00    +0.109 C 
BRANCH  11  12
ATOM     12  N   UNL     1       2.917   6.734  -6.660  0.00  0.00    -0.264 N 
ATOM     13  C   UNL     1       3.946   6.631  -5.696  0.00  0.00    +0.188 C 
ATOM     14  O   UNL     1       4.766   5.673  -5.837  0.00  0.00    -0.524 OA
ATOM     15  N   UNL     1       4.343   7.684  -4.820  0.00  0.00    -0.102 NA
ATOM     16  O   UNL     1       2.500   7.835  -7.260  0.00  0.00    -0.418 OA
ENDBRANCH  11  12
ENDBRANCH   1  11
TORSDOF 2
ENDMDL
MODEL 6
REMARK VINA RESULT:      -6.2      6.041      7.372
REMARK  Name = 
REMARK  2 active torsions:
REMARK  status: ('A' for Active; 'I' for Inactive)
REMARK    1  A    between atoms: C_2  and  C_3
REMARK    2  A    between atoms: C_2  and  N_12
REMARK                            x       y       z     vdW  Elec       q    Type
REMARK                         _______ _______ _______ _____ _____    ______ ____
ROOT
ATOM      1  C   UNL     1       3.166   6.926  -4.173  0.00  0.00    +0.026 A 
ATOM      2  S   UNL     1       1.604   6.214  -4.323  0.00  0.00    -0.090 S 
ATOM      3  C   UNL     1       1.420   6.275  -6.031  0.00  0.00    +0.029 A 
ATOM      4  C   UNL     1       2.501   7.080  -6.369  0.00  0.00    +0.006 A 
ATOM      5  C   UNL     1       2.554   7.475  -7.703  0.00  0.00    +0.001 A 
ATOM      6  C   UNL     1       1.640   7.018  -8.607  0.00  0.00    +0.000 A 
ATOM      7  C   UNL     1       0.861   5.898  -8.349  0.00  0.00    +0.001 A 
ATOM      8  C   UNL     1       0.610   5.687  -6.998  0.00  0.00    +0.006 A 
ATOM      9  C   UNL     1       3.536   6.952  -5.499  0.00  0.00    +0.004 A 
ENDROOT
BRANCH   1  11
ATOM     10  C   UNL     1       5.494   7.269  -3.733  0.00  0.00    +0.027 C 
ATOM     11  C   UNL     1       4.306   6.205  -3.222  0.00  0.00    +0.109 C 
BRANCH  11  12
ATOM     12  N   UNL     1       3.936   7.111  -1.954  0.00  0.00    -0.264 N 
ATOM     13  C   UNL     1       3.415   6.326  -0.900  0.00  0.00    +0.188 C 
ATOM     14  O   UNL     1       4.234   5.575  -0.290  0.00  0.00    -0.524 OA
ATOM     15  N   UNL     1       2.169   6.570  -0.250  0.00  0.00    -0.102 NA
ATOM     16  O   UNL     1       3.683   8.386  -2.195  0.00  0.00    -0.418 OA
ENDBRANCH  11  12
ENDBRANCH   1  11
TORSDOF 2
ENDMDL
MODEL 7
REMARK VINA RESULT:      -6.1      3.562      5.928
REMARK  Name = 
REMARK  2 active torsions:
REMARK  status: ('A' for Active; 'I' for Inactive)
REMARK    1  A    between atoms: C_2  and  C_3
REMARK    2  A    between atoms: C_2  and  N_12
REMARK                            x       y       z     vdW  Elec       q    Type
REMARK                         _______ _______ _______ _____ _____    ______ ____
ROOT
ATOM      1  C   UNL     1       4.900   6.117 -10.093  0.00  0.00    +0.026 A 
ATOM      2  S   UNL     1       5.278   5.368  -8.587  0.00  0.00    -0.090 S 
ATOM      3  C   UNL     1       3.897   5.835  -7.677  0.00  0.00    +0.029 A 
ATOM      4  C   UNL     1       3.331   6.764  -8.541  0.00  0.00    +0.006 A 
ATOM      5  C   UNL     1       2.252   7.477  -8.026  0.00  0.00    +0.001 A 
ATOM      6  C   UNL     1       1.757   7.200  -6.784  0.00  0.00    +0.000 A 
ATOM      7  C   UNL     1       2.043   6.005  -6.139  0.00  0.00    +0.001 A 
ATOM      8  C   UNL     1       3.269   5.453  -6.494  0.00  0.00    +0.006 A 
ATOM      9  C   UNL     1       3.599   6.490  -9.845  0.00  0.00    +0.004 A 
ENDROOT
BRANCH   1  11
ATOM     10  C   UNL     1       3.866   6.173 -12.250  0.00  0.00    +0.027 C 
ATOM     11  C   UNL     1       5.045   5.256 -11.494  0.00  0.00    +0.109 C 
BRANCH  11  12
ATOM     12  N   UNL     1       6.226   6.191 -12.039  0.00  0.00    -0.264 N 
ATOM     13  C   UNL     1       7.398   5.441 -12.290  0.00  0.00    +0.188 C 
ATOM     14  O   UNL     1       7.374   4.662 -13.290  0.00  0.00    -0.524 OA
ATOM     15  N   UNL     1       8.683   5.743 -11.750  0.00  0.00    -0.102 NA
ATOM     16  O   UNL     1       6.157   7.472 -11.722  0.00  0.00    -0.418 OA
ENDBRANCH  11  12
ENDBRANCH   1  11
TORSDOF 2
ENDMDL
MODEL 8
REMARK VINA RESULT:      -6.1      4.511      7.998
REMARK  Name = 
REMARK  2 active torsions:
REMARK  status: ('A' for Active; 'I' for Inactive)
REMARK    1  A    between atoms: C_2  and  C_3
REMARK    2  A    between atoms: C_2  and  N_12
REMARK                            x       y       z     vdW  Elec       q    Type
REMARK                         _______ _______ _______ _____ _____    ______ ____
ROOT
ATOM      1  C   UNL     1       0.674   5.823  -6.873  0.00  0.00    +0.026 A 
ATOM      2  S   UNL     1       1.186   5.520  -5.255  0.00  0.00    -0.090 S 
ATOM      3  C   UNL     1      -0.319   5.679  -4.441  0.00  0.00    +0.029 A 
ATOM      4  C   UNL     1      -1.101   6.205  -5.462  0.00  0.00    +0.006 A 
ATOM      5  C   UNL     1      -2.376   6.617  -5.083  0.00  0.00    +0.001 A 
ATOM      6  C   UNL     1      -2.825   6.427  -3.809  0.00  0.00    +0.000 A 
ATOM      7  C   UNL     1      -2.212   5.524  -2.951  0.00  0.00    +0.001 A 
ATOM      8  C   UNL     1      -0.858   5.338  -3.203  0.00  0.00    +0.006 A 
ATOM      9  C   UNL     1      -0.690   5.800  -6.691  0.00  0.00    +0.004 A 
ENDROOT
BRANCH   1  11
ATOM     10  C   UNL     1       0.194   5.601  -9.207  0.00  0.00    +0.027 C 
ATOM     11  C   UNL     1       1.159   4.815  -8.086  0.00  0.00    +0.109 C 
BRANCH  11  12
ATOM     12  N   UNL     1       2.432   5.721  -8.438  0.00  0.00    -0.264 N 
ATOM     13  C   UNL     1       3.638   5.028  -8.186  0.00  0.00    +0.188 C 
ATOM     14  O   UNL     1       3.928   4.081  -8.977  0.00  0.00    -0.524 OA
ATOM     15  N   UNL     1       4.698   5.520  -7.367  0.00  0.00    -0.102 NA
ATOM     16  O   UNL     1       2.248   7.030  -8.414  0.00  0.00    -0.418 OA
ENDBRANCH  11  12
ENDBRANCH   1  11
TORSDOF 2
ENDMDL
MODEL 9
REMARK VINA RESULT:      -6.0      1.914      2.788
REMARK  Name = 
REMARK  2 active torsions:
REMARK  status: ('A' for Active; 'I' for Inactive)
REMARK    1  A    between atoms: C_2  and  C_3
REMARK    2  A    between atoms: C_2  and  N_12
REMARK                            x       y       z     vdW  Elec       q    Type
REMARK                         _______ _______ _______ _____ _____    ______ ____
ROOT
ATOM      1  C   UNL     1       3.806   5.175  -9.591  0.00  0.00    +0.026 A 
ATOM      2  S   UNL     1       5.306   5.402  -8.773  0.00  0.00    -0.090 S 
ATOM      3  C   UNL     1       6.321   5.744 -10.118  0.00  0.00    +0.029 A 
ATOM      4  C   UNL     1       5.467   5.417 -11.164  0.00  0.00    +0.006 A 
ATOM      5  C   UNL     1       6.046   5.424 -12.429  0.00  0.00    +0.001 A 
ATOM      6  C   UNL     1       7.343   5.810 -12.606  0.00  0.00    +0.000 A 
ATOM      7  C   UNL     1       8.021   6.537 -11.637  0.00  0.00    +0.001 A 
ATOM      8  C   UNL     1       7.578   6.298 -10.340  0.00  0.00    +0.006 A 
ATOM      9  C   UNL     1       4.160   5.612 -10.847  0.00  0.00    +0.004 A 
ENDROOT
BRANCH   1  11
ATOM     10  C   UNL     1       1.609   5.593 -10.442  0.00  0.00    +0.027 C 
ATOM     11  C   UNL     1       2.447   5.924  -9.030  0.00  0.00    +0.109 C 
BRANCH  11  12
ATOM     12  N   UNL     1       1.913   4.594  -8.314  0.00  0.00    -0.264 N 
ATOM     13  C   UNL     1       1.317   4.889  -7.067  0.00  0.00    +0.188 C 
ATOM     14  O   UNL     1       0.197   5.481  -7.095  0.00  0.00    -0.524 OA
ATOM     15  N   UNL     1       1.681   4.275  -5.831  0.00  0.00    -0.102 NA
ATOM     16  O   UNL     1       2.494   3.461  -8.668  0.00  0.00    -0.418 OA
ENDBRANCH  11  12
ENDBRANCH   1  11
TORSDOF 2
ENDMDL
