MODEL 1
REMARK VINA RESULT:      -5.2      0.000      0.000
REMARK  Name = 
REMARK  0 active torsions:
REMARK  status: ('A' for Active; 'I' for Inactive)
REMARK                            x       y       z     vdW  Elec       q    Type
REMARK                         _______ _______ _______ _____ _____    ______ ____
ROOT
ATOM      1 CL   UNL     1       6.168   5.454  -9.005  0.00  0.00    -0.112 Cl
ATOM      2  C   UNL     1       4.404   4.882  -9.122  0.00  0.00    +0.112 C 
ATOM      3  C   UNL     1       3.998   5.457 -10.593  0.00  0.00    +0.112 C 
ATOM      4 CL   UNL     1       4.818   7.120 -10.504  0.00  0.00    -0.112 Cl
ATOM      5  C   UNL     1       2.522   6.074 -10.285  0.00  0.00    +0.112 C 
ATOM      6 CL   UNL     1       1.747   5.576 -11.889  0.00  0.00    -0.112 Cl
ATOM      7  C   UNL     1       1.999   4.799  -9.439  0.00  0.00    +0.112 C 
ATOM      8 CL   UNL     1       0.195   5.223  -9.470  0.00  0.00    -0.112 Cl
ATOM      9  C   UNL     1       2.359   5.380  -7.958  0.00  0.00    +0.112 C 
ATOM     10 CL   UNL     1       1.406   6.976  -7.960  0.00  0.00    -0.112 Cl
ATOM     11  C   UNL     1       3.778   6.111  -8.275  0.00  0.00    +0.112 C 
ATOM     12 CL   UNL     1       4.570   5.644  -6.674  0.00  0.00    -0.112 Cl
ENDROOT
TORSDOF 0
ENDMDL
MODEL 2
REMARK VINA RESULT:      -5.2      0.049      4.290
REMARK  Name = 
REMARK  0 active torsions:
REMARK  status: ('A' for Active; 'I' for Inactive)
REMARK                            x       y       z     vdW  Elec       q    Type
REMARK                         _______ _______ _______ _____ _____    ______ ____
ROOT
ATOM      1 CL   UNL     1       0.185   5.197  -9.512  0.00  0.00    -0.112 Cl
ATOM      2  C   UNL     1       1.990   4.772  -9.410  0.00  0.00    +0.112 C 
ATOM      3  C   UNL     1       2.350   5.343  -7.924  0.00  0.00    +0.112 C 
ATOM      4 CL   UNL     1       1.393   6.933  -7.973  0.00  0.00    -0.112 Cl
ATOM      5  C   UNL     1       3.768   6.089  -8.217  0.00  0.00    +0.112 C 
ATOM      6 CL   UNL     1       4.586   5.618  -6.627  0.00  0.00    -0.112 Cl
ATOM      7  C   UNL     1       4.394   4.884  -9.095  0.00  0.00    +0.112 C 
ATOM      8 CL   UNL     1       6.157   5.457  -9.054  0.00  0.00    -0.112 Cl
ATOM      9  C   UNL     1       3.983   5.469 -10.561  0.00  0.00    +0.112 C 
ATOM     10 CL   UNL     1       4.799   7.138 -10.520  0.00  0.00    -0.112 Cl
ATOM     11  C   UNL     1       2.509   6.069 -10.226  0.00  0.00    +0.112 C 
ATOM     12 CL   UNL     1       1.755   5.577 -11.838  0.00  0.00    -0.112 Cl
ENDROOT
TORSDOF 0
ENDMDL
MODEL 3
REMARK VINA RESULT:      -5.2      3.073      5.955
REMARK  Name = 
REMARK  0 active torsions:
REMARK  status: ('A' for Active; 'I' for Inactive)
REMARK                            x       y       z     vdW  Elec       q    Type
REMARK                         _______ _______ _______ _____ _____    ______ ____
ROOT
ATOM      1 CL   UNL     1      -1.861   5.619  -6.412  0.00  0.00    -0.112 Cl
ATOM      2  C   UNL     1      -0.138   5.113  -5.937  0.00  0.00    +0.112 C 
ATOM      3  C   UNL     1       0.015   5.877  -4.503  0.00  0.00    +0.112 C 
ATOM      4 CL   UNL     1      -0.789   7.493  -4.935  0.00  0.00    -0.112 Cl
ATOM      5  C   UNL     1       1.518   6.490  -4.641  0.00  0.00    +0.112 C 
ATOM      6 CL   UNL     1       2.019   6.215  -2.882  0.00  0.00    -0.112 Cl
ATOM      7  C   UNL     1       2.182   5.134  -5.222  0.00  0.00    +0.112 C 
ATOM      8 CL   UNL     1       3.954   5.607  -4.950  0.00  0.00    -0.112 Cl
ATOM      9  C   UNL     1       2.069   5.518  -6.803  0.00  0.00    +0.112 C 
ATOM     10 CL   UNL     1       2.999   7.127  -6.847  0.00  0.00    -0.112 Cl
ATOM     11  C   UNL     1       0.613   6.244  -6.818  0.00  0.00    +0.112 C 
ATOM     12 CL   UNL     1       0.100   5.562  -8.455  0.00  0.00    -0.112 Cl
ENDROOT
TORSDOF 0
ENDMDL
MODEL 4
REMARK VINA RESULT:      -5.2      3.048      4.144
REMARK  Name = 
REMARK  0 active torsions:
REMARK  status: ('A' for Active; 'I' for Inactive)
REMARK                            x       y       z     vdW  Elec       q    Type
REMARK                         _______ _______ _______ _____ _____    ______ ____
ROOT
ATOM      1 CL   UNL     1       3.857   5.474  -4.899  0.00  0.00    -0.112 Cl
ATOM      2  C   UNL     1       2.099   5.031  -5.304  0.00  0.00    +0.112 C 
ATOM      3  C   UNL     1       2.034   5.462  -6.876  0.00  0.00    +0.112 C 
ATOM      4 CL   UNL     1       2.983   7.056  -6.790  0.00  0.00    -0.112 Cl
ATOM      5  C   UNL     1       0.595   6.224  -6.926  0.00  0.00    +0.112 C 
ATOM      6 CL   UNL     1       0.088   5.605  -8.594  0.00  0.00    -0.112 Cl
ATOM      7  C   UNL     1      -0.200   5.100  -6.078  0.00  0.00    +0.112 C 
ATOM      8 CL   UNL     1      -1.917   5.657  -6.505  0.00  0.00    -0.112 Cl
ATOM      9  C   UNL     1      -0.069   5.819  -4.620  0.00  0.00    +0.112 C 
ATOM     10 CL   UNL     1      -0.843   7.473  -4.966  0.00  0.00    -0.112 Cl
ATOM     11  C   UNL     1       1.449   6.395  -4.722  0.00  0.00    +0.112 C 
ATOM     12 CL   UNL     1       1.877   6.056  -2.958  0.00  0.00    -0.112 Cl
ENDROOT
TORSDOF 0
ENDMDL
MODEL 5
REMARK VINA RESULT:      -5.1      5.681      7.929
REMARK  Name = 
REMARK  0 active torsions:
REMARK  status: ('A' for Active; 'I' for Inactive)
REMARK                            x       y       z     vdW  Elec       q    Type
REMARK                         _______ _______ _______ _____ _____    ______ ____
ROOT
ATOM      1 CL   UNL     1      -2.588   6.162  -6.349  0.00  0.00    -0.112 Cl
ATOM      2  C   UNL     1      -2.032   5.536  -4.691  0.00  0.00    +0.112 C 
ATOM      3  C   UNL     1      -2.568   6.734  -3.721  0.00  0.00    +0.112 C 
ATOM      4 CL   UNL     1      -2.118   8.196  -4.773  0.00  0.00    -0.112 Cl
ATOM      5  C   UNL     1      -1.282   6.936  -2.743  0.00  0.00    +0.112 C 
ATOM      6 CL   UNL     1      -2.243   7.246  -1.194  0.00  0.00    -0.112 Cl
ATOM      7  C   UNL     1      -1.042   5.357  -2.482  0.00  0.00    +0.112 C 
ATOM      8 CL   UNL     1       0.084   5.531  -1.019  0.00  0.00    -0.112 Cl
ATOM      9  C   UNL     1       0.091   5.133  -3.634  0.00  0.00    +0.112 C 
ATOM     10 CL   UNL     1       1.368   6.385  -3.126  0.00  0.00    -0.112 Cl
ATOM     11  C   UNL     1      -0.512   6.077  -4.814  0.00  0.00    +0.112 C 
ATOM     12 CL   UNL     1      -0.034   4.949  -6.194  0.00  0.00    -0.112 Cl
ENDROOT
TORSDOF 0
ENDMDL
MODEL 6
REMARK VINA RESULT:      -5.0      2.099      3.267
REMARK  Name = 
REMARK  0 active torsions:
REMARK  status: ('A' for Active; 'I' for Inactive)
REMARK                            x       y       z     vdW  Elec       q    Type
REMARK                         _______ _______ _______ _____ _____    ______ ____
ROOT
ATOM      1 CL   UNL     1       3.373   5.162 -10.091  0.00  0.00    -0.112 Cl
ATOM      2  C   UNL     1       2.612   4.602  -8.492  0.00  0.00    +0.112 C 
ATOM      3  C   UNL     1       1.099   5.189  -8.657  0.00  0.00    +0.112 C 
ATOM      4 CL   UNL     1       1.497   6.846  -9.393  0.00  0.00    -0.112 Cl
ATOM      5  C   UNL     1       0.848   5.814  -7.174  0.00  0.00    +0.112 C 
ATOM      6 CL   UNL     1      -0.932   5.331  -7.040  0.00  0.00    -0.112 Cl
ATOM      7  C   UNL     1       1.433   4.537  -6.371  0.00  0.00    +0.112 C 
ATOM      8 CL   UNL     1       0.744   4.973  -4.706  0.00  0.00    -0.112 Cl
ATOM      9  C   UNL     1       2.947   5.106  -6.164  0.00  0.00    +0.112 C 
ATOM     10 CL   UNL     1       2.609   6.708  -5.284  0.00  0.00    -0.112 Cl
ATOM     11  C   UNL     1       3.179   5.829  -7.602  0.00  0.00    +0.112 C 
ATOM     12 CL   UNL     1       4.955   5.347  -7.749  0.00  0.00    -0.112 Cl
ENDROOT
TORSDOF 0
ENDMDL
MODEL 7
REMARK VINA RESULT:      -5.0      2.101      4.186
REMARK  Name = 
REMARK  0 active torsions:
REMARK  status: ('A' for Active; 'I' for Inactive)
REMARK                            x       y       z     vdW  Elec       q    Type
REMARK                         _______ _______ _______ _____ _____    ______ ____
ROOT
ATOM      1 CL   UNL     1       0.670   5.000  -4.713  0.00  0.00    -0.112 Cl
ATOM      2  C   UNL     1       1.436   4.546  -6.343  0.00  0.00    +0.112 C 
ATOM      3  C   UNL     1       2.946   5.128  -6.139  0.00  0.00    +0.112 C 
ATOM      4 CL   UNL     1       2.540   6.733  -5.299  0.00  0.00    -0.112 Cl
ATOM      5  C   UNL     1       3.196   5.848  -7.579  0.00  0.00    +0.112 C 
ATOM      6 CL   UNL     1       4.978   5.381  -7.740  0.00  0.00    -0.112 Cl
ATOM      7  C   UNL     1       2.618   4.622  -8.462  0.00  0.00    +0.112 C 
ATOM      8 CL   UNL     1       3.306   5.167 -10.095  0.00  0.00    -0.112 Cl
ATOM      9  C   UNL     1       1.101   5.197  -8.634  0.00  0.00    +0.112 C 
ATOM     10 CL   UNL     1       1.434   6.853  -9.410  0.00  0.00    -0.112 Cl
ATOM     11  C   UNL     1       0.864   5.826  -7.153  0.00  0.00    +0.112 C 
ATOM     12 CL   UNL     1      -0.910   5.328  -7.040  0.00  0.00    -0.112 Cl
ENDROOT
TORSDOF 0
ENDMDL
MODEL 8
REMARK VINA RESULT:      -4.9      3.303      5.496
REMARK  Name = 
REMARK  0 active torsions:
REMARK  status: ('A' for Active; 'I' for Inactive)
REMARK                            x       y       z     vdW  Elec       q    Type
REMARK                         _______ _______ _______ _____ _____    ______ ____
ROOT
ATOM      1 CL   UNL     1      -0.380   5.284  -6.044  0.00  0.00    -0.112 Cl
ATOM      2  C   UNL     1       1.160   6.295  -5.802  0.00  0.00    +0.112 C 
ATOM      3  C   UNL     1       2.217   5.459  -6.722  0.00  0.00    +0.112 C 
ATOM      4 CL   UNL     1       1.714   3.731  -6.265  0.00  0.00    -0.112 Cl
ATOM      5  C   UNL     1       3.519   5.430  -5.745  0.00  0.00    +0.112 C 
ATOM      6 CL   UNL     1       4.786   5.640  -7.077  0.00  0.00    -0.112 Cl
ATOM      7  C   UNL     1       3.438   6.993  -5.338  0.00  0.00    +0.112 C 
ATOM      8 CL   UNL     1       5.143   7.137  -4.623  0.00  0.00    -0.112 Cl
ATOM      9  C   UNL     1       2.608   6.795  -3.948  0.00  0.00    +0.112 C 
ATOM     10 CL   UNL     1       3.727   5.631  -3.028  0.00  0.00    -0.112 Cl
ATOM     11  C   UNL     1       1.581   5.616  -4.394  0.00  0.00    +0.112 C 
ATOM     12 CL   UNL     1       0.142   6.276  -3.443  0.00  0.00    -0.112 Cl
ENDROOT
TORSDOF 0
ENDMDL
MODEL 9
REMARK VINA RESULT:      -4.9      5.564      7.585
REMARK  Name = 
REMARK  0 active torsions:
REMARK  status: ('A' for Active; 'I' for Inactive)
REMARK                            x       y       z     vdW  Elec       q    Type
REMARK                         _______ _______ _______ _____ _____    ______ ____
ROOT
ATOM      1 CL   UNL     1       0.413   6.328  -6.598  0.00  0.00    -0.112 Cl
ATOM      2  C   UNL     1      -0.515   6.982  -5.128  0.00  0.00    +0.112 C 
ATOM      3  C   UNL     1       0.478   6.524  -3.917  0.00  0.00    +0.112 C 
ATOM      4 CL   UNL     1       0.923   4.825  -4.519  0.00  0.00    -0.112 Cl
ATOM      5  C   UNL     1      -0.598   5.951  -2.837  0.00  0.00    +0.112 C 
ATOM      6 CL   UNL     1       0.260   6.588  -1.328  0.00  0.00    -0.112 Cl
ATOM      7  C   UNL     1      -1.630   7.188  -2.982  0.00  0.00    +0.112 C 
ATOM      8 CL   UNL     1      -2.621   6.845  -1.453  0.00  0.00    -0.112 Cl
ATOM      9  C   UNL     1      -2.622   6.495  -4.075  0.00  0.00    +0.112 C 
ATOM     10 CL   UNL     1      -3.116   4.945  -3.176  0.00  0.00    -0.112 Cl
ATOM     11  C   UNL     1      -1.530   5.727  -5.005  0.00  0.00    +0.112 C 
ATOM     12 CL   UNL     1      -2.406   6.052  -6.597  0.00  0.00    -0.112 Cl
ENDROOT
TORSDOF 0
ENDMDL
