MODEL 1
REMARK VINA RESULT:      -9.9      0.000      0.000
REMARK  Name = 
REMARK  4 active torsions:
REMARK  status: ('A' for Active; 'I' for Inactive)
REMARK    1  A    between atoms: C_8  and  C_9
REMARK    2  A    between atoms: C_9  and  C_10
REMARK    3  A    between atoms: C_10  and  N_11
REMARK    4  A    between atoms: C_14  and  C_15
REMARK                            x       y       z     vdW  Elec       q    Type
REMARK                         _______ _______ _______ _____ _____    ______ ____
ROOT
ATOM      1  N   UNL     1       2.228   6.107  -6.757  0.00  0.00    -0.272 NA
ATOM      2  C   UNL     1       2.712   7.372  -7.264  0.00  0.00    +0.072 C 
ATOM      3  C   UNL     1       2.771   7.227  -8.780  0.00  0.00    +0.023 C 
ATOM      4  C   UNL     1       4.012   6.431  -9.070  0.00  0.00    +0.046 C 
ATOM      5  C   UNL     1       3.986   5.197  -8.228  0.00  0.00    +0.023 C 
ATOM      6  C   UNL     1       2.690   4.972  -7.506  0.00  0.00    +0.072 C 
ENDROOT
BRANCH   4   7
ATOM      7  C   UNL     1       4.238   6.192 -10.501  0.00  0.00    +0.100 A 
ATOM      8  C   UNL     1       5.397   6.552 -11.176  0.00  0.00    +0.054 A 
ATOM      9  C   UNL     1       5.542   5.669 -12.240  0.00  0.00    +0.179 A 
ATOM     10  C   UNL     1       6.777   5.528 -12.864  0.00  0.00    +0.070 A 
ATOM     11  C   UNL     1       7.904   6.014 -12.218  0.00  0.00    +0.143 A 
ATOM     12  C   UNL     1       7.723   7.136 -11.423  0.00  0.00    +0.030 A 
ATOM     13  F   UNL     1       9.090   5.340 -12.218  0.00  0.00    -0.204 F 
ATOM     14  O   UNL     1       4.372   5.082 -12.346  0.00  0.00    -0.354 OA
ATOM     15  C   UNL     1       6.459   7.398 -10.908  0.00  0.00    +0.007 A 
ATOM     16  N   UNL     1       3.575   5.422 -11.388  0.00  0.00    -0.081 NA
ENDBRANCH   4   7
BRANCH   1  17
ATOM     17  C   UNL     1       0.775   6.147  -6.909  0.00  0.00    +0.077 C 
BRANCH  17  18
ATOM     18  C   UNL     1       0.217   4.868  -6.302  0.00  0.00    +0.050 C 
BRANCH  18  21
ATOM     19  C   UNL     1      -2.498   5.779  -6.569  0.00  0.00    +0.052 C 
ATOM     20  C   UNL     1      -1.715   6.019  -5.339  0.00  0.00    +0.061 A 
ATOM     21  C   UNL     1      -0.584   5.252  -5.115  0.00  0.00    +0.049 A 
ATOM     22  C   UNL     1       0.118   5.506  -3.943  0.00  0.00    +0.259 A 
ATOM     23  O   UNL     1       1.345   5.241  -3.823  0.00  0.00    -0.267 OA
ATOM     24  N   UNL     1      -0.488   6.186  -2.943  0.00  0.00    -0.284 N 
ATOM     25  C   UNL     1      -0.050   5.989  -1.564  0.00  0.00    +0.110 C 
ATOM     26  C   UNL     1      -1.314   5.917  -0.719  0.00  0.00    +0.025 C 
ATOM     27  C   UNL     1      -2.082   7.209  -0.782  0.00  0.00    +0.010 C 
ATOM     28  C   UNL     1      -2.158   7.779  -2.173  0.00  0.00    +0.064 C 
ATOM     29  C   UNL     1      -1.621   6.848  -3.200  0.00  0.00    +0.122 A 
ATOM     30  N   UNL     1      -2.252   6.808  -4.377  0.00  0.00    -0.237 NA
ENDBRANCH  18  21
ENDBRANCH  17  18
ENDBRANCH   1  17
TORSDOF 4
ENDMDL
MODEL 2
REMARK VINA RESULT:      -9.9      3.408      8.755
REMARK  Name = 
REMARK  4 active torsions:
REMARK  status: ('A' for Active; 'I' for Inactive)
REMARK    1  A    between atoms: C_8  and  C_9
REMARK    2  A    between atoms: C_9  and  C_10
REMARK    3  A    between atoms: C_10  and  N_11
REMARK    4  A    between atoms: C_14  and  C_15
REMARK                            x       y       z     vdW  Elec       q    Type
REMARK                         _______ _______ _______ _____ _____    ______ ____
ROOT
ATOM      1  N   UNL     1       4.158   6.227  -5.364  0.00  0.00    -0.272 NA
ATOM      2  C   UNL     1       3.843   4.873  -4.965  0.00  0.00    +0.072 C 
ATOM      3  C   UNL     1       2.355   4.863  -4.637  0.00  0.00    +0.023 C 
ATOM      4  C   UNL     1       2.229   5.485  -3.275  0.00  0.00    +0.046 C 
ATOM      5  C   UNL     1       2.957   6.790  -3.285  0.00  0.00    +0.023 C 
ATOM      6  C   UNL     1       3.419   7.226  -4.645  0.00  0.00    +0.072 C 
ENDROOT
BRANCH   4   7
ATOM      7  C   UNL     1       0.847   5.558  -2.786  0.00  0.00    +0.100 A 
ATOM      8  C   UNL     1      -0.211   6.076  -3.522  0.00  0.00    +0.054 A 
ATOM      9  C   UNL     1      -1.366   5.441  -3.080  0.00  0.00    +0.179 A 
ATOM     10  C   UNL     1      -2.514   5.461  -3.865  0.00  0.00    +0.070 A 
ATOM     11  C   UNL     1      -2.398   5.822  -5.199  0.00  0.00    +0.143 A 
ATOM     12  C   UNL     1      -1.411   6.747  -5.502  0.00  0.00    +0.030 A 
ATOM     13  F   UNL     1      -3.092   5.188  -6.188  0.00  0.00    -0.204 F 
ATOM     14  O   UNL     1      -1.019   4.866  -1.952  0.00  0.00    -0.354 OA
ATOM     15  C   UNL     1      -0.319   6.869  -4.651  0.00  0.00    +0.007 A 
ATOM     16  N   UNL     1       0.248   4.979  -1.725  0.00  0.00    -0.081 NA
ENDBRANCH   4   7
BRANCH   1  17
ATOM     17  C   UNL     1       3.755   6.333  -6.765  0.00  0.00    +0.077 C 
BRANCH  17  18
ATOM     18  C   UNL     1       4.235   5.075  -7.474  0.00  0.00    +0.050 C 
BRANCH  18  21
ATOM     19  C   UNL     1       5.802   5.871  -9.750  0.00  0.00    +0.052 C 
ATOM     20  C   UNL     1       4.326   5.820  -9.802  0.00  0.00    +0.061 A 
ATOM     21  C   UNL     1       3.656   5.085  -8.839  0.00  0.00    +0.049 A 
ATOM     22  C   UNL     1       2.269   5.060  -8.930  0.00  0.00    +0.259 A 
ATOM     23  O   UNL     1       1.534   4.840  -7.929  0.00  0.00    -0.267 OA
ATOM     24  N   UNL     1       1.675   5.416 -10.092  0.00  0.00    -0.284 N 
ATOM     25  C   UNL     1       0.356   4.886 -10.423  0.00  0.00    +0.110 C 
ATOM     26  C   UNL     1       0.398   4.523 -11.901  0.00  0.00    +0.025 C 
ATOM     27  C   UNL     1       0.636   5.741 -12.751  0.00  0.00    +0.010 C 
ATOM     28  C   UNL     1       1.693   6.653 -12.186  0.00  0.00    +0.064 C 
ATOM     29  C   UNL     1       2.393   6.058 -11.019  0.00  0.00    +0.122 A 
ATOM     30  N   UNL     1       3.704   6.296 -10.908  0.00  0.00    -0.237 NA
ENDBRANCH  18  21
ENDBRANCH  17  18
ENDBRANCH   1  17
TORSDOF 4
ENDMDL
MODEL 3
REMARK VINA RESULT:      -9.8      3.184      9.487
REMARK  Name = 
REMARK  4 active torsions:
REMARK  status: ('A' for Active; 'I' for Inactive)
REMARK    1  A    between atoms: C_8  and  C_9
REMARK    2  A    between atoms: C_9  and  C_10
REMARK    3  A    between atoms: C_10  and  N_11
REMARK    4  A    between atoms: C_14  and  C_15
REMARK                            x       y       z     vdW  Elec       q    Type
REMARK                         _______ _______ _______ _____ _____    ______ ____
ROOT
ATOM      1  N   UNL     1       4.207   6.231  -5.582  0.00  0.00    -0.272 NA
ATOM      2  C   UNL     1       3.861   4.868  -5.246  0.00  0.00    +0.072 C 
ATOM      3  C   UNL     1       2.386   4.888  -4.860  0.00  0.00    +0.023 C 
ATOM      4  C   UNL     1       2.334   5.436  -3.462  0.00  0.00    +0.046 C 
ATOM      5  C   UNL     1       3.105   6.716  -3.430  0.00  0.00    +0.023 C 
ATOM      6  C   UNL     1       3.530   7.211  -4.781  0.00  0.00    +0.072 C 
ENDROOT
BRANCH   4   7
ATOM      7  C   UNL     1       0.974   5.526  -2.915  0.00  0.00    +0.100 A 
ATOM      8  C   UNL     1      -0.108   6.055  -3.607  0.00  0.00    +0.054 A 
ATOM      9  C   UNL     1      -1.250   5.434  -3.114  0.00  0.00    +0.179 A 
ATOM     10  C   UNL     1      -2.430   5.466  -3.850  0.00  0.00    +0.070 A 
ATOM     11  C   UNL     1      -2.367   5.823  -5.189  0.00  0.00    +0.143 A 
ATOM     12  C   UNL     1      -1.382   6.736  -5.536  0.00  0.00    +0.030 A 
ATOM     13  F   UNL     1      -3.109   5.195  -6.146  0.00  0.00    -0.204 F 
ATOM     14  O   UNL     1      -0.862   4.857  -2.001  0.00  0.00    -0.354 OA
ATOM     15  C   UNL     1      -0.254   6.847  -4.733  0.00  0.00    +0.007 A 
ATOM     16  N   UNL     1       0.414   4.956  -1.828  0.00  0.00    -0.081 NA
ENDBRANCH   4   7
BRANCH   1  17
ATOM     17  C   UNL     1       3.755   6.429  -6.958  0.00  0.00    +0.077 C 
BRANCH  17  18
ATOM     18  C   UNL     1       4.251   5.245  -7.775  0.00  0.00    +0.050 C 
BRANCH  18  21
ATOM     19  C   UNL     1       2.007   5.314  -9.574  0.00  0.00    +0.052 C 
ATOM     20  C   UNL     1       3.399   5.361 -10.066  0.00  0.00    +0.061 A 
ATOM     21  C   UNL     1       4.404   5.704  -9.177  0.00  0.00    +0.049 A 
ATOM     22  C   UNL     1       5.697   5.743  -9.685  0.00  0.00    +0.259 A 
ATOM     23  O   UNL     1       6.711   5.590  -8.952  0.00  0.00    -0.267 OA
ATOM     24  N   UNL     1       5.881   5.808 -11.023  0.00  0.00    -0.284 N 
ATOM     25  C   UNL     1       7.102   6.403 -11.558  0.00  0.00    +0.110 C 
ATOM     26  C   UNL     1       6.678   7.260 -12.742  0.00  0.00    +0.025 C 
ATOM     27  C   UNL     1       6.058   6.419 -13.825  0.00  0.00    +0.010 C 
ATOM     28  C   UNL     1       5.108   5.380 -13.290  0.00  0.00    +0.064 C 
ATOM     29  C   UNL     1       4.853   5.538 -11.834  0.00  0.00    +0.122 A 
ATOM     30  N   UNL     1       3.612   5.294 -11.403  0.00  0.00    -0.237 NA
ENDBRANCH  18  21
ENDBRANCH  17  18
ENDBRANCH   1  17
TORSDOF 4
ENDMDL
MODEL 4
REMARK VINA RESULT:      -9.8      3.367      9.959
REMARK  Name = 
REMARK  4 active torsions:
REMARK  status: ('A' for Active; 'I' for Inactive)
REMARK    1  A    between atoms: C_8  and  C_9
REMARK    2  A    between atoms: C_9  and  C_10
REMARK    3  A    between atoms: C_10  and  N_11
REMARK    4  A    between atoms: C_14  and  C_15
REMARK                            x       y       z     vdW  Elec       q    Type
REMARK                         _______ _______ _______ _____ _____    ______ ____
ROOT
ATOM      1  N   UNL     1       2.287   6.185  -7.766  0.00  0.00    -0.272 NA
ATOM      2  C   UNL     1       1.753   4.880  -7.449  0.00  0.00    +0.072 C 
ATOM      3  C   UNL     1       0.294   5.099  -7.067  0.00  0.00    +0.023 C 
ATOM      4  C   UNL     1       0.312   5.631  -5.662  0.00  0.00    +0.046 C 
ATOM      5  C   UNL     1       1.253   6.791  -5.611  0.00  0.00    +0.023 C 
ATOM      6  C   UNL     1       1.749   7.240  -6.954  0.00  0.00    +0.072 C 
ENDROOT
BRANCH   4   7
ATOM      7  C   UNL     1      -1.025   5.903  -5.118  0.00  0.00    +0.100 A 
ATOM      8  C   UNL     1      -1.330   5.887  -3.763  0.00  0.00    +0.054 A 
ATOM      9  C   UNL     1      -2.399   6.757  -3.575  0.00  0.00    +0.179 A 
ATOM     10  C   UNL     1      -2.684   7.243  -2.304  0.00  0.00    +0.070 A 
ATOM     11  C   UNL     1      -1.719   7.120  -1.316  0.00  0.00    +0.143 A 
ATOM     12  C   UNL     1      -0.895   6.007  -1.395  0.00  0.00    +0.030 A 
ATOM     13  F   UNL     1      -1.470   8.112  -0.413  0.00  0.00    -0.204 F 
ATOM     14  O   UNL     1      -2.868   6.973  -4.782  0.00  0.00    -0.354 OA
ATOM     15  C   UNL     1      -0.710   5.394  -2.628  0.00  0.00    +0.007 A 
ATOM     16  N   UNL     1      -2.127   6.430  -5.690  0.00  0.00    -0.081 NA
ENDBRANCH   4   7
BRANCH   1  17
ATOM     17  C   UNL     1       1.873   6.461  -9.141  0.00  0.00    +0.077 C 
BRANCH  17  18
ATOM     18  C   UNL     1       2.353   5.302 -10.002  0.00  0.00    +0.050 C 
BRANCH  18  21
ATOM     19  C   UNL     1       2.197   6.195 -12.732  0.00  0.00    +0.052 C 
ATOM     20  C   UNL     1       3.482   5.810 -12.112  0.00  0.00    +0.061 A 
ATOM     21  C   UNL     1       3.561   5.760 -10.731  0.00  0.00    +0.049 A 
ATOM     22  C   UNL     1       4.790   5.401 -10.191  0.00  0.00    +0.259 A 
ATOM     23  O   UNL     1       4.896   4.887  -9.044  0.00  0.00    -0.267 OA
ATOM     24  N   UNL     1       5.899   5.473 -10.962  0.00  0.00    -0.284 N 
ATOM     25  C   UNL     1       7.204   5.665 -10.338  0.00  0.00    +0.110 C 
ATOM     26  C   UNL     1       7.948   6.674 -11.202  0.00  0.00    +0.025 C 
ATOM     27  C   UNL     1       8.171   6.139 -12.590  0.00  0.00    +0.010 C 
ATOM     28  C   UNL     1       6.961   5.441 -13.151  0.00  0.00    +0.064 C 
ATOM     29  C   UNL     1       5.762   5.597 -12.287  0.00  0.00    +0.122 A 
ATOM     30  N   UNL     1       4.584   5.749 -12.900  0.00  0.00    -0.237 NA
ENDBRANCH  18  21
ENDBRANCH  17  18
ENDBRANCH   1  17
TORSDOF 4
ENDMDL
MODEL 5
REMARK VINA RESULT:      -9.5      3.844      9.243
REMARK  Name = 
REMARK  4 active torsions:
REMARK  status: ('A' for Active; 'I' for Inactive)
REMARK    1  A    between atoms: C_8  and  C_9
REMARK    2  A    between atoms: C_9  and  C_10
REMARK    3  A    between atoms: C_10  and  N_11
REMARK    4  A    between atoms: C_14  and  C_15
REMARK                            x       y       z     vdW  Elec       q    Type
REMARK                         _______ _______ _______ _____ _____    ______ ____
ROOT
ATOM      1  N   UNL     1       4.345   5.748  -5.565  0.00  0.00    -0.272 NA
ATOM      2  C   UNL     1       3.644   4.669  -4.906  0.00  0.00    +0.072 C 
ATOM      3  C   UNL     1       2.162   4.895  -5.181  0.00  0.00    +0.023 C 
ATOM      4  C   UNL     1       1.732   5.988  -4.244  0.00  0.00    +0.046 C 
ATOM      5  C   UNL     1       2.677   7.136  -4.394  0.00  0.00    +0.023 C 
ATOM      6  C   UNL     1       3.637   6.996  -5.539  0.00  0.00    +0.072 C 
ENDROOT
BRANCH   4   7
ATOM      7  C   UNL     1       0.312   6.344  -4.365  0.00  0.00    +0.100 A 
ATOM      8  C   UNL     1      -0.628   6.140  -3.364  0.00  0.00    +0.054 A 
ATOM      9  C   UNL     1      -1.617   7.103  -3.531  0.00  0.00    +0.179 A 
ATOM     10  C   UNL     1      -2.482   7.401  -2.483  0.00  0.00    +0.070 A 
ATOM     11  C   UNL     1      -2.143   6.981  -1.205  0.00  0.00    +0.143 A 
ATOM     12  C   UNL     1      -1.428   5.795  -1.116  0.00  0.00    +0.030 A 
ATOM     13  F   UNL     1      -2.343   7.762  -0.105  0.00  0.00    -0.204 F 
ATOM     14  O   UNL     1      -1.414   7.584  -4.735  0.00  0.00    -0.354 OA
ATOM     15  C   UNL     1      -0.674   5.381  -2.207  0.00  0.00    +0.007 A 
ATOM     16  N   UNL     1      -0.338   7.106  -5.268  0.00  0.00    -0.081 NA
ENDBRANCH   4   7
BRANCH   1  17
ATOM     17  C   UNL     1       4.452   5.354  -6.969  0.00  0.00    +0.077 C 
BRANCH  17  18
ATOM     18  C   UNL     1       4.091   6.568  -7.812  0.00  0.00    +0.050 C 
BRANCH  18  21
ATOM     19  C   UNL     1       5.780   6.112 -10.095  0.00  0.00    +0.052 C 
ATOM     20  C   UNL     1       4.313   6.233 -10.225  0.00  0.00    +0.061 A 
ATOM     21  C   UNL     1       3.533   6.071  -9.092  0.00  0.00    +0.049 A 
ATOM     22  C   UNL     1       2.158   6.186  -9.263  0.00  0.00    +0.259 A 
ATOM     23  O   UNL     1       1.389   6.509  -8.318  0.00  0.00    -0.267 OA
ATOM     24  N   UNL     1       1.635   6.086 -10.506  0.00  0.00    -0.284 N 
ATOM     25  C   UNL     1       0.256   5.640 -10.676  0.00  0.00    +0.110 C 
ATOM     26  C   UNL     1       0.259   4.680 -11.858  0.00  0.00    +0.025 C 
ATOM     27  C   UNL     1       0.680   5.379 -13.122  0.00  0.00    +0.010 C 
ATOM     28  C   UNL     1       1.853   6.301 -12.919  0.00  0.00    +0.064 C 
ATOM     29  C   UNL     1       2.448   6.176 -11.563  0.00  0.00    +0.122 A 
ATOM     30  N   UNL     1       3.778   6.268 -11.470  0.00  0.00    -0.237 NA
ENDBRANCH  18  21
ENDBRANCH  17  18
ENDBRANCH   1  17
TORSDOF 4
ENDMDL
MODEL 6
REMARK VINA RESULT:      -9.5      1.509      1.991
REMARK  Name = 
REMARK  4 active torsions:
REMARK  status: ('A' for Active; 'I' for Inactive)
REMARK    1  A    between atoms: C_8  and  C_9
REMARK    2  A    between atoms: C_9  and  C_10
REMARK    3  A    between atoms: C_10  and  N_11
REMARK    4  A    between atoms: C_14  and  C_15
REMARK                            x       y       z     vdW  Elec       q    Type
REMARK                         _______ _______ _______ _____ _____    ______ ____
ROOT
ATOM      1  N   UNL     1       1.606   6.001  -8.098  0.00  0.00    -0.272 NA
ATOM      2  C   UNL     1       1.893   4.691  -8.637  0.00  0.00    +0.072 C 
ATOM      3  C   UNL     1       3.406   4.628  -8.815  0.00  0.00    +0.023 C 
ATOM      4  C   UNL     1       3.706   5.406 -10.065  0.00  0.00    +0.046 C 
ATOM      5  C   UNL     1       3.047   6.743  -9.955  0.00  0.00    +0.023 C 
ATOM      6  C   UNL     1       2.465   7.033  -8.603  0.00  0.00    +0.072 C 
ENDROOT
BRANCH   4   7
ATOM      7  C   UNL     1       5.135   5.453 -10.401  0.00  0.00    +0.100 A 
ATOM      8  C   UNL     1       5.627   5.472 -11.699  0.00  0.00    +0.054 A 
ATOM      9  C   UNL     1       6.851   6.131 -11.663  0.00  0.00    +0.179 A 
ATOM     10  C   UNL     1       7.402   6.638 -12.834  0.00  0.00    +0.070 A 
ATOM     11  C   UNL     1       6.586   6.770 -13.947  0.00  0.00    +0.143 A 
ATOM     12  C   UNL     1       5.573   5.833 -14.082  0.00  0.00    +0.030 A 
ATOM     13  F   UNL     1       6.655   7.850 -14.778  0.00  0.00    -0.204 F 
ATOM     14  O   UNL     1       7.169   6.171 -10.390  0.00  0.00    -0.354 OA
ATOM     15  C   UNL     1       5.101   5.184 -12.947  0.00  0.00    +0.007 A 
ATOM     16  N   UNL     1       6.218   5.720  -9.642  0.00  0.00    -0.081 NA
ENDBRANCH   4   7
BRANCH   1  17
ATOM     17  C   UNL     1       1.862   5.905  -6.662  0.00  0.00    +0.077 C 
BRANCH  17  18
ATOM     18  C   UNL     1       1.210   4.623  -6.167  0.00  0.00    +0.050 C 
BRANCH  18  21
ATOM     19  C   UNL     1      -1.522   5.140  -6.902  0.00  0.00    +0.052 C 
ATOM     20  C   UNL     1      -0.967   5.590  -5.609  0.00  0.00    +0.061 A 
ATOM     21  C   UNL     1       0.200   5.001  -5.150  0.00  0.00    +0.049 A 
ATOM     22  C   UNL     1       0.682   5.450  -3.926  0.00  0.00    +0.259 A 
ATOM     23  O   UNL     1       1.899   5.359  -3.610  0.00  0.00    -0.267 OA
ATOM     24  N   UNL     1      -0.143   6.130  -3.098  0.00  0.00    -0.284 N 
ATOM     25  C   UNL     1       0.102   6.115  -1.659  0.00  0.00    +0.110 C 
ATOM     26  C   UNL     1      -1.258   5.954  -0.993  0.00  0.00    +0.025 C 
ATOM     27  C   UNL     1      -2.153   7.123  -1.300  0.00  0.00    +0.010 C 
ATOM     28  C   UNL     1      -2.085   7.551  -2.742  0.00  0.00    +0.064 C 
ATOM     29  C   UNL     1      -1.294   6.612  -3.578  0.00  0.00    +0.122 A 
ATOM     30  N   UNL     1      -1.732   6.384  -4.821  0.00  0.00    -0.237 NA
ENDBRANCH  18  21
ENDBRANCH  17  18
ENDBRANCH   1  17
TORSDOF 4
ENDMDL
MODEL 7
REMARK VINA RESULT:      -9.4      2.257      3.047
REMARK  Name = 
REMARK  4 active torsions:
REMARK  status: ('A' for Active; 'I' for Inactive)
REMARK    1  A    between atoms: C_8  and  C_9
REMARK    2  A    between atoms: C_9  and  C_10
REMARK    3  A    between atoms: C_10  and  N_11
REMARK    4  A    between atoms: C_14  and  C_15
REMARK                            x       y       z     vdW  Elec       q    Type
REMARK                         _______ _______ _______ _____ _____    ______ ____
ROOT
ATOM      1  N   UNL     1      -0.192   6.063 -10.091  0.00  0.00    -0.272 NA
ATOM      2  C   UNL     1       0.197   4.711 -10.422  0.00  0.00    +0.072 C 
ATOM      3  C   UNL     1       1.671   4.774 -10.803  0.00  0.00    +0.023 C 
ATOM      4  C   UNL     1       1.712   5.321 -12.202  0.00  0.00    +0.046 C 
ATOM      5  C   UNL     1       0.903   6.576 -12.240  0.00  0.00    +0.023 C 
ATOM      6  C   UNL     1       0.457   7.062 -10.892  0.00  0.00    +0.072 C 
ENDROOT
BRANCH   4   7
ATOM      7  C   UNL     1       3.071   5.451 -12.744  0.00  0.00    +0.100 A 
ATOM      8  C   UNL     1       4.133   6.014 -12.050  0.00  0.00    +0.054 A 
ATOM      9  C   UNL     1       5.296   5.427 -12.536  0.00  0.00    +0.179 A 
ATOM     10  C   UNL     1       6.472   5.496 -11.797  0.00  0.00    +0.070 A 
ATOM     11  C   UNL     1       6.392   5.854 -10.459  0.00  0.00    +0.143 A 
ATOM     12  C   UNL     1       5.380   6.737 -10.117  0.00  0.00    +0.030 A 
ATOM     13  F   UNL     1       7.150   5.250  -9.498  0.00  0.00    -0.204 F 
ATOM     14  O   UNL     1       4.930   4.836 -13.650  0.00  0.00    -0.354 OA
ATOM     15  C   UNL     1       4.251   6.812 -10.925  0.00  0.00    +0.007 A 
ATOM     16  N   UNL     1       3.652   4.896 -13.828  0.00  0.00    -0.081 NA
ENDBRANCH   4   7
BRANCH   1  17
ATOM     17  C   UNL     1       0.249   6.278  -8.713  0.00  0.00    +0.077 C 
BRANCH  17  18
ATOM     18  C   UNL     1      -0.353   5.168  -7.864  0.00  0.00    +0.050 C 
BRANCH  18  21
ATOM     19  C   UNL     1       1.925   4.745  -6.160  0.00  0.00    +0.052 C 
ATOM     20  C   UNL     1       0.594   5.077  -5.611  0.00  0.00    +0.061 A 
ATOM     21  C   UNL     1      -0.350   5.634  -6.457  0.00  0.00    +0.049 A 
ATOM     22  C   UNL     1      -1.585   5.936  -5.895  0.00  0.00    +0.259 A 
ATOM     23  O   UNL     1      -2.638   6.007  -6.586  0.00  0.00    -0.267 OA
ATOM     24  N   UNL     1      -1.699   6.023  -4.551  0.00  0.00    -0.284 N 
ATOM     25  C   UNL     1      -2.745   6.855  -3.964  0.00  0.00    +0.110 C 
ATOM     26  C   UNL     1      -2.104   7.590  -2.796  0.00  0.00    +0.025 C 
ATOM     27  C   UNL     1      -1.632   6.626  -1.742  0.00  0.00    +0.010 C 
ATOM     28  C   UNL     1      -0.943   5.417  -2.319  0.00  0.00    +0.064 C 
ATOM     29  C   UNL     1      -0.718   5.535  -3.783  0.00  0.00    +0.122 A 
ATOM     30  N   UNL     1       0.426   5.041  -4.267  0.00  0.00    -0.237 NA
ENDBRANCH  18  21
ENDBRANCH  17  18
ENDBRANCH   1  17
TORSDOF 4
ENDMDL
MODEL 8
REMARK VINA RESULT:      -9.4      1.782      2.902
REMARK  Name = 
REMARK  4 active torsions:
REMARK  status: ('A' for Active; 'I' for Inactive)
REMARK    1  A    between atoms: C_8  and  C_9
REMARK    2  A    between atoms: C_9  and  C_10
REMARK    3  A    between atoms: C_10  and  N_11
REMARK    4  A    between atoms: C_14  and  C_15
REMARK                            x       y       z     vdW  Elec       q    Type
REMARK                         _______ _______ _______ _____ _____    ______ ____
ROOT
ATOM      1  N   UNL     1       2.390   5.701  -8.130  0.00  0.00    -0.272 NA
ATOM      2  C   UNL     1       2.902   4.487  -8.725  0.00  0.00    +0.072 C 
ATOM      3  C   UNL     1       3.944   4.922  -9.748  0.00  0.00    +0.023 C 
ATOM      4  C   UNL     1       3.171   5.397 -10.946  0.00  0.00    +0.046 C 
ATOM      5  C   UNL     1       2.153   6.390 -10.486  0.00  0.00    +0.023 C 
ATOM      6  C   UNL     1       2.299   6.799  -9.050  0.00  0.00    +0.072 C 
ENDROOT
BRANCH   4   7
ATOM      7  C   UNL     1       4.022   5.859 -12.050  0.00  0.00    +0.100 A 
ATOM      8  C   UNL     1       5.276   6.431 -11.878  0.00  0.00    +0.054 A 
ATOM      9  C   UNL     1       6.010   6.158 -13.027  0.00  0.00    +0.179 A 
ATOM     10  C   UNL     1       7.397   6.262 -13.007  0.00  0.00    +0.070 A 
ATOM     11  C   UNL     1       8.039   6.312 -11.779  0.00  0.00    +0.143 A 
ATOM     12  C   UNL     1       7.346   6.926 -10.746  0.00  0.00    +0.030 A 
ATOM     13  F   UNL     1       9.210   5.653 -11.541  0.00  0.00    -0.204 F 
ATOM     14  O   UNL     1       5.119   5.762 -13.906  0.00  0.00    -0.354 OA
ATOM     15  C   UNL     1       5.959   6.983 -10.808  0.00  0.00    +0.007 A 
ATOM     16  N   UNL     1       3.944   5.648 -13.380  0.00  0.00    -0.081 NA
ENDBRANCH   4   7
BRANCH   1  17
ATOM     17  C   UNL     1       3.364   6.086  -7.110  0.00  0.00    +0.077 C 
BRANCH  17  18
ATOM     18  C   UNL     1       3.374   4.990  -6.054  0.00  0.00    +0.050 C 
BRANCH  18  21
ATOM     19  C   UNL     1       4.806   6.115  -3.826  0.00  0.00    +0.052 C 
ATOM     20  C   UNL     1       3.398   5.681  -3.707  0.00  0.00    +0.061 A 
ATOM     21  C   UNL     1       2.658   5.512  -4.865  0.00  0.00    +0.049 A 
ATOM     22  C   UNL     1       1.337   5.110  -4.705  0.00  0.00    +0.259 A 
ATOM     23  O   UNL     1       0.706   4.499  -5.610  0.00  0.00    -0.267 OA
ATOM     24  N   UNL     1       0.744   5.250  -3.497  0.00  0.00    -0.284 N 
ATOM     25  C   UNL     1      -0.707   5.390  -3.415  0.00  0.00    +0.110 C 
ATOM     26  C   UNL     1      -0.975   6.472  -2.379  0.00  0.00    +0.025 C 
ATOM     27  C   UNL     1      -0.471   6.060  -1.022  0.00  0.00    +0.010 C 
ATOM     28  C   UNL     1       0.886   5.410  -1.074  0.00  0.00    +0.064 C 
ATOM     29  C   UNL     1       1.504   5.488  -2.423  0.00  0.00    +0.122 A 
ATOM     30  N   UNL     1       2.824   5.690  -2.479  0.00  0.00    -0.237 NA
ENDBRANCH  18  21
ENDBRANCH  17  18
ENDBRANCH   1  17
TORSDOF 4
ENDMDL
MODEL 9
REMARK VINA RESULT:      -9.3      4.380      6.311
REMARK  Name = 
REMARK  4 active torsions:
REMARK  status: ('A' for Active; 'I' for Inactive)
REMARK    1  A    between atoms: C_8  and  C_9
REMARK    2  A    between atoms: C_9  and  C_10
REMARK    3  A    between atoms: C_10  and  N_11
REMARK    4  A    between atoms: C_14  and  C_15
REMARK                            x       y       z     vdW  Elec       q    Type
REMARK                         _______ _______ _______ _____ _____    ______ ____
ROOT
ATOM      1  N   UNL     1       4.956   6.753  -3.180  0.00  0.00    -0.272 NA
ATOM      2  C   UNL     1       5.052   7.464  -4.435  0.00  0.00    +0.072 C 
ATOM      3  C   UNL     1       3.791   7.116  -5.217  0.00  0.00    +0.023 C 
ATOM      4  C   UNL     1       4.019   5.739  -5.773  0.00  0.00    +0.046 C 
ATOM      5  C   UNL     1       4.444   4.844  -4.654  0.00  0.00    +0.023 C 
ATOM      6  C   UNL     1       4.331   5.466  -3.293  0.00  0.00    +0.072 C 
ENDROOT
BRANCH   4   7
ATOM      7  C   UNL     1       2.894   5.232  -6.570  0.00  0.00    +0.100 A 
ATOM      8  C   UNL     1       1.599   5.095  -6.086  0.00  0.00    +0.054 A 
ATOM      9  C   UNL     1       0.742   5.220  -7.174  0.00  0.00    +0.179 A 
ATOM     10  C   UNL     1      -0.604   5.506  -6.969  0.00  0.00    +0.070 A 
ATOM     11  C   UNL     1      -0.998   5.981  -5.727  0.00  0.00    +0.143 A 
ATOM     12  C   UNL     1      -0.278   5.521  -4.635  0.00  0.00    +0.030 A 
ATOM     13  F   UNL     1      -1.925   6.972  -5.587  0.00  0.00    -0.204 F 
ATOM     14  O   UNL     1       1.518   5.094  -8.225  0.00  0.00    -0.354 OA
ATOM     15  C   UNL     1       1.024   5.075  -4.827  0.00  0.00    +0.007 A 
ATOM     16  N   UNL     1       2.765   5.029  -7.897  0.00  0.00    -0.081 NA
ENDBRANCH   4   7
BRANCH   1  17
ATOM     17  C   UNL     1       4.092   7.566  -2.326  0.00  0.00    +0.077 C 
BRANCH  17  18
ATOM     18  C   UNL     1       3.744   6.731  -1.102  0.00  0.00    +0.050 C 
BRANCH  18  21
ATOM     19  C   UNL     1       3.587   8.872   0.813  0.00  0.00    +0.052 C 
ATOM     20  C   UNL     1       2.450   7.958   0.573  0.00  0.00    +0.061 A 
ATOM     21  C   UNL     1       2.437   7.212  -0.593  0.00  0.00    +0.049 A 
ATOM     22  C   UNL     1       1.345   6.372  -0.781  0.00  0.00    +0.259 A 
ATOM     23  O   UNL     1       1.405   5.347  -1.513  0.00  0.00    -0.267 OA
ATOM     24  N   UNL     1       0.223   6.571  -0.053  0.00  0.00    -0.284 N 
ATOM     25  C   UNL     1      -1.067   6.135  -0.578  0.00  0.00    +0.110 C 
ATOM     26  C   UNL     1      -2.057   7.248  -0.262  0.00  0.00    +0.025 C 
ATOM     27  C   UNL     1      -2.201   7.440   1.223  0.00  0.00    +0.010 C 
ATOM     28  C   UNL     1      -0.882   7.399   1.950  0.00  0.00    +0.064 C 
ATOM     29  C   UNL     1       0.278   7.364   1.022  0.00  0.00    +0.122 A 
ATOM     30  N   UNL     1       1.365   8.055   1.379  0.00  0.00    -0.237 NA
ENDBRANCH  18  21
ENDBRANCH  17  18
ENDBRANCH   1  17
TORSDOF 4
ENDMDL
