MODEL 1
REMARK VINA RESULT:     -10.2      0.000      0.000
REMARK  Name = 
REMARK  9 active torsions:
REMARK  status: ('A' for Active; 'I' for Inactive)
REMARK    1  A    between atoms: O_2  and  C_3
REMARK    2  A    between atoms: C_5  and  C_6
REMARK    3  A    between atoms: N_8  and  S_9
REMARK    4  A    between atoms: S_9  and  C_12
REMARK    5  A    between atoms: C_21  and  C_22
REMARK    6  A    between atoms: C_22  and  C_23
REMARK    7  A    between atoms: C_30  and  N_31
REMARK    8  A    between atoms: C_32  and  O_34
REMARK    9  A    between atoms: O_34  and  C_35
REMARK                            x       y       z     vdW  Elec       q    Type
REMARK                         _______ _______ _______ _____ _____    ______ ____
ROOT
ATOM      1  C   UNL     1       2.734   6.310  -5.388  0.00  0.00    +0.135 A 
ATOM      2  C   UNL     1       1.906   5.347  -4.828  0.00  0.00    +0.016 A 
ATOM      3  C   UNL     1       1.379   4.398  -5.692  0.00  0.00    -0.001 A 
ATOM      4  C   UNL     1       2.114   4.064  -6.822  0.00  0.00    +0.005 A 
ATOM      5  C   UNL     1       2.944   5.004  -7.421  0.00  0.00    +0.062 A 
ATOM      6  C   UNL     1       3.237   6.127  -6.667  0.00  0.00    +0.041 A 
ENDROOT
BRANCH   5   7
ATOM      7  C   UNL     1       3.120   4.965  -8.876  0.00  0.00    +0.297 C 
ATOM      8  N   UNL     1       4.289   5.066  -9.435  0.00  0.00    -0.086 NA
ATOM      9  O   UNL     1       2.036   5.427  -9.627  0.00  0.00    -0.264 OA
BRANCH   8  10
ATOM     10  S   UNL     1       4.566   5.971 -10.867  0.00  0.00    +0.103 S 
ATOM     11  O   UNL     1       4.500   7.435 -10.498  0.00  0.00    -0.146 OA
ATOM     12  O   UNL     1       3.538   5.672 -11.930  0.00  0.00    -0.146 OA
BRANCH  10  13
ATOM     13  C   UNL     1       6.141   5.681 -11.542  0.00  0.00    +0.125 A 
ATOM     14  C   UNL     1       7.308   5.728 -10.808  0.00  0.00    -0.003 A 
ATOM     15  C   UNL     1       7.212   5.824  -9.335  0.00  0.00    +0.032 C 
ATOM     16  C   UNL     1       8.518   5.709 -11.488  0.00  0.00    -0.003 A 
ATOM     17  C   UNL     1       8.520   5.898 -12.862  0.00  0.00    -0.000 A 
ATOM     18  C   UNL     1       7.405   5.465 -13.563  0.00  0.00    +0.001 A 
ATOM     19  C   UNL     1       6.229   5.326 -12.861  0.00  0.00    +0.020 A 
ENDBRANCH  10  13
ENDBRANCH   8  10
ENDBRANCH   5   7
BRANCH   1  21
ATOM     20  C   UNL     1       4.711   7.322  -4.508  0.00  0.00    +0.252 C 
ATOM     21  O   UNL     1       3.290   7.270  -4.553  0.00  0.00    -0.472 OA
ENDBRANCH   1  21
BRANCH   2  22
ATOM     22  C   UNL     1       1.708   5.295  -3.358  0.00  0.00    +0.057 C 
BRANCH  22  23
ATOM     23  C   UNL     1       0.456   6.019  -2.977  0.00  0.00    +0.001 A 
ATOM     24  C   UNL     1       0.085   6.489  -1.722  0.00  0.00    +0.015 A 
ATOM     25  C   UNL     1      -1.289   6.696  -1.735  0.00  0.00    +0.060 A 
ATOM     26  C   UNL     1      -1.936   6.601  -0.510  0.00  0.00    +0.019 A 
ATOM     27  C   UNL     1      -1.224   6.711   0.679  0.00  0.00    +0.018 A 
ATOM     28  C   UNL     1       0.158   6.860   0.677  0.00  0.00    +0.077 A 
ATOM     29  N   UNL     1      -1.706   6.519  -2.996  0.00  0.00    -0.324 N 
ATOM     30  C   UNL     1      -3.102   6.546  -3.384  0.00  0.00    +0.130 C 
ATOM     31  C   UNL     1       0.775   6.504  -0.516  0.00  0.00    +0.018 A 
ATOM     32  C   UNL     1      -0.719   5.965  -3.718  0.00  0.00    +0.072 A 
BRANCH  28  33
ATOM     33  N   UNL     1       0.811   7.725   1.616  0.00  0.00    -0.142 NA
ATOM     34  C   UNL     1       0.931   9.129   1.407  0.00  0.00    +0.425 C 
ATOM     35  O   UNL     1      -0.032   9.680   0.797  0.00  0.00    -0.224 OA
BRANCH  34  36
ATOM     36  O   UNL     1       2.100   9.838   1.588  0.00  0.00    -0.437 OA
BRANCH  36  37
ATOM     37  C   UNL     1       3.350   9.454   1.020  0.00  0.00    +0.171 C 
ATOM     38  C   UNL     1       4.360  10.489   1.503  0.00  0.00    +0.044 C 
ATOM     39  C   UNL     1       3.873  11.725   0.766  0.00  0.00    +0.004 C 
ATOM     40  C   UNL     1       3.607  11.210  -0.635  0.00  0.00    +0.004 C 
ATOM     41  C   UNL     1       3.310   9.735  -0.474  0.00  0.00    +0.044 C 
ENDBRANCH  36  37
ENDBRANCH  34  36
ENDBRANCH  28  33
ENDBRANCH  22  23
ENDBRANCH   2  22
TORSDOF 9
ENDMDL
MODEL 2
REMARK VINA RESULT:      -9.7      3.960     12.113
REMARK  Name = 
REMARK  9 active torsions:
REMARK  status: ('A' for Active; 'I' for Inactive)
REMARK    1  A    between atoms: O_2  and  C_3
REMARK    2  A    between atoms: C_5  and  C_6
REMARK    3  A    between atoms: N_8  and  S_9
REMARK    4  A    between atoms: S_9  and  C_12
REMARK    5  A    between atoms: C_21  and  C_22
REMARK    6  A    between atoms: C_22  and  C_23
REMARK    7  A    between atoms: C_30  and  N_31
REMARK    8  A    between atoms: C_32  and  O_34
REMARK    9  A    between atoms: O_34  and  C_35
REMARK                            x       y       z     vdW  Elec       q    Type
REMARK                         _______ _______ _______ _____ _____    ______ ____
ROOT
ATOM      1  C   UNL     1       0.613   5.117  -8.239  0.00  0.00    +0.135 A 
ATOM      2  C   UNL     1       1.785   4.606  -7.697  0.00  0.00    +0.016 A 
ATOM      3  C   UNL     1       1.945   4.733  -6.325  0.00  0.00    -0.001 A 
ATOM      4  C   UNL     1       0.805   4.759  -5.533  0.00  0.00    +0.005 A 
ATOM      5  C   UNL     1      -0.384   5.275  -6.034  0.00  0.00    +0.062 A 
ATOM      6  C   UNL     1      -0.446   5.444  -7.406  0.00  0.00    +0.041 A 
ENDROOT
BRANCH   5   7
ATOM      7  C   UNL     1      -1.297   5.961  -5.115  0.00  0.00    +0.297 C 
ATOM      8  N   UNL     1      -0.921   6.366  -3.938  0.00  0.00    -0.086 NA
ATOM      9  O   UNL     1      -2.649   5.631  -5.250  0.00  0.00    -0.264 OA
BRANCH   8  10
ATOM     10  S   UNL     1      -1.912   6.235  -2.543  0.00  0.00    +0.103 S 
ATOM     11  O   UNL     1      -2.161   4.765  -2.300  0.00  0.00    -0.146 OA
ATOM     12  O   UNL     1      -3.231   6.947  -2.719  0.00  0.00    -0.146 OA
BRANCH  10  13
ATOM     13  C   UNL     1      -1.141   6.869  -1.120  0.00  0.00    +0.125 A 
ATOM     14  C   UNL     1       0.061   6.404  -0.630  0.00  0.00    -0.003 A 
ATOM     15  C   UNL     1       0.846   5.465  -1.461  0.00  0.00    +0.032 C 
ATOM     16  C   UNL     1       0.468   6.820   0.630  0.00  0.00    -0.003 A 
ATOM     17  C   UNL     1      -0.443   7.470   1.450  0.00  0.00    -0.000 A 
ATOM     18  C   UNL     1      -1.424   8.228   0.830  0.00  0.00    +0.001 A 
ATOM     19  C   UNL     1      -1.726   7.929  -0.479  0.00  0.00    +0.020 A 
ENDBRANCH  10  13
ENDBRANCH   8  10
ENDBRANCH   5   7
BRANCH   1  21
ATOM     20  C   UNL     1      -0.223   6.100 -10.250  0.00  0.00    +0.252 C 
ATOM     21  O   UNL     1       0.411   4.999  -9.607  0.00  0.00    -0.472 OA
ENDBRANCH   1  21
BRANCH   2  22
ATOM     22  C   UNL     1       2.742   3.864  -8.554  0.00  0.00    +0.057 C 
BRANCH  22  23
ATOM     23  C   UNL     1       3.765   4.798  -9.120  0.00  0.00    +0.001 A 
ATOM     24  C   UNL     1       3.796   5.370 -10.386  0.00  0.00    +0.015 A 
ATOM     25  C   UNL     1       5.096   5.799 -10.626  0.00  0.00    +0.060 A 
ATOM     26  C   UNL     1       5.487   5.859 -11.958  0.00  0.00    +0.019 A 
ATOM     27  C   UNL     1       4.539   5.898 -12.974  0.00  0.00    +0.018 A 
ATOM     28  C   UNL     1       3.181   5.819 -12.693  0.00  0.00    +0.077 A 
ATOM     29  N   UNL     1       5.783   5.643  -9.486  0.00  0.00    -0.324 N 
ATOM     30  C   UNL     1       7.207   5.884  -9.377  0.00  0.00    +0.130 C 
ATOM     31  C   UNL     1       2.881   5.320 -11.430  0.00  0.00    +0.018 A 
ATOM     32  C   UNL     1       5.060   4.908  -8.627  0.00  0.00    +0.072 A 
BRANCH  28  33
ATOM     33  N   UNL     1       2.226   6.600 -13.422  0.00  0.00    -0.142 NA
ATOM     34  C   UNL     1       1.542   6.099 -14.567  0.00  0.00    +0.425 C 
ATOM     35  O   UNL     1       1.278   4.861 -14.553  0.00  0.00    -0.224 OA
BRANCH  34  36
ATOM     36  O   UNL     1       1.396   6.800 -15.746  0.00  0.00    -0.437 OA
BRANCH  36  37
ATOM     37  C   UNL     1       2.082   8.018 -16.027  0.00  0.00    +0.171 C 
ATOM     38  C   UNL     1       1.080   9.132 -15.748  0.00  0.00    +0.044 C 
ATOM     39  C   UNL     1       0.075   8.895 -16.863  0.00  0.00    +0.004 C 
ATOM     40  C   UNL     1       0.954   8.664 -18.076  0.00  0.00    +0.004 C 
ATOM     41  C   UNL     1       2.264   8.136 -17.532  0.00  0.00    +0.044 C 
ENDBRANCH  36  37
ENDBRANCH  34  36
ENDBRANCH  28  33
ENDBRANCH  22  23
ENDBRANCH   2  22
TORSDOF 9
ENDMDL
MODEL 3
REMARK VINA RESULT:      -9.7      2.981      5.019
REMARK  Name = 
REMARK  9 active torsions:
REMARK  status: ('A' for Active; 'I' for Inactive)
REMARK    1  A    between atoms: O_2  and  C_3
REMARK    2  A    between atoms: C_5  and  C_6
REMARK    3  A    between atoms: N_8  and  S_9
REMARK    4  A    between atoms: S_9  and  C_12
REMARK    5  A    between atoms: C_21  and  C_22
REMARK    6  A    between atoms: C_22  and  C_23
REMARK    7  A    between atoms: C_30  and  N_31
REMARK    8  A    between atoms: C_32  and  O_34
REMARK    9  A    between atoms: O_34  and  C_35
REMARK                            x       y       z     vdW  Elec       q    Type
REMARK                         _______ _______ _______ _____ _____    ______ ____
ROOT
ATOM      1  C   UNL     1      -0.207   5.444  -2.372  0.00  0.00    +0.135 A 
ATOM      2  C   UNL     1      -1.054   6.482  -2.007  0.00  0.00    +0.016 A 
ATOM      3  C   UNL     1      -1.369   7.406  -2.993  0.00  0.00    -0.001 A 
ATOM      4  C   UNL     1      -1.380   6.975  -4.313  0.00  0.00    +0.005 A 
ATOM      5  C   UNL     1      -0.538   5.948  -4.722  0.00  0.00    +0.062 A 
ATOM      6  C   UNL     1       0.038   5.194  -3.714  0.00  0.00    +0.041 A 
ENDROOT
BRANCH   5   7
ATOM      7  C   UNL     1      -0.006   5.973  -6.087  0.00  0.00    +0.297 C 
ATOM      8  N   UNL     1       0.464   4.909  -6.667  0.00  0.00    -0.086 NA
ATOM      9  O   UNL     1       0.541   7.191  -6.499  0.00  0.00    -0.264 OA
BRANCH   8  10
ATOM     10  S   UNL     1       1.867   4.924  -7.656  0.00  0.00    +0.103 S 
ATOM     11  O   UNL     1       2.425   3.520  -7.674  0.00  0.00    -0.146 OA
ATOM     12  O   UNL     1       2.914   5.876  -7.134  0.00  0.00    -0.146 OA
BRANCH  10  13
ATOM     13  C   UNL     1       1.514   5.358  -9.302  0.00  0.00    +0.125 A 
ATOM     14  C   UNL     1       2.481   5.538 -10.269  0.00  0.00    -0.003 A 
ATOM     15  C   UNL     1       3.872   5.143  -9.959  0.00  0.00    +0.032 C 
ATOM     16  C   UNL     1       2.107   6.103 -11.480  0.00  0.00    -0.003 A 
ATOM     17  C   UNL     1       0.857   6.696 -11.589  0.00  0.00    -0.000 A 
ATOM     18  C   UNL     1      -0.160   6.175 -10.804  0.00  0.00    +0.001 A 
ATOM     19  C   UNL     1       0.203   5.470  -9.679  0.00  0.00    +0.020 A 
ENDBRANCH  10  13
ENDBRANCH   8  10
ENDBRANCH   5   7
BRANCH   1  21
ATOM     20  C   UNL     1       1.500   4.396  -1.071  0.00  0.00    +0.252 C 
ATOM     21  O   UNL     1       0.123   4.493  -1.417  0.00  0.00    -0.472 OA
ENDBRANCH   1  21
BRANCH   2  22
ATOM     22  C   UNL     1      -1.664   6.507  -0.655  0.00  0.00    +0.057 C 
BRANCH  22  23
ATOM     23  C   UNL     1      -1.199   7.710   0.103  0.00  0.00    +0.001 A 
ATOM     24  C   UNL     1       0.080   7.985   0.573  0.00  0.00    +0.015 A 
ATOM     25  C   UNL     1      -0.031   8.958   1.559  0.00  0.00    +0.060 A 
ATOM     26  C   UNL     1       0.967   8.968   2.526  0.00  0.00    +0.019 A 
ATOM     27  C   UNL     1       2.187   8.345   2.293  0.00  0.00    +0.018 A 
ATOM     28  C   UNL     1       2.423   7.646   1.114  0.00  0.00    +0.077 A 
ATOM     29  N   UNL     1      -1.305   9.373   1.568  0.00  0.00    -0.324 N 
ATOM     30  C   UNL     1      -1.829  10.310   2.540  0.00  0.00    +0.130 C 
ATOM     31  C   UNL     1       1.277   7.298   0.410  0.00  0.00    +0.018 A 
ATOM     32  C   UNL     1      -2.049   8.540   0.823  0.00  0.00    +0.072 A 
BRANCH  28  33
ATOM     33  N   UNL     1       3.700   7.700   0.464  0.00  0.00    -0.142 NA
ATOM     34  C   UNL     1       3.923   8.458  -0.721  0.00  0.00    +0.425 C 
ATOM     35  O   UNL     1       3.257   9.530  -0.823  0.00  0.00    -0.224 OA
BRANCH  34  36
ATOM     36  O   UNL     1       4.591   7.979  -1.828  0.00  0.00    -0.437 OA
BRANCH  36  37
ATOM     37  C   UNL     1       4.129   8.161  -3.165  0.00  0.00    +0.171 C 
ATOM     38  C   UNL     1       3.045   7.111  -3.375  0.00  0.00    +0.044 C 
ATOM     39  C   UNL     1       3.872   5.837  -3.337  0.00  0.00    +0.004 C 
ATOM     40  C   UNL     1       5.071   6.178  -4.200  0.00  0.00    +0.004 C 
ATOM     41  C   UNL     1       5.211   7.683  -4.121  0.00  0.00    +0.044 C 
ENDBRANCH  36  37
ENDBRANCH  34  36
ENDBRANCH  28  33
ENDBRANCH  22  23
ENDBRANCH   2  22
TORSDOF 9
ENDMDL
MODEL 4
REMARK VINA RESULT:      -9.5      2.131      2.815
REMARK  Name = 
REMARK  9 active torsions:
REMARK  status: ('A' for Active; 'I' for Inactive)
REMARK    1  A    between atoms: O_2  and  C_3
REMARK    2  A    between atoms: C_5  and  C_6
REMARK    3  A    between atoms: N_8  and  S_9
REMARK    4  A    between atoms: S_9  and  C_12
REMARK    5  A    between atoms: C_21  and  C_22
REMARK    6  A    between atoms: C_22  and  C_23
REMARK    7  A    between atoms: C_30  and  N_31
REMARK    8  A    between atoms: C_32  and  O_34
REMARK    9  A    between atoms: O_34  and  C_35
REMARK                            x       y       z     vdW  Elec       q    Type
REMARK                         _______ _______ _______ _____ _____    ______ ____
ROOT
ATOM      1  C   UNL     1       3.507   6.053  -4.629  0.00  0.00    +0.135 A 
ATOM      2  C   UNL     1       2.374   5.306  -4.333  0.00  0.00    +0.016 A 
ATOM      3  C   UNL     1       1.807   4.592  -5.379  0.00  0.00    -0.001 A 
ATOM      4  C   UNL     1       2.641   4.155  -6.400  0.00  0.00    +0.005 A 
ATOM      5  C   UNL     1       3.777   4.881  -6.736  0.00  0.00    +0.062 A 
ATOM      6  C   UNL     1       4.186   5.833  -5.817  0.00  0.00    +0.041 A 
ENDROOT
BRANCH   5   7
ATOM      7  C   UNL     1       4.215   4.898  -8.134  0.00  0.00    +0.297 C 
ATOM      8  N   UNL     1       4.600   5.990  -8.726  0.00  0.00    -0.086 NA
ATOM      9  O   UNL     1       3.651   3.918  -8.955  0.00  0.00    -0.264 OA
BRANCH   8  10
ATOM     10  S   UNL     1       4.190   6.367 -10.350  0.00  0.00    +0.103 S 
ATOM     11  O   UNL     1       4.913   5.385 -11.240  0.00  0.00    -0.146 OA
ATOM     12  O   UNL     1       4.591   7.774 -10.720  0.00  0.00    -0.146 OA
BRANCH  10  13
ATOM     13  C   UNL     1       2.489   6.190 -10.663  0.00  0.00    +0.125 A 
ATOM     14  C   UNL     1       1.504   6.578  -9.779  0.00  0.00    -0.003 A 
ATOM     15  C   UNL     1       1.893   7.374  -8.594  0.00  0.00    +0.032 C 
ATOM     16  C   UNL     1       0.198   6.182 -10.030  0.00  0.00    -0.003 A 
ATOM     17  C   UNL     1      -0.039   5.216 -10.997  0.00  0.00    -0.000 A 
ATOM     18  C   UNL     1       0.845   5.158 -12.063  0.00  0.00    +0.001 A 
ATOM     19  C   UNL     1       2.099   5.695 -11.879  0.00  0.00    +0.020 A 
ENDBRANCH  10  13
ENDBRANCH   8  10
ENDBRANCH   5   7
BRANCH   1  21
ATOM     20  C   UNL     1       5.055   7.760  -4.001  0.00  0.00    +0.252 C 
ATOM     21  O   UNL     1       4.110   6.773  -3.606  0.00  0.00    -0.472 OA
ENDBRANCH   1  21
BRANCH   2  22
ATOM     22  C   UNL     1       1.890   5.207  -2.934  0.00  0.00    +0.057 C 
BRANCH  22  23
ATOM     23  C   UNL     1       0.647   6.021  -2.756  0.00  0.00    +0.001 A 
ATOM     24  C   UNL     1       0.126   6.543  -1.578  0.00  0.00    +0.015 A 
ATOM     25  C   UNL     1      -1.213   6.841  -1.801  0.00  0.00    +0.060 A 
ATOM     26  C   UNL     1      -2.042   6.816  -0.687  0.00  0.00    +0.019 A 
ATOM     27  C   UNL     1      -1.511   6.906   0.594  0.00  0.00    +0.018 A 
ATOM     28  C   UNL     1      -0.137   6.963   0.800  0.00  0.00    +0.077 A 
ATOM     29  N   UNL     1      -1.447   6.662  -3.108  0.00  0.00    -0.324 N 
ATOM     30  C   UNL     1      -2.764   6.774  -3.703  0.00  0.00    +0.130 C 
ATOM     31  C   UNL     1       0.626   6.540  -0.282  0.00  0.00    +0.018 A 
ATOM     32  C   UNL     1      -0.404   6.029  -3.666  0.00  0.00    +0.072 A 
BRANCH  28  33
ATOM     33  N   UNL     1       0.426   7.804   1.816  0.00  0.00    -0.142 NA
ATOM     34  C   UNL     1       0.759   9.169   1.581  0.00  0.00    +0.425 C 
ATOM     35  O   UNL     1       0.009   9.788   0.770  0.00  0.00    -0.224 OA
BRANCH  34  36
ATOM     36  O   UNL     1       1.950   9.749   1.964  0.00  0.00    -0.437 OA
BRANCH  36  37
ATOM     37  C   UNL     1       3.223   9.322   1.484  0.00  0.00    +0.171 C 
ATOM     38  C   UNL     1       4.184  10.466   1.785  0.00  0.00    +0.044 C 
ATOM     39  C   UNL     1       3.662  11.532   0.836  0.00  0.00    +0.004 C 
ATOM     40  C   UNL     1       3.439  10.767  -0.454  0.00  0.00    +0.004 C 
ATOM     41  C   UNL     1       3.196   9.333  -0.037  0.00  0.00    +0.044 C 
ENDBRANCH  36  37
ENDBRANCH  34  36
ENDBRANCH  28  33
ENDBRANCH  22  23
ENDBRANCH   2  22
TORSDOF 9
ENDMDL
MODEL 5
REMARK VINA RESULT:      -9.3      3.437      6.117
REMARK  Name = 
REMARK  9 active torsions:
REMARK  status: ('A' for Active; 'I' for Inactive)
REMARK    1  A    between atoms: O_2  and  C_3
REMARK    2  A    between atoms: C_5  and  C_6
REMARK    3  A    between atoms: N_8  and  S_9
REMARK    4  A    between atoms: S_9  and  C_12
REMARK    5  A    between atoms: C_21  and  C_22
REMARK    6  A    between atoms: C_22  and  C_23
REMARK    7  A    between atoms: C_30  and  N_31
REMARK    8  A    between atoms: C_32  and  O_34
REMARK    9  A    between atoms: O_34  and  C_35
REMARK                            x       y       z     vdW  Elec       q    Type
REMARK                         _______ _______ _______ _____ _____    ______ ____
ROOT
ATOM      1  C   UNL     1       4.280   5.547  -1.612  0.00  0.00    +0.135 A 
ATOM      2  C   UNL     1       4.626   6.778  -1.071  0.00  0.00    +0.016 A 
ATOM      3  C   UNL     1       4.525   7.879  -1.911  0.00  0.00    -0.001 A 
ATOM      4  C   UNL     1       3.577   7.843  -2.924  0.00  0.00    +0.005 A 
ATOM      5  C   UNL     1       3.213   6.632  -3.501  0.00  0.00    +0.062 A 
ATOM      6  C   UNL     1       3.585   5.492  -2.810  0.00  0.00    +0.041 A 
ENDROOT
BRANCH   5   7
ATOM      7  C   UNL     1       2.847   6.609  -4.920  0.00  0.00    +0.297 C 
ATOM      8  N   UNL     1       2.288   5.574  -5.474  0.00  0.00    -0.086 NA
ATOM      9  O   UNL     1       3.629   7.409  -5.758  0.00  0.00    -0.264 OA
BRANCH   8  10
ATOM     10  S   UNL     1       2.695   5.022  -7.047  0.00  0.00    +0.103 S 
ATOM     11  O   UNL     1       2.396   3.542  -7.099  0.00  0.00    -0.146 OA
ATOM     12  O   UNL     1       4.151   5.253  -7.367  0.00  0.00    -0.146 OA
BRANCH  10  13
ATOM     13  C   UNL     1       1.742   5.782  -8.285  0.00  0.00    +0.125 A 
ATOM     14  C   UNL     1       0.363   5.742  -8.323  0.00  0.00    -0.003 A 
ATOM     15  C   UNL     1      -0.359   5.207  -7.148  0.00  0.00    +0.032 C 
ATOM     16  C   UNL     1      -0.280   6.183  -9.471  0.00  0.00    -0.003 A 
ATOM     17  C   UNL     1       0.468   6.404 -10.618  0.00  0.00    -0.000 A 
ATOM     18  C   UNL     1       1.784   6.807 -10.448  0.00  0.00    +0.001 A 
ATOM     19  C   UNL     1       2.386   6.516  -9.246  0.00  0.00    +0.020 A 
ENDBRANCH  10  13
ENDBRANCH   8  10
ENDBRANCH   5   7
BRANCH   1  21
ATOM     20  C   UNL     1       3.226   3.559  -0.810  0.00  0.00    +0.252 C 
ATOM     21  O   UNL     1       4.357   4.423  -0.800  0.00  0.00    -0.472 OA
ENDBRANCH   1  21
BRANCH   2  22
ATOM     22  C   UNL     1       4.971   6.891   0.367  0.00  0.00    +0.057 C 
BRANCH  22  23
ATOM     23  C   UNL     1       3.959   7.733   1.079  0.00  0.00    +0.001 A 
ATOM     24  C   UNL     1       2.583   7.767   0.884  0.00  0.00    +0.015 A 
ATOM     25  C   UNL     1       2.108   8.956   1.425  0.00  0.00    +0.060 A 
ATOM     26  C   UNL     1       0.940   9.461   0.867  0.00  0.00    +0.019 A 
ATOM     27  C   UNL     1       0.094   8.640   0.131  0.00  0.00    +0.018 A 
ATOM     28  C   UNL     1       0.418   7.312  -0.118  0.00  0.00    +0.077 A 
ATOM     29  N   UNL     1       3.129   9.538   2.067  0.00  0.00    -0.324 N 
ATOM     30  C   UNL     1       3.045  10.853   2.669  0.00  0.00    +0.130 C 
ATOM     31  C   UNL     1       1.760   7.001   0.069  0.00  0.00    +0.018 A 
ATOM     32  C   UNL     1       4.273   8.912   1.745  0.00  0.00    +0.072 A 
BRANCH  28  33
ATOM     33  N   UNL     1      -0.585   6.288  -0.100  0.00  0.00    -0.142 NA
ATOM     34  C   UNL     1      -0.849   5.456  -1.227  0.00  0.00    +0.425 C 
ATOM     35  O   UNL     1       0.151   5.172  -1.949  0.00  0.00    -0.224 OA
BRANCH  34  36
ATOM     36  O   UNL     1      -2.114   5.176  -1.699  0.00  0.00    -0.437 OA
BRANCH  36  37
ATOM     37  C   UNL     1      -3.044   6.180  -2.100  0.00  0.00    +0.171 C 
ATOM     38  C   UNL     1      -3.790   5.599  -3.295  0.00  0.00    +0.044 C 
ATOM     39  C   UNL     1      -2.677   5.555  -4.329  0.00  0.00    +0.004 C 
ATOM     40  C   UNL     1      -2.003   6.903  -4.170  0.00  0.00    +0.004 C 
ATOM     41  C   UNL     1      -2.275   7.324  -2.742  0.00  0.00    +0.044 C 
ENDBRANCH  36  37
ENDBRANCH  34  36
ENDBRANCH  28  33
ENDBRANCH  22  23
ENDBRANCH   2  22
TORSDOF 9
ENDMDL
MODEL 6
REMARK VINA RESULT:      -9.3      4.095      9.964
REMARK  Name = 
REMARK  9 active torsions:
REMARK  status: ('A' for Active; 'I' for Inactive)
REMARK    1  A    between atoms: O_2  and  C_3
REMARK    2  A    between atoms: C_5  and  C_6
REMARK    3  A    between atoms: N_8  and  S_9
REMARK    4  A    between atoms: S_9  and  C_12
REMARK    5  A    between atoms: C_21  and  C_22
REMARK    6  A    between atoms: C_22  and  C_23
REMARK    7  A    between atoms: C_30  and  N_31
REMARK    8  A    between atoms: C_32  and  O_34
REMARK    9  A    between atoms: O_34  and  C_35
REMARK                            x       y       z     vdW  Elec       q    Type
REMARK                         _______ _______ _______ _____ _____    ______ ____
ROOT
ATOM      1  C   UNL     1       3.380   5.676  -1.910  0.00  0.00    +0.135 A 
ATOM      2  C   UNL     1       3.595   6.350  -3.105  0.00  0.00    +0.016 A 
ATOM      3  C   UNL     1       3.579   7.737  -3.050  0.00  0.00    -0.001 A 
ATOM      4  C   UNL     1       3.964   8.349  -1.865  0.00  0.00    +0.005 A 
ATOM      5  C   UNL     1       3.754   7.713  -0.647  0.00  0.00    +0.062 A 
ATOM      6  C   UNL     1       3.459   6.362  -0.708  0.00  0.00    +0.041 A 
ENDROOT
BRANCH   5   7
ATOM      7  C   UNL     1       3.459   8.530   0.533  0.00  0.00    +0.297 C 
ATOM      8  N   UNL     1       2.338   8.428   1.184  0.00  0.00    -0.086 NA
ATOM      9  O   UNL     1       4.083   9.780   0.573  0.00  0.00    -0.264 OA
BRANCH   8  10
ATOM     10  S   UNL     1       1.493   9.785   1.811  0.00  0.00    +0.103 S 
ATOM     11  O   UNL     1       1.239  10.731   0.661  0.00  0.00    -0.146 OA
ATOM     12  O   UNL     1       2.282  10.495   2.883  0.00  0.00    -0.146 OA
BRANCH  10  13
ATOM     13  C   UNL     1      -0.054   9.354   2.474  0.00  0.00    +0.125 A 
ATOM     14  C   UNL     1      -0.266   8.244   3.264  0.00  0.00    -0.003 A 
ATOM     15  C   UNL     1       0.910   7.489   3.750  0.00  0.00    +0.032 C 
ATOM     16  C   UNL     1      -1.573   7.872   3.547  0.00  0.00    -0.003 A 
ATOM     17  C   UNL     1      -2.608   8.459   2.834  0.00  0.00    -0.000 A 
ATOM     18  C   UNL     1      -2.412   9.756   2.386  0.00  0.00    +0.001 A 
ATOM     19  C   UNL     1      -1.114  10.194   2.254  0.00  0.00    +0.020 A 
ENDBRANCH  10  13
ENDBRANCH   8  10
ENDBRANCH   5   7
BRANCH   1  21
ATOM     20  C   UNL     1       2.682   3.637  -0.879  0.00  0.00    +0.252 C 
ATOM     21  O   UNL     1       3.399   4.288  -1.922  0.00  0.00    -0.472 OA
ENDBRANCH   1  21
BRANCH   2  22
ATOM     22  C   UNL     1       3.938   5.597  -4.336  0.00  0.00    +0.057 C 
BRANCH  22  23
ATOM     23  C   UNL     1       3.195   6.154  -5.509  0.00  0.00    +0.001 A 
ATOM     24  C   UNL     1       1.836   6.066  -5.785  0.00  0.00    +0.015 A 
ATOM     25  C   UNL     1       1.659   6.330  -7.137  0.00  0.00    +0.060 A 
ATOM     26  C   UNL     1       0.542   5.757  -7.734  0.00  0.00    +0.019 A 
ATOM     27  C   UNL     1      -0.526   5.316  -6.962  0.00  0.00    +0.018 A 
ATOM     28  C   UNL     1      -0.485   5.380  -5.574  0.00  0.00    +0.077 A 
ATOM     29  N   UNL     1       2.843   6.726  -7.624  0.00  0.00    -0.324 N 
ATOM     30  C   UNL     1       3.078   6.987  -9.029  0.00  0.00    +0.130 C 
ATOM     31  C   UNL     1       0.790   5.533  -5.041  0.00  0.00    +0.018 A 
ATOM     32  C   UNL     1       3.802   6.481  -6.717  0.00  0.00    +0.072 A 
BRANCH  28  33
ATOM     33  N   UNL     1      -1.648   5.730  -4.813  0.00  0.00    -0.142 NA
ATOM     34  C   UNL     1      -1.794   6.996  -4.177  0.00  0.00    +0.425 C 
ATOM     35  O   UNL     1      -1.268   7.978  -4.778  0.00  0.00    -0.224 OA
BRANCH  34  36
ATOM     36  O   UNL     1      -2.224   7.161  -2.877  0.00  0.00    -0.437 OA
BRANCH  36  37
ATOM     37  C   UNL     1      -2.190   6.124  -1.900  0.00  0.00    +0.171 C 
ATOM     38  C   UNL     1      -2.452   6.806  -0.562  0.00  0.00    +0.044 C 
ATOM     39  C   UNL     1      -1.184   7.631  -0.412  0.00  0.00    +0.004 C 
ATOM     40  C   UNL     1      -0.090   6.658  -0.805  0.00  0.00    +0.004 C 
ATOM     41  C   UNL     1      -0.750   5.662  -1.733  0.00  0.00    +0.044 C 
ENDBRANCH  36  37
ENDBRANCH  34  36
ENDBRANCH  28  33
ENDBRANCH  22  23
ENDBRANCH   2  22
TORSDOF 9
ENDMDL
MODEL 7
REMARK VINA RESULT:      -9.2      3.994     11.831
REMARK  Name = 
REMARK  9 active torsions:
REMARK  status: ('A' for Active; 'I' for Inactive)
REMARK    1  A    between atoms: O_2  and  C_3
REMARK    2  A    between atoms: C_5  and  C_6
REMARK    3  A    between atoms: N_8  and  S_9
REMARK    4  A    between atoms: S_9  and  C_12
REMARK    5  A    between atoms: C_21  and  C_22
REMARK    6  A    between atoms: C_22  and  C_23
REMARK    7  A    between atoms: C_30  and  N_31
REMARK    8  A    between atoms: C_32  and  O_34
REMARK    9  A    between atoms: O_34  and  C_35
REMARK                            x       y       z     vdW  Elec       q    Type
REMARK                         _______ _______ _______ _____ _____    ______ ____
ROOT
ATOM      1  C   UNL     1       1.036   5.082  -7.264  0.00  0.00    +0.135 A 
ATOM      2  C   UNL     1       2.350   4.636  -7.301  0.00  0.00    +0.016 A 
ATOM      3  C   UNL     1       3.075   4.730  -6.121  0.00  0.00    -0.001 A 
ATOM      4  C   UNL     1       2.382   4.651  -4.921  0.00  0.00    +0.005 A 
ATOM      5  C   UNL     1       1.070   5.099  -4.838  0.00  0.00    +0.062 A 
ATOM      6  C   UNL     1       0.419   5.308  -6.042  0.00  0.00    +0.041 A 
ENDROOT
BRANCH   5   7
ATOM      7  C   UNL     1       0.604   5.691  -3.580  0.00  0.00    +0.297 C 
ATOM      8  N   UNL     1       1.397   6.351  -2.790  0.00  0.00    -0.086 NA
ATOM      9  O   UNL     1      -0.472   5.041  -2.970  0.00  0.00    -0.264 OA
BRANCH   8  10
ATOM     10  S   UNL     1       1.340   6.214  -1.080  0.00  0.00    +0.103 S 
ATOM     11  O   UNL     1       1.378   4.742  -0.741  0.00  0.00    -0.146 OA
ATOM     12  O   UNL     1       0.088   6.831  -0.506  0.00  0.00    -0.146 OA
BRANCH  10  13
ATOM     13  C   UNL     1       2.710   6.955  -0.308  0.00  0.00    +0.125 A 
ATOM     14  C   UNL     1       4.012   6.545  -0.504  0.00  0.00    -0.003 A 
ATOM     15  C   UNL     1       4.290   5.566  -1.578  0.00  0.00    +0.032 C 
ATOM     16  C   UNL     1       4.997   7.052   0.332  0.00  0.00    -0.003 A 
ATOM     17  C   UNL     1       4.621   7.739   1.477  0.00  0.00    -0.000 A 
ATOM     18  C   UNL     1       3.424   8.436   1.431  0.00  0.00    +0.001 A 
ATOM     19  C   UNL     1       2.496   8.045   0.493  0.00  0.00    +0.020 A 
ENDBRANCH  10  13
ENDBRANCH   8  10
ENDBRANCH   5   7
BRANCH   1  21
ATOM     20  C   UNL     1       0.167   6.181  -9.198  0.00  0.00    +0.252 C 
ATOM     21  O   UNL     1       0.275   4.994  -8.421  0.00  0.00    -0.472 OA
ENDBRANCH   1  21
BRANCH   2  22
ATOM     22  C   UNL     1       2.884   3.990  -8.525  0.00  0.00    +0.057 C 
BRANCH  22  23
ATOM     23  C   UNL     1       3.848   4.903  -9.216  0.00  0.00    +0.001 A 
ATOM     24  C   UNL     1       3.773   5.407 -10.509  0.00  0.00    +0.015 A 
ATOM     25  C   UNL     1       5.044   5.837 -10.871  0.00  0.00    +0.060 A 
ATOM     26  C   UNL     1       5.330   5.830 -12.231  0.00  0.00    +0.019 A 
ATOM     27  C   UNL     1       4.307   5.804 -13.171  0.00  0.00    +0.018 A 
ATOM     28  C   UNL     1       2.975   5.726 -12.781  0.00  0.00    +0.077 A 
ATOM     29  N   UNL     1       5.819   5.748  -9.782  0.00  0.00    -0.324 N 
ATOM     30  C   UNL     1       7.244   6.009  -9.796  0.00  0.00    +0.130 C 
ATOM     31  C   UNL     1       2.781   5.292 -11.475  0.00  0.00    +0.018 A 
ATOM     32  C   UNL     1       5.175   5.052  -8.832  0.00  0.00    +0.072 A 
BRANCH  28  33
ATOM     33  N   UNL     1       1.956   6.458 -13.474  0.00  0.00    -0.142 NA
ATOM     34  C   UNL     1       1.050   5.836 -14.380  0.00  0.00    +0.425 C 
ATOM     35  O   UNL     1       0.716   4.648 -14.097  0.00  0.00    -0.224 OA
BRANCH  34  36
ATOM     36  O   UNL     1       0.739   6.338 -15.627  0.00  0.00    -0.437 OA
BRANCH  36  37
ATOM     37  C   UNL     1      -0.171   7.415 -15.837  0.00  0.00    +0.171 C 
ATOM     38  C   UNL     1      -0.484   7.407 -17.328  0.00  0.00    +0.044 C 
ATOM     39  C   UNL     1       0.862   7.816 -17.903  0.00  0.00    +0.004 C 
ATOM     40  C   UNL     1       1.285   8.964 -17.007  0.00  0.00    +0.004 C 
ATOM     41  C   UNL     1       0.585   8.726 -15.687  0.00  0.00    +0.044 C 
ENDBRANCH  36  37
ENDBRANCH  34  36
ENDBRANCH  28  33
ENDBRANCH  22  23
ENDBRANCH   2  22
TORSDOF 9
ENDMDL
MODEL 8
REMARK VINA RESULT:      -9.1      3.733      9.915
REMARK  Name = 
REMARK  9 active torsions:
REMARK  status: ('A' for Active; 'I' for Inactive)
REMARK    1  A    between atoms: O_2  and  C_3
REMARK    2  A    between atoms: C_5  and  C_6
REMARK    3  A    between atoms: N_8  and  S_9
REMARK    4  A    between atoms: S_9  and  C_12
REMARK    5  A    between atoms: C_21  and  C_22
REMARK    6  A    between atoms: C_22  and  C_23
REMARK    7  A    between atoms: C_30  and  N_31
REMARK    8  A    between atoms: C_32  and  O_34
REMARK    9  A    between atoms: O_34  and  C_35
REMARK                            x       y       z     vdW  Elec       q    Type
REMARK                         _______ _______ _______ _____ _____    ______ ____
ROOT
ATOM      1  C   UNL     1       1.674   7.502   0.263  0.00  0.00    +0.135 A 
ATOM      2  C   UNL     1       2.342   7.008  -0.850  0.00  0.00    +0.016 A 
ATOM      3  C   UNL     1       3.207   7.881  -1.495  0.00  0.00    -0.001 A 
ATOM      4  C   UNL     1       3.819   8.872  -0.740  0.00  0.00    +0.005 A 
ATOM      5  C   UNL     1       3.178   9.402   0.373  0.00  0.00    +0.062 A 
ATOM      6  C   UNL     1       2.097   8.683   0.853  0.00  0.00    +0.041 A 
ENDROOT
BRANCH   5   7
ATOM      7  C   UNL     1       3.397  10.811   0.709  0.00  0.00    +0.297 C 
ATOM      8  N   UNL     1       4.288  11.538   0.102  0.00  0.00    -0.086 NA
ATOM      9  O   UNL     1       3.106  11.169   2.029  0.00  0.00    -0.264 OA
BRANCH   8  10
ATOM     10  S   UNL     1       5.280  12.677   0.917  0.00  0.00    +0.103 S 
ATOM     11  O   UNL     1       6.055  11.927   1.975  0.00  0.00    -0.146 OA
ATOM     12  O   UNL     1       4.469  13.770   1.566  0.00  0.00    -0.146 OA
BRANCH  10  13
ATOM     13  C   UNL     1       6.443  13.421  -0.140  0.00  0.00    +0.125 A 
ATOM     14  C   UNL     1       6.107  14.072  -1.308  0.00  0.00    -0.003 A 
ATOM     15  C   UNL     1       4.678  14.340  -1.582  0.00  0.00    +0.032 C 
ATOM     16  C   UNL     1       7.124  14.425  -2.184  0.00  0.00    -0.003 A 
ATOM     17  C   UNL     1       8.392  13.898  -1.990  0.00  0.00    -0.000 A 
ATOM     18  C   UNL     1       8.765  13.610  -0.686  0.00  0.00    +0.001 A 
ATOM     19  C   UNL     1       7.760  13.415   0.234  0.00  0.00    +0.020 A 
ENDBRANCH  10  13
ENDBRANCH   8  10
ENDBRANCH   5   7
BRANCH   1  21
ATOM     20  C   UNL     1      -0.178   7.283   1.756  0.00  0.00    +0.252 C 
ATOM     21  O   UNL     1       0.808   6.656   0.943  0.00  0.00    -0.472 OA
ENDBRANCH   1  21
BRANCH   2  22
ATOM     22  C   UNL     1       2.203   5.582  -1.232  0.00  0.00    +0.057 C 
BRANCH  22  23
ATOM     23  C   UNL     1       1.052   5.406  -2.173  0.00  0.00    +0.001 A 
ATOM     24  C   UNL     1       0.986   5.744  -3.519  0.00  0.00    +0.015 A 
ATOM     25  C   UNL     1      -0.355   5.811  -3.875  0.00  0.00    +0.060 A 
ATOM     26  C   UNL     1      -0.669   6.653  -4.935  0.00  0.00    +0.019 A 
ATOM     27  C   UNL     1       0.313   7.061  -5.830  0.00  0.00    +0.018 A 
ATOM     28  C   UNL     1       1.641   6.689  -5.659  0.00  0.00    +0.077 A 
ATOM     29  N   UNL     1      -1.066   5.368  -2.830  0.00  0.00    -0.324 N 
ATOM     30  C   UNL     1      -2.514   5.390  -2.786  0.00  0.00    +0.130 C 
ATOM     31  C   UNL     1       1.956   6.244  -4.380  0.00  0.00    +0.018 A 
ATOM     32  C   UNL     1      -0.266   5.269  -1.756  0.00  0.00    +0.072 A 
BRANCH  28  33
ATOM     33  N   UNL     1       2.466   6.349  -6.781  0.00  0.00    -0.142 NA
ATOM     34  C   UNL     1       2.472   7.111  -7.985  0.00  0.00    +0.425 C 
ATOM     35  O   UNL     1       2.288   8.357  -7.850  0.00  0.00    -0.224 OA
BRANCH  34  36
ATOM     36  O   UNL     1       2.404   6.559  -9.247  0.00  0.00    -0.437 OA
BRANCH  36  37
ATOM     37  C   UNL     1       1.571   5.450  -9.576  0.00  0.00    +0.171 C 
ATOM     38  C   UNL     1       1.720   5.253 -11.080  0.00  0.00    +0.044 C 
ATOM     39  C   UNL     1       1.046   6.512 -11.600  0.00  0.00    +0.004 C 
ATOM     40  C   UNL     1      -0.209   6.605 -10.754  0.00  0.00    +0.004 C 
ATOM     41  C   UNL     1       0.118   5.884  -9.465  0.00  0.00    +0.044 C 
ENDBRANCH  36  37
ENDBRANCH  34  36
ENDBRANCH  28  33
ENDBRANCH  22  23
ENDBRANCH   2  22
TORSDOF 9
ENDMDL
MODEL 9
REMARK VINA RESULT:      -9.1      5.952     10.450
REMARK  Name = 
REMARK  9 active torsions:
REMARK  status: ('A' for Active; 'I' for Inactive)
REMARK    1  A    between atoms: O_2  and  C_3
REMARK    2  A    between atoms: C_5  and  C_6
REMARK    3  A    between atoms: N_8  and  S_9
REMARK    4  A    between atoms: S_9  and  C_12
REMARK    5  A    between atoms: C_21  and  C_22
REMARK    6  A    between atoms: C_22  and  C_23
REMARK    7  A    between atoms: C_30  and  N_31
REMARK    8  A    between atoms: C_32  and  O_34
REMARK    9  A    between atoms: O_34  and  C_35
REMARK                            x       y       z     vdW  Elec       q    Type
REMARK                         _______ _______ _______ _____ _____    ______ ____
ROOT
ATOM      1  C   UNL     1       0.967   5.172 -13.134  0.00  0.00    +0.135 A 
ATOM      2  C   UNL     1       0.552   5.819 -11.978  0.00  0.00    +0.016 A 
ATOM      3  C   UNL     1       0.525   7.206 -12.016  0.00  0.00    -0.001 A 
ATOM      4  C   UNL     1       0.296   7.823 -13.239  0.00  0.00    +0.005 A 
ATOM      5  C   UNL     1       0.708   7.214 -14.418  0.00  0.00    +0.062 A 
ATOM      6  C   UNL     1       1.040   5.873 -14.328  0.00  0.00    +0.041 A 
ENDROOT
BRANCH   5   7
ATOM      7  C   UNL     1       1.143   8.059 -15.534  0.00  0.00    +0.297 C 
ATOM      8  N   UNL     1       0.867   9.328 -15.591  0.00  0.00    -0.086 NA
ATOM      9  O   UNL     1       1.297   7.406 -16.760  0.00  0.00    -0.264 OA
BRANCH   8  10
ATOM     10  S   UNL     1       0.416  10.122 -17.044  0.00  0.00    +0.103 S 
ATOM     11  O   UNL     1      -0.605   9.252 -17.738  0.00  0.00    -0.146 OA
ATOM     12  O   UNL     1       1.597  10.341 -17.957  0.00  0.00    -0.146 OA
BRANCH  10  13
ATOM     13  C   UNL     1      -0.334  11.663 -16.752  0.00  0.00    +0.125 A 
ATOM     14  C   UNL     1      -0.035  12.468 -15.673  0.00  0.00    -0.003 A 
ATOM     15  C   UNL     1       1.127  12.112 -14.828  0.00  0.00    +0.032 C 
ATOM     16  C   UNL     1      -0.851  13.560 -15.416  0.00  0.00    -0.003 A 
ATOM     17  C   UNL     1      -2.066  13.663 -16.079  0.00  0.00    -0.000 A 
ATOM     18  C   UNL     1      -2.141  13.114 -17.349  0.00  0.00    +0.001 A 
ATOM     19  C   UNL     1      -1.229  12.137 -17.675  0.00  0.00    +0.020 A 
ENDBRANCH  10  13
ENDBRANCH   8  10
ENDBRANCH   5   7
BRANCH   1  21
ATOM     20  C   UNL     1       0.842   3.154 -14.406  0.00  0.00    +0.252 C 
ATOM     21  O   UNL     1       0.997   3.784 -13.140  0.00  0.00    -0.472 OA
ENDBRANCH   1  21
BRANCH   2  22
ATOM     22  C   UNL     1       0.060   5.036 -10.819  0.00  0.00    +0.057 C 
BRANCH  22  23
ATOM     23  C   UNL     1       0.664   5.549  -9.550  0.00  0.00    +0.001 A 
ATOM     24  C   UNL     1       1.999   5.522  -9.163  0.00  0.00    +0.015 A 
ATOM     25  C   UNL     1       2.046   5.697  -7.786  0.00  0.00    +0.060 A 
ATOM     26  C   UNL     1       3.144   5.150  -7.134  0.00  0.00    +0.019 A 
ATOM     27  C   UNL     1       4.299   4.831  -7.837  0.00  0.00    +0.018 A 
ATOM     28  C   UNL     1       4.369   4.993  -9.215  0.00  0.00    +0.077 A 
ATOM     29  N   UNL     1       0.802   5.986  -7.379  0.00  0.00    -0.324 N 
ATOM     30  C   UNL     1       0.434   6.130  -5.985  0.00  0.00    +0.130 C 
ATOM     31  C   UNL     1       3.136   5.108  -9.846  0.00  0.00    +0.018 A 
ATOM     32  C   UNL     1      -0.060   5.751  -8.381  0.00  0.00    +0.072 A 
BRANCH  28  33
ATOM     33  N   UNL     1       5.566   5.465  -9.846  0.00  0.00    -0.142 NA
ATOM     34  C   UNL     1       5.565   6.541 -10.781  0.00  0.00    +0.425 C 
ATOM     35  O   UNL     1       4.709   7.450 -10.573  0.00  0.00    -0.224 OA
BRANCH  34  36
ATOM     36  O   UNL     1       6.232   6.514 -11.988  0.00  0.00    -0.437 OA
BRANCH  36  37
ATOM     37  C   UNL     1       6.208   5.398 -12.875  0.00  0.00    +0.171 C 
ATOM     38  C   UNL     1       6.958   5.847 -14.124  0.00  0.00    +0.044 C 
ATOM     39  C   UNL     1       6.001   6.895 -14.668  0.00  0.00    +0.004 C 
ATOM     40  C   UNL     1       4.647   6.226 -14.538  0.00  0.00    +0.004 C 
ATOM     41  C   UNL     1       4.794   5.231 -13.407  0.00  0.00    +0.044 C 
ENDBRANCH  36  37
ENDBRANCH  34  36
ENDBRANCH  28  33
ENDBRANCH  22  23
ENDBRANCH   2  22
TORSDOF 9
ENDMDL
