MODEL 1
REMARK VINA RESULT:      -7.5      0.000      0.000
REMARK  Name = 
REMARK  17 active torsions:
REMARK  status: ('A' for Active; 'I' for Inactive)
REMARK    1  A    between atoms: C_2  and  O_4
REMARK    2  A    between atoms: O_4  and  C_5
REMARK    3  A    between atoms: C_5  and  O_7
REMARK    4  A    between atoms: O_7  and  C_8
REMARK    5  A    between atoms: C_8  and  O_9
REMARK    6  A    between atoms: O_9  and  P_10
REMARK    7  A    between atoms: P_10  and  C_12
REMARK    8  A    between atoms: P_10  and  O_27
REMARK    9  A    between atoms: C_12  and  O_13
REMARK   10  A    between atoms: O_13  and  C_14
REMARK   11  A    between atoms: C_14  and  C_16
REMARK   12  A    between atoms: C_16  and  N_17
REMARK   13  A    between atoms: O_27  and  C_28
REMARK   14  A    between atoms: C_28  and  O_29
REMARK   15  A    between atoms: O_29  and  C_30
REMARK   16  A    between atoms: C_30  and  O_32
REMARK   17  A    between atoms: O_32  and  C_33
REMARK                            x       y       z     vdW  Elec       q    Type
REMARK                         _______ _______ _______ _____ _____    ______ ____
ROOT
ATOM      1  P   UNL     1       4.369   5.394  -8.689  0.00  0.00    +0.378 P 
ATOM      2  O   UNL     1       5.788   5.045  -8.342  0.00  0.00    -0.255 OA
ENDROOT
BRANCH   1   3
ATOM      3  O   UNL     1       4.246   6.404 -10.029  0.00  0.00    -0.250 OA
BRANCH   3   4
ATOM      4  C   UNL     1       4.029   5.708 -11.201  0.00  0.00    +0.372 C 
BRANCH   4   5
ATOM      5  O   UNL     1       5.224   5.142 -11.736  0.00  0.00    -0.387 OA
BRANCH   5   6
ATOM      6  C   UNL     1       5.888   5.690 -12.827  0.00  0.00    +0.514 C 
ATOM      7  O   UNL     1       5.830   5.017 -13.898  0.00  0.00    -0.203 OA
BRANCH   6   8
ATOM      8  O   UNL     1       6.679   6.835 -12.736  0.00  0.00    -0.422 OA
BRANCH   8   9
ATOM      9  C   UNL     1       7.820   6.792 -11.911  0.00  0.00    +0.173 C 
ATOM     10  C   UNL     1       8.565   5.485 -12.005  0.00  0.00    +0.047 C 
ATOM     11  C   UNL     1       7.558   7.233 -10.505  0.00  0.00    +0.047 C 
ENDBRANCH   8   9
ENDBRANCH   6   8
ENDBRANCH   5   6
ENDBRANCH   4   5
ENDBRANCH   3   4
ENDBRANCH   1   3
BRANCH   1  12
ATOM     12  O   UNL     1       3.473   3.976  -8.941  0.00  0.00    -0.250 OA
BRANCH  12  13
ATOM     13  C   UNL     1       2.202   4.172  -8.434  0.00  0.00    +0.372 C 
BRANCH  13  14
ATOM     14  O   UNL     1       1.368   4.486  -9.546  0.00  0.00    -0.387 OA
BRANCH  14  15
ATOM     15  C   UNL     1       0.529   5.590  -9.405  0.00  0.00    +0.514 C 
ATOM     16  O   UNL     1      -0.395   5.570  -8.570  0.00  0.00    -0.203 OA
BRANCH  15  17
ATOM     17  O   UNL     1       0.605   6.678 -10.253  0.00  0.00    -0.422 OA
BRANCH  17  19
ATOM     18  C   UNL     1      -0.566   7.553 -11.489  0.00  0.00    +0.047 C 
ATOM     19  C   UNL     1      -0.166   6.764 -11.435  0.00  0.00    +0.173 C 
ATOM     20  C   UNL     1       0.743   6.473 -12.622  0.00  0.00    +0.047 C 
ENDBRANCH  17  19
ENDBRANCH  15  17
ENDBRANCH  14  15
ENDBRANCH  13  14
ENDBRANCH  12  13
ENDBRANCH   1  12
BRANCH   1  21
ATOM     21  C   UNL     1       3.619   6.252  -7.293  0.00  0.00    +0.258 C 
BRANCH  21  22
ATOM     22  O   UNL     1       4.391   6.075  -6.131  0.00  0.00    -0.343 OA
BRANCH  22  23
ATOM     23  C   UNL     1       3.448   6.791  -5.144  0.00  0.00    +0.139 C 
ATOM     24  C   UNL     1       4.583   6.737  -3.912  0.00  0.00    +0.034 C 
BRANCH  23  25
ATOM     25  C   UNL     1       2.740   5.346  -4.697  0.00  0.00    +0.138 C 
BRANCH  25  26
ATOM     26  N   UNL     1       1.350   5.558  -4.589  0.00  0.00    -0.292 N 
ATOM     27  C   UNL     1       0.743   5.419  -3.382  0.00  0.00    +0.167 A 
ATOM     28  N   UNL     1       1.161   5.525  -2.097  0.00  0.00    -0.205 NA
ATOM     29  C   UNL     1       0.289   5.594  -1.062  0.00  0.00    +0.202 A 
ATOM     30  N   UNL     1      -1.017   5.364  -1.255  0.00  0.00    -0.204 NA
ATOM     31  C   UNL     1      -1.486   5.288  -2.522  0.00  0.00    +0.192 A 
ATOM     32  N   UNL     1      -2.806   4.847  -2.792  0.00  0.00    -0.105 NA
ATOM     33  C   UNL     1      -0.627   5.558  -3.571  0.00  0.00    +0.152 A 
ATOM     34  N   UNL     1      -0.798   5.691  -4.895  0.00  0.00    -0.219 NA
ATOM     35  C   UNL     1       0.398   6.106  -5.358  0.00  0.00    +0.180 A 
ENDBRANCH  25  26
ENDBRANCH  23  25
ENDBRANCH  22  23
ENDBRANCH  21  22
ENDBRANCH   1  21
TORSDOF 17
ENDMDL
MODEL 2
REMARK VINA RESULT:      -7.4      2.351      6.504
REMARK  Name = 
REMARK  17 active torsions:
REMARK  status: ('A' for Active; 'I' for Inactive)
REMARK    1  A    between atoms: C_2  and  O_4
REMARK    2  A    between atoms: O_4  and  C_5
REMARK    3  A    between atoms: C_5  and  O_7
REMARK    4  A    between atoms: O_7  and  C_8
REMARK    5  A    between atoms: C_8  and  O_9
REMARK    6  A    between atoms: O_9  and  P_10
REMARK    7  A    between atoms: P_10  and  C_12
REMARK    8  A    between atoms: P_10  and  O_27
REMARK    9  A    between atoms: C_12  and  O_13
REMARK   10  A    between atoms: O_13  and  C_14
REMARK   11  A    between atoms: C_14  and  C_16
REMARK   12  A    between atoms: C_16  and  N_17
REMARK   13  A    between atoms: O_27  and  C_28
REMARK   14  A    between atoms: C_28  and  O_29
REMARK   15  A    between atoms: O_29  and  C_30
REMARK   16  A    between atoms: C_30  and  O_32
REMARK   17  A    between atoms: O_32  and  C_33
REMARK                            x       y       z     vdW  Elec       q    Type
REMARK                         _______ _______ _______ _____ _____    ______ ____
ROOT
ATOM      1  P   UNL     1       2.298   6.324  -7.048  0.00  0.00    +0.378 P 
ATOM      2  O   UNL     1       2.773   7.720  -7.324  0.00  0.00    -0.255 OA
ENDROOT
BRANCH   1   3
ATOM      3  O   UNL     1       0.822   6.275  -6.241  0.00  0.00    -0.250 OA
BRANCH   3   4
ATOM      4  C   UNL     1       0.228   5.031  -6.294  0.00  0.00    +0.372 C 
BRANCH   4   5
ATOM      5  O   UNL     1      -1.080   5.068  -6.862  0.00  0.00    -0.387 OA
BRANCH   5   6
ATOM      6  C   UNL     1      -2.191   5.508  -6.153  0.00  0.00    +0.514 C 
ATOM      7  O   UNL     1      -3.162   5.917  -6.857  0.00  0.00    -0.203 OA
BRANCH   6   8
ATOM      8  O   UNL     1      -2.208   5.622  -4.764  0.00  0.00    -0.422 OA
BRANCH   8   9
ATOM      9  C   UNL     1      -2.759   6.789  -4.198  0.00  0.00    +0.173 C 
ATOM     10  C   UNL     1      -1.831   7.975  -4.276  0.00  0.00    +0.047 C 
ATOM     11  C   UNL     1      -3.344   6.574  -2.838  0.00  0.00    +0.047 C 
ENDBRANCH   8   9
ENDBRANCH   6   8
ENDBRANCH   5   6
ENDBRANCH   4   5
ENDBRANCH   3   4
ENDBRANCH   1   3
BRANCH   1  12
ATOM     12  O   UNL     1       2.201   5.451  -8.498  0.00  0.00    -0.250 OA
BRANCH  12  13
ATOM     13  C   UNL     1       3.296   4.610  -8.572  0.00  0.00    +0.372 C 
BRANCH  13  14
ATOM     14  O   UNL     1       3.969   4.930  -9.787  0.00  0.00    -0.387 OA
BRANCH  14  15
ATOM     15  C   UNL     1       5.313   5.282  -9.682  0.00  0.00    +0.514 C 
ATOM     16  O   UNL     1       5.878   5.266  -8.571  0.00  0.00    -0.203 OA
BRANCH  15  17
ATOM     17  O   UNL     1       6.026   5.775 -10.758  0.00  0.00    -0.422 OA
BRANCH  17  19
ATOM     18  C   UNL     1       7.714   6.659 -10.944  0.00  0.00    +0.047 C 
ATOM     19  C   UNL     1       6.910   6.870 -10.635  0.00  0.00    +0.173 C 
ATOM     20  C   UNL     1       6.292   8.068 -11.347  0.00  0.00    +0.047 C 
ENDBRANCH  17  19
ENDBRANCH  15  17
ENDBRANCH  14  15
ENDBRANCH  13  14
ENDBRANCH  12  13
ENDBRANCH   1  12
BRANCH   1  21
ATOM     21  C   UNL     1       3.511   5.488  -6.008  0.00  0.00    +0.258 C 
BRANCH  21  22
ATOM     22  O   UNL     1       4.610   6.328  -5.759  0.00  0.00    -0.343 OA
BRANCH  22  23
ATOM     23  C   UNL     1       4.150   6.872  -4.392  0.00  0.00    +0.139 C 
ATOM     24  C   UNL     1       5.702   7.359  -3.985  0.00  0.00    +0.034 C 
BRANCH  23  25
ATOM     25  C   UNL     1       4.322   5.371  -3.682  0.00  0.00    +0.138 C 
BRANCH  25  26
ATOM     26  N   UNL     1       3.801   5.447  -2.374  0.00  0.00    -0.292 N 
ATOM     27  C   UNL     1       2.463   5.595  -2.193  0.00  0.00    +0.167 A 
ATOM     28  N   UNL     1       1.370   5.279  -2.930  0.00  0.00    -0.205 NA
ATOM     29  C   UNL     1       0.121   5.297  -2.405  0.00  0.00    +0.202 A 
ATOM     30  N   UNL     1      -0.100   5.815  -1.189  0.00  0.00    -0.204 NA
ATOM     31  C   UNL     1       0.961   6.110  -0.403  0.00  0.00    +0.192 A 
ATOM     32  N   UNL     1       0.802   6.844   0.800  0.00  0.00    -0.105 NA
ATOM     33  C   UNL     1       2.229   5.767  -0.833  0.00  0.00    +0.152 A 
ATOM     34  N   UNL     1       3.440   5.801  -0.259  0.00  0.00    -0.219 NA
ATOM     35  C   UNL     1       4.258   5.189  -1.140  0.00  0.00    +0.180 A 
ENDBRANCH  25  26
ENDBRANCH  23  25
ENDBRANCH  22  23
ENDBRANCH  21  22
ENDBRANCH   1  21
TORSDOF 17
ENDMDL
MODEL 3
REMARK VINA RESULT:      -7.3      4.485      8.914
REMARK  Name = 
REMARK  17 active torsions:
REMARK  status: ('A' for Active; 'I' for Inactive)
REMARK    1  A    between atoms: C_2  and  O_4
REMARK    2  A    between atoms: O_4  and  C_5
REMARK    3  A    between atoms: C_5  and  O_7
REMARK    4  A    between atoms: O_7  and  C_8
REMARK    5  A    between atoms: C_8  and  O_9
REMARK    6  A    between atoms: O_9  and  P_10
REMARK    7  A    between atoms: P_10  and  C_12
REMARK    8  A    between atoms: P_10  and  O_27
REMARK    9  A    between atoms: C_12  and  O_13
REMARK   10  A    between atoms: O_13  and  C_14
REMARK   11  A    between atoms: C_14  and  C_16
REMARK   12  A    between atoms: C_16  and  N_17
REMARK   13  A    between atoms: O_27  and  C_28
REMARK   14  A    between atoms: C_28  and  O_29
REMARK   15  A    between atoms: O_29  and  C_30
REMARK   16  A    between atoms: C_30  and  O_32
REMARK   17  A    between atoms: O_32  and  C_33
REMARK                            x       y       z     vdW  Elec       q    Type
REMARK                         _______ _______ _______ _____ _____    ______ ____
ROOT
ATOM      1  P   UNL     1       2.341   6.040  -4.944  0.00  0.00    +0.378 P 
ATOM      2  O   UNL     1       2.489   7.275  -4.103  0.00  0.00    -0.255 OA
ENDROOT
BRANCH   1   3
ATOM      3  O   UNL     1       3.775   5.176  -5.106  0.00  0.00    -0.250 OA
BRANCH   3   4
ATOM      4  C   UNL     1       4.556   5.223  -3.969  0.00  0.00    +0.372 C 
BRANCH   4   5
ATOM      5  O   UNL     1       3.968   4.534  -2.867  0.00  0.00    -0.387 OA
BRANCH   5   6
ATOM      6  C   UNL     1       4.025   5.019  -1.566  0.00  0.00    +0.514 C 
ATOM      7  O   UNL     1       4.506   4.223  -0.706  0.00  0.00    -0.203 OA
BRANCH   6   8
ATOM      8  O   UNL     1       3.475   6.243  -1.188  0.00  0.00    -0.422 OA
BRANCH   8   9
ATOM      9  C   UNL     1       4.354   7.305  -0.897  0.00  0.00    +0.173 C 
ATOM     10  C   UNL     1       4.998   7.181   0.461  0.00  0.00    +0.047 C 
ATOM     11  C   UNL     1       3.765   8.656  -1.160  0.00  0.00    +0.047 C 
ENDBRANCH   8   9
ENDBRANCH   6   8
ENDBRANCH   5   6
ENDBRANCH   4   5
ENDBRANCH   3   4
ENDBRANCH   1   3
BRANCH   1  12
ATOM     12  O   UNL     1       1.129   5.046  -4.298  0.00  0.00    -0.250 OA
BRANCH  12  13
ATOM     13  C   UNL     1       0.603   5.672  -3.183  0.00  0.00    +0.372 C 
BRANCH  13  14
ATOM     14  O   UNL     1      -0.513   4.887  -2.769  0.00  0.00    -0.387 OA
BRANCH  14  15
ATOM     15  C   UNL     1      -1.776   5.419  -3.017  0.00  0.00    +0.514 C 
ATOM     16  O   UNL     1      -2.797   4.757  -2.747  0.00  0.00    -0.203 OA
BRANCH  15  17
ATOM     17  O   UNL     1      -1.946   6.621  -3.677  0.00  0.00    -0.422 OA
BRANCH  17  19
ATOM     18  C   UNL     1      -2.613   7.544  -5.217  0.00  0.00    +0.047 C 
ATOM     19  C   UNL     1      -2.589   6.704  -4.933  0.00  0.00    +0.173 C 
ATOM     20  C   UNL     1      -1.875   5.767  -5.900  0.00  0.00    +0.047 C 
ENDBRANCH  17  19
ENDBRANCH  15  17
ENDBRANCH  14  15
ENDBRANCH  13  14
ENDBRANCH  12  13
ENDBRANCH   1  12
BRANCH   1  21
ATOM     21  C   UNL     1       1.807   6.519  -6.598  0.00  0.00    +0.258 C 
BRANCH  21  22
ATOM     22  O   UNL     1       2.020   5.470  -7.509  0.00  0.00    -0.343 OA
BRANCH  22  23
ATOM     23  C   UNL     1       2.654   6.302  -8.640  0.00  0.00    +0.139 C 
ATOM     24  C   UNL     1       1.247   6.265  -9.551  0.00  0.00    +0.034 C 
BRANCH  23  25
ATOM     25  C   UNL     1       3.281   4.933  -9.361  0.00  0.00    +0.138 C 
BRANCH  25  26
ATOM     26  N   UNL     1       4.555   5.257  -9.874  0.00  0.00    -0.292 N 
ATOM     27  C   UNL     1       4.772   5.204 -11.213  0.00  0.00    +0.167 A 
ATOM     28  N   UNL     1       3.974   5.319 -12.304  0.00  0.00    -0.205 NA
ATOM     29  C   UNL     1       4.482   5.488 -13.549  0.00  0.00    +0.202 A 
ATOM     30  N   UNL     1       5.796   5.355 -13.773  0.00  0.00    -0.204 NA
ATOM     31  C   UNL     1       6.634   5.275 -12.714  0.00  0.00    +0.192 A 
ATOM     32  N   UNL     1       7.999   4.930 -12.881  0.00  0.00    -0.105 NA
ATOM     33  C   UNL     1       6.122   5.444 -11.441  0.00  0.00    +0.152 A 
ATOM     34  N   UNL     1       6.681   5.547 -10.226  0.00  0.00    -0.219 NA
ATOM     35  C   UNL     1       5.659   5.852  -9.400  0.00  0.00    +0.180 A 
ENDBRANCH  25  26
ENDBRANCH  23  25
ENDBRANCH  22  23
ENDBRANCH  21  22
ENDBRANCH   1  21
TORSDOF 17
ENDMDL
MODEL 4
REMARK VINA RESULT:      -7.2      1.112      4.675
REMARK  Name = 
REMARK  17 active torsions:
REMARK  status: ('A' for Active; 'I' for Inactive)
REMARK    1  A    between atoms: C_2  and  O_4
REMARK    2  A    between atoms: O_4  and  C_5
REMARK    3  A    between atoms: C_5  and  O_7
REMARK    4  A    between atoms: O_7  and  C_8
REMARK    5  A    between atoms: C_8  and  O_9
REMARK    6  A    between atoms: O_9  and  P_10
REMARK    7  A    between atoms: P_10  and  C_12
REMARK    8  A    between atoms: P_10  and  O_27
REMARK    9  A    between atoms: C_12  and  O_13
REMARK   10  A    between atoms: O_13  and  C_14
REMARK   11  A    between atoms: C_14  and  C_16
REMARK   12  A    between atoms: C_16  and  N_17
REMARK   13  A    between atoms: O_27  and  C_28
REMARK   14  A    between atoms: C_28  and  O_29
REMARK   15  A    between atoms: O_29  and  C_30
REMARK   16  A    between atoms: C_30  and  O_32
REMARK   17  A    between atoms: O_32  and  C_33
REMARK                            x       y       z     vdW  Elec       q    Type
REMARK                         _______ _______ _______ _____ _____    ______ ____
ROOT
ATOM      1  P   UNL     1       4.201   5.600  -8.374  0.00  0.00    +0.378 P 
ATOM      2  O   UNL     1       3.408   6.721  -8.980  0.00  0.00    -0.255 OA
ENDROOT
BRANCH   1   3
ATOM      3  O   UNL     1       3.530   4.084  -8.662  0.00  0.00    -0.250 OA
BRANCH   3   4
ATOM      4  C   UNL     1       2.159   4.070  -8.502  0.00  0.00    +0.372 C 
BRANCH   4   5
ATOM      5  O   UNL     1       1.458   4.122  -9.743  0.00  0.00    -0.387 OA
BRANCH   5   6
ATOM      6  C   UNL     1       0.598   5.163 -10.073  0.00  0.00    +0.514 C 
ATOM      7  O   UNL     1       0.028   5.733  -9.096  0.00  0.00    -0.203 OA
BRANCH   6   8
ATOM      8  O   UNL     1       0.271   5.488 -11.388  0.00  0.00    -0.422 OA
BRANCH   8   9
ATOM      9  C   UNL     1       0.483   6.812 -11.819  0.00  0.00    +0.173 C 
ATOM     10  C   UNL     1      -0.743   7.679 -11.686  0.00  0.00    +0.047 C 
ATOM     11  C   UNL     1       1.140   6.906 -13.161  0.00  0.00    +0.047 C 
ENDBRANCH   8   9
ENDBRANCH   6   8
ENDBRANCH   5   6
ENDBRANCH   4   5
ENDBRANCH   3   4
ENDBRANCH   1   3
BRANCH   1  12
ATOM     12  O   UNL     1       5.797   5.650  -8.942  0.00  0.00    -0.250 OA
BRANCH  12  13
ATOM     13  C   UNL     1       5.763   5.811 -10.315  0.00  0.00    +0.372 C 
BRANCH  13  14
ATOM     14  O   UNL     1       7.058   5.455 -10.795  0.00  0.00    -0.387 OA
BRANCH  14  15
ATOM     15  C   UNL     1       7.241   5.483 -12.176  0.00  0.00    +0.514 C 
ATOM     16  O   UNL     1       7.999   4.659 -12.723  0.00  0.00    -0.203 OA
BRANCH  15  17
ATOM     17  O   UNL     1       6.702   6.481 -12.964  0.00  0.00    -0.422 OA
BRANCH  17  19
ATOM     18  C   UNL     1       5.248   6.071 -14.141  0.00  0.00    +0.047 C 
ATOM     19  C   UNL     1       6.119   6.211 -14.224  0.00  0.00    +0.173 C 
ATOM     20  C   UNL     1       6.452   7.365 -15.163  0.00  0.00    +0.047 C 
ENDBRANCH  17  19
ENDBRANCH  15  17
ENDBRANCH  14  15
ENDBRANCH  13  14
ENDBRANCH  12  13
ENDBRANCH   1  12
BRANCH   1  21
ATOM     21  C   UNL     1       4.268   5.831  -6.587  0.00  0.00    +0.258 C 
BRANCH  21  22
ATOM     22  O   UNL     1       3.417   6.878  -6.192  0.00  0.00    -0.343 OA
BRANCH  22  23
ATOM     23  C   UNL     1       3.357   6.541  -4.689  0.00  0.00    +0.139 C 
ATOM     24  C   UNL     1       4.845   5.770  -4.731  0.00  0.00    +0.034 C 
BRANCH  23  25
ATOM     25  C   UNL     1       2.503   5.138  -4.989  0.00  0.00    +0.138 C 
BRANCH  25  26
ATOM     26  N   UNL     1       1.132   5.420  -4.818  0.00  0.00    -0.292 N 
ATOM     27  C   UNL     1       0.567   5.285  -3.590  0.00  0.00    +0.167 A 
ATOM     28  N   UNL     1       1.042   5.342  -2.322  0.00  0.00    -0.205 NA
ATOM     29  C   UNL     1       0.218   5.433  -1.250  0.00  0.00    +0.202 A 
ATOM     30  N   UNL     1      -1.105   5.276  -1.393  0.00  0.00    -0.204 NA
ATOM     31  C   UNL     1      -1.629   5.251  -2.640  0.00  0.00    +0.192 A 
ATOM     32  N   UNL     1      -2.980   4.885  -2.863  0.00  0.00    -0.105 NA
ATOM     33  C   UNL     1      -0.800   5.500  -3.719  0.00  0.00    +0.152 A 
ATOM     34  N   UNL     1      -1.018   5.670  -5.031  0.00  0.00    -0.219 NA
ATOM     35  C   UNL     1       0.179   6.032  -5.536  0.00  0.00    +0.180 A 
ENDBRANCH  25  26
ENDBRANCH  23  25
ENDBRANCH  22  23
ENDBRANCH  21  22
ENDBRANCH   1  21
TORSDOF 17
ENDMDL
MODEL 5
REMARK VINA RESULT:      -7.2      2.059      4.033
REMARK  Name = 
REMARK  17 active torsions:
REMARK  status: ('A' for Active; 'I' for Inactive)
REMARK    1  A    between atoms: C_2  and  O_4
REMARK    2  A    between atoms: O_4  and  C_5
REMARK    3  A    between atoms: C_5  and  O_7
REMARK    4  A    between atoms: O_7  and  C_8
REMARK    5  A    between atoms: C_8  and  O_9
REMARK    6  A    between atoms: O_9  and  P_10
REMARK    7  A    between atoms: P_10  and  C_12
REMARK    8  A    between atoms: P_10  and  O_27
REMARK    9  A    between atoms: C_12  and  O_13
REMARK   10  A    between atoms: O_13  and  C_14
REMARK   11  A    between atoms: C_14  and  C_16
REMARK   12  A    between atoms: C_16  and  N_17
REMARK   13  A    between atoms: O_27  and  C_28
REMARK   14  A    between atoms: C_28  and  O_29
REMARK   15  A    between atoms: O_29  and  C_30
REMARK   16  A    between atoms: C_30  and  O_32
REMARK   17  A    between atoms: O_32  and  C_33
REMARK                            x       y       z     vdW  Elec       q    Type
REMARK                         _______ _______ _______ _____ _____    ______ ____
ROOT
ATOM      1  P   UNL     1       2.349   4.687  -7.300  0.00  0.00    +0.378 P 
ATOM      2  O   UNL     1       2.361   3.626  -6.239  0.00  0.00    -0.255 OA
ENDROOT
BRANCH   1   3
ATOM      3  O   UNL     1       3.088   4.199  -8.730  0.00  0.00    -0.250 OA
BRANCH   3   4
ATOM      4  C   UNL     1       2.938   5.120  -9.747  0.00  0.00    +0.372 C 
BRANCH   4   5
ATOM      5  O   UNL     1       3.995   6.077  -9.784  0.00  0.00    -0.387 OA
BRANCH   5   6
ATOM      6  C   UNL     1       5.328   5.715  -9.934  0.00  0.00    +0.514 C 
ATOM      7  O   UNL     1       5.964   5.513  -8.857  0.00  0.00    -0.203 OA
BRANCH   6   8
ATOM      8  O   UNL     1       5.975   5.695 -11.169  0.00  0.00    -0.422 OA
BRANCH   8   9
ATOM      9  C   UNL     1       7.077   6.552 -11.357  0.00  0.00    +0.173 C 
ATOM     10  C   UNL     1       6.693   8.010 -11.365  0.00  0.00    +0.047 C 
ATOM     11  C   UNL     1       7.952   6.156 -12.504  0.00  0.00    +0.047 C 
ENDBRANCH   8   9
ENDBRANCH   6   8
ENDBRANCH   5   6
ENDBRANCH   4   5
ENDBRANCH   3   4
ENDBRANCH   1   3
BRANCH   1  12
ATOM     12  O   UNL     1       0.755   5.180  -7.604  0.00  0.00    -0.250 OA
BRANCH  12  13
ATOM     13  C   UNL     1       0.413   6.141  -6.670  0.00  0.00    +0.372 C 
BRANCH  13  14
ATOM     14  O   UNL     1      -0.490   5.516  -5.761  0.00  0.00    -0.387 OA
BRANCH  14  15
ATOM     15  C   UNL     1      -1.835   5.862  -5.882  0.00  0.00    +0.514 C 
ATOM     16  O   UNL     1      -2.620   5.114  -6.495  0.00  0.00    -0.203 OA
BRANCH  15  17
ATOM     17  O   UNL     1      -2.317   7.081  -5.447  0.00  0.00    -0.422 OA
BRANCH  17  19
ATOM     18  C   UNL     1      -1.959   8.522  -4.237  0.00  0.00    +0.047 C 
ATOM     19  C   UNL     1      -1.945   7.635  -4.201  0.00  0.00    +0.173 C 
ATOM     20  C   UNL     1      -2.867   7.067  -3.129  0.00  0.00    +0.047 C 
ENDBRANCH  17  19
ENDBRANCH  15  17
ENDBRANCH  14  15
ENDBRANCH  13  14
ENDBRANCH  12  13
ENDBRANCH   1  12
BRANCH   1  21
ATOM     21  C   UNL     1       3.242   6.131  -6.694  0.00  0.00    +0.258 C 
BRANCH  21  22
ATOM     22  O   UNL     1       4.316   5.740  -5.876  0.00  0.00    -0.343 OA
BRANCH  22  23
ATOM     23  C   UNL     1       3.842   6.415  -4.573  0.00  0.00    +0.139 C 
ATOM     24  C   UNL     1       5.330   7.146  -4.329  0.00  0.00    +0.034 C 
BRANCH  23  25
ATOM     25  C   UNL     1       4.240   5.065  -3.674  0.00  0.00    +0.138 C 
BRANCH  25  26
ATOM     26  N   UNL     1       3.769   5.266  -2.359  0.00  0.00    -0.292 N 
ATOM     27  C   UNL     1       2.444   5.472  -2.146  0.00  0.00    +0.167 A 
ATOM     28  N   UNL     1       1.316   5.131  -2.817  0.00  0.00    -0.205 NA
ATOM     29  C   UNL     1       0.088   5.233  -2.253  0.00  0.00    +0.202 A 
ATOM     30  N   UNL     1      -0.074   5.856  -1.077  0.00  0.00    -0.204 NA
ATOM     31  C   UNL     1       1.024   6.181  -0.356  0.00  0.00    +0.192 A 
ATOM     32  N   UNL     1       0.931   7.016   0.786  0.00  0.00    -0.105 NA
ATOM     33  C   UNL     1       2.265   5.763  -0.799  0.00  0.00    +0.152 A 
ATOM     34  N   UNL     1       3.497   5.806  -0.271  0.00  0.00    -0.219 NA
ATOM     35  C   UNL     1       4.263   5.097  -1.125  0.00  0.00    +0.180 A 
ENDBRANCH  25  26
ENDBRANCH  23  25
ENDBRANCH  22  23
ENDBRANCH  21  22
ENDBRANCH   1  21
TORSDOF 17
ENDMDL
MODEL 6
REMARK VINA RESULT:      -7.1      1.940      6.227
REMARK  Name = 
REMARK  17 active torsions:
REMARK  status: ('A' for Active; 'I' for Inactive)
REMARK    1  A    between atoms: C_2  and  O_4
REMARK    2  A    between atoms: O_4  and  C_5
REMARK    3  A    between atoms: C_5  and  O_7
REMARK    4  A    between atoms: O_7  and  C_8
REMARK    5  A    between atoms: C_8  and  O_9
REMARK    6  A    between atoms: O_9  and  P_10
REMARK    7  A    between atoms: P_10  and  C_12
REMARK    8  A    between atoms: P_10  and  O_27
REMARK    9  A    between atoms: C_12  and  O_13
REMARK   10  A    between atoms: O_13  and  C_14
REMARK   11  A    between atoms: C_14  and  C_16
REMARK   12  A    between atoms: C_16  and  N_17
REMARK   13  A    between atoms: O_27  and  C_28
REMARK   14  A    between atoms: C_28  and  O_29
REMARK   15  A    between atoms: O_29  and  C_30
REMARK   16  A    between atoms: C_30  and  O_32
REMARK   17  A    between atoms: O_32  and  C_33
REMARK                            x       y       z     vdW  Elec       q    Type
REMARK                         _______ _______ _______ _____ _____    ______ ____
ROOT
ATOM      1  P   UNL     1       2.549   7.038  -8.303  0.00  0.00    +0.378 P 
ATOM      2  O   UNL     1       2.228   8.455  -7.929  0.00  0.00    -0.255 OA
ENDROOT
BRANCH   1   3
ATOM      3  O   UNL     1       1.336   6.301  -9.207  0.00  0.00    -0.250 OA
BRANCH   3   4
ATOM      4  C   UNL     1       0.794   5.202  -8.573  0.00  0.00    +0.372 C 
BRANCH   4   5
ATOM      5  O   UNL     1      -0.545   5.424  -8.132  0.00  0.00    -0.387 OA
BRANCH   5   6
ATOM      6  C   UNL     1      -0.926   5.291  -6.802  0.00  0.00    +0.514 C 
ATOM      7  O   UNL     1      -0.127   4.639  -6.067  0.00  0.00    -0.203 OA
BRANCH   6   8
ATOM      8  O   UNL     1      -2.160   5.725  -6.320  0.00  0.00    -0.422 OA
BRANCH   8   9
ATOM      9  C   UNL     1      -2.233   6.172  -4.986  0.00  0.00    +0.173 C 
ATOM     10  C   UNL     1      -3.163   5.341  -4.138  0.00  0.00    +0.047 C 
ATOM     11  C   UNL     1      -2.464   7.645  -4.862  0.00  0.00    +0.047 C 
ENDBRANCH   8   9
ENDBRANCH   6   8
ENDBRANCH   5   6
ENDBRANCH   4   5
ENDBRANCH   3   4
ENDBRANCH   1   3
BRANCH   1  12
ATOM     12  O   UNL     1       4.020   6.984  -9.146  0.00  0.00    -0.250 OA
BRANCH  12  13
ATOM     13  C   UNL     1       3.791   6.403 -10.379  0.00  0.00    +0.372 C 
BRANCH  13  14
ATOM     14  O   UNL     1       4.984   5.701 -10.721  0.00  0.00    -0.387 OA
BRANCH  14  15
ATOM     15  C   UNL     1       5.149   5.368 -12.064  0.00  0.00    +0.514 C 
ATOM     16  O   UNL     1       4.155   5.272 -12.811  0.00  0.00    -0.203 OA
BRANCH  15  17
ATOM     17  O   UNL     1       6.379   5.013 -12.584  0.00  0.00    -0.422 OA
BRANCH  17  19
ATOM     18  C   UNL     1       8.173   5.659 -12.756  0.00  0.00    +0.047 C 
ATOM     19  C   UNL     1       7.360   5.976 -12.914  0.00  0.00    +0.173 C 
ATOM     20  C   UNL     1       7.154   6.394 -14.364  0.00  0.00    +0.047 C 
ENDBRANCH  17  19
ENDBRANCH  15  17
ENDBRANCH  14  15
ENDBRANCH  13  14
ENDBRANCH  12  13
ENDBRANCH   1  12
BRANCH   1  21
ATOM     21  C   UNL     1       2.767   6.070  -6.798  0.00  0.00    +0.258 C 
BRANCH  21  22
ATOM     22  O   UNL     1       4.021   6.331  -6.219  0.00  0.00    -0.343 OA
BRANCH  22  23
ATOM     23  C   UNL     1       3.519   6.827  -4.849  0.00  0.00    +0.139 C 
ATOM     24  C   UNL     1       5.036   7.395  -4.420  0.00  0.00    +0.034 C 
BRANCH  23  25
ATOM     25  C   UNL     1       3.770   5.326  -4.161  0.00  0.00    +0.138 C 
BRANCH  25  26
ATOM     26  N   UNL     1       3.473   5.425  -2.785  0.00  0.00    -0.292 N 
ATOM     27  C   UNL     1       2.186   5.598  -2.388  0.00  0.00    +0.167 A 
ATOM     28  N   UNL     1       0.981   5.295  -2.932  0.00  0.00    -0.205 NA
ATOM     29  C   UNL     1      -0.164   5.340  -2.209  0.00  0.00    +0.202 A 
ATOM     30  N   UNL     1      -0.173   5.873  -0.979  0.00  0.00    -0.204 NA
ATOM     31  C   UNL     1       1.007   6.157  -0.382  0.00  0.00    +0.192 A 
ATOM     32  N   UNL     1       1.061   6.905   0.821  0.00  0.00    -0.105 NA
ATOM     33  C   UNL     1       2.182   5.787  -1.011  0.00  0.00    +0.152 A 
ATOM     34  N   UNL     1       3.472   5.806  -0.644  0.00  0.00    -0.219 NA
ATOM     35  C   UNL     1       4.123   5.171  -1.640  0.00  0.00    +0.180 A 
ENDBRANCH  25  26
ENDBRANCH  23  25
ENDBRANCH  22  23
ENDBRANCH  21  22
ENDBRANCH   1  21
TORSDOF 17
ENDMDL
MODEL 7
REMARK VINA RESULT:      -7.0      4.117      9.508
REMARK  Name = 
REMARK  17 active torsions:
REMARK  status: ('A' for Active; 'I' for Inactive)
REMARK    1  A    between atoms: C_2  and  O_4
REMARK    2  A    between atoms: O_4  and  C_5
REMARK    3  A    between atoms: C_5  and  O_7
REMARK    4  A    between atoms: O_7  and  C_8
REMARK    5  A    between atoms: C_8  and  O_9
REMARK    6  A    between atoms: O_9  and  P_10
REMARK    7  A    between atoms: P_10  and  C_12
REMARK    8  A    between atoms: P_10  and  O_27
REMARK    9  A    between atoms: C_12  and  O_13
REMARK   10  A    between atoms: O_13  and  C_14
REMARK   11  A    between atoms: C_14  and  C_16
REMARK   12  A    between atoms: C_16  and  N_17
REMARK   13  A    between atoms: O_27  and  C_28
REMARK   14  A    between atoms: C_28  and  O_29
REMARK   15  A    between atoms: O_29  and  C_30
REMARK   16  A    between atoms: C_30  and  O_32
REMARK   17  A    between atoms: O_32  and  C_33
REMARK                            x       y       z     vdW  Elec       q    Type
REMARK                         _______ _______ _______ _____ _____    ______ ____
ROOT
ATOM      1  P   UNL     1       2.458   4.931  -7.548  0.00  0.00    +0.378 P 
ATOM      2  O   UNL     1       3.365   4.101  -8.410  0.00  0.00    -0.255 OA
ENDROOT
BRANCH   1   3
ATOM      3  O   UNL     1       1.983   4.144  -6.139  0.00  0.00    -0.250 OA
BRANCH   3   4
ATOM      4  C   UNL     1       0.892   4.740  -5.539  0.00  0.00    +0.372 C 
BRANCH   4   5
ATOM      5  O   UNL     1       1.098   4.995  -4.151  0.00  0.00    -0.387 OA
BRANCH   5   6
ATOM      6  C   UNL     1       0.085   5.455  -3.317  0.00  0.00    +0.514 C 
ATOM      7  O   UNL     1      -0.072   4.807  -2.240  0.00  0.00    -0.203 OA
BRANCH   6   8
ATOM      8  O   UNL     1      -0.793   6.474  -3.681  0.00  0.00    -0.422 OA
BRANCH   8   9
ATOM      9  C   UNL     1      -2.103   6.121  -4.061  0.00  0.00    +0.173 C 
ATOM     10  C   UNL     1      -2.466   6.608  -5.441  0.00  0.00    +0.047 C 
ATOM     11  C   UNL     1      -3.132   6.439  -3.023  0.00  0.00    +0.047 C 
ENDBRANCH   8   9
ENDBRANCH   6   8
ENDBRANCH   5   6
ENDBRANCH   4   5
ENDBRANCH   3   4
ENDBRANCH   1   3
BRANCH   1  12
ATOM     12  O   UNL     1       3.210   6.403  -7.171  0.00  0.00    -0.250 OA
BRANCH  12  13
ATOM     13  C   UNL     1       4.102   6.181  -6.138  0.00  0.00    +0.372 C 
BRANCH  13  14
ATOM     14  O   UNL     1       3.740   7.081  -5.093  0.00  0.00    -0.387 OA
BRANCH  14  15
ATOM     15  C   UNL     1       4.582   7.119  -3.983  0.00  0.00    +0.514 C 
ATOM     16  O   UNL     1       5.803   7.319  -4.131  0.00  0.00    -0.203 OA
BRANCH  15  17
ATOM     17  O   UNL     1       4.130   6.817  -2.713  0.00  0.00    -0.422 OA
BRANCH  17  19
ATOM     18  C   UNL     1       3.739   8.232  -1.483  0.00  0.00    +0.047 C 
ATOM     19  C   UNL     1       4.398   7.651  -1.603  0.00  0.00    +0.173 C 
ATOM     20  C   UNL     1       4.642   6.766  -0.387  0.00  0.00    +0.047 C 
ENDBRANCH  17  19
ENDBRANCH  15  17
ENDBRANCH  14  15
ENDBRANCH  13  14
ENDBRANCH  12  13
ENDBRANCH   1  12
BRANCH   1  21
ATOM     21  C   UNL     1       0.965   5.323  -8.479  0.00  0.00    +0.258 C 
BRANCH  21  22
ATOM     22  O   UNL     1       1.145   5.043  -9.844  0.00  0.00    -0.343 OA
BRANCH  22  23
ATOM     23  C   UNL     1       1.331   6.493 -10.332  0.00  0.00    +0.139 C 
ATOM     24  C   UNL     1      -0.075   6.442 -11.242  0.00  0.00    +0.034 C 
BRANCH  23  25
ATOM     25  C   UNL     1       2.295   5.994 -11.601  0.00  0.00    +0.138 C 
BRANCH  25  26
ATOM     26  N   UNL     1       3.640   6.204 -11.233  0.00  0.00    -0.292 N 
ATOM     27  C   UNL     1       4.634   5.794 -12.061  0.00  0.00    +0.167 A 
ATOM     28  N   UNL     1       4.722   5.582 -13.398  0.00  0.00    -0.205 NA
ATOM     29  C   UNL     1       5.914   5.420 -14.022  0.00  0.00    +0.202 A 
ATOM     30  N   UNL     1       7.041   5.272 -13.312  0.00  0.00    -0.204 NA
ATOM     31  C   UNL     1       7.009   5.509 -11.980  0.00  0.00    +0.192 A 
ATOM     32  N   UNL     1       8.106   5.174 -11.148  0.00  0.00    -0.105 NA
ATOM     33  C   UNL     1       5.847   6.004 -11.416  0.00  0.00    +0.152 A 
ATOM     34  N   UNL     1       5.533   6.452 -10.191  0.00  0.00    -0.219 NA
ATOM     35  C   UNL     1       4.282   6.940 -10.313  0.00  0.00    +0.180 A 
ENDBRANCH  25  26
ENDBRANCH  23  25
ENDBRANCH  22  23
ENDBRANCH  21  22
ENDBRANCH   1  21
TORSDOF 17
ENDMDL
MODEL 8
REMARK VINA RESULT:      -7.0      2.391      4.843
REMARK  Name = 
REMARK  17 active torsions:
REMARK  status: ('A' for Active; 'I' for Inactive)
REMARK    1  A    between atoms: C_2  and  O_4
REMARK    2  A    between atoms: O_4  and  C_5
REMARK    3  A    between atoms: C_5  and  O_7
REMARK    4  A    between atoms: O_7  and  C_8
REMARK    5  A    between atoms: C_8  and  O_9
REMARK    6  A    between atoms: O_9  and  P_10
REMARK    7  A    between atoms: P_10  and  C_12
REMARK    8  A    between atoms: P_10  and  O_27
REMARK    9  A    between atoms: C_12  and  O_13
REMARK   10  A    between atoms: O_13  and  C_14
REMARK   11  A    between atoms: C_14  and  C_16
REMARK   12  A    between atoms: C_16  and  N_17
REMARK   13  A    between atoms: O_27  and  C_28
REMARK   14  A    between atoms: C_28  and  O_29
REMARK   15  A    between atoms: O_29  and  C_30
REMARK   16  A    between atoms: C_30  and  O_32
REMARK   17  A    between atoms: O_32  and  C_33
REMARK                            x       y       z     vdW  Elec       q    Type
REMARK                         _______ _______ _______ _____ _____    ______ ____
ROOT
ATOM      1  P   UNL     1       2.353   4.559  -7.388  0.00  0.00    +0.378 P 
ATOM      2  O   UNL     1       2.237   3.432  -6.403  0.00  0.00    -0.255 OA
ENDROOT
BRANCH   1   3
ATOM      3  O   UNL     1       2.799   4.048  -8.928  0.00  0.00    -0.250 OA
BRANCH   3   4
ATOM      4  C   UNL     1       3.839   4.787  -9.453  0.00  0.00    +0.372 C 
BRANCH   4   5
ATOM      5  O   UNL     1       3.392   5.918 -10.197  0.00  0.00    -0.387 OA
BRANCH   5   6
ATOM      6  C   UNL     1       3.038   5.838 -11.539  0.00  0.00    +0.514 C 
ATOM      7  O   UNL     1       3.980   5.552 -12.336  0.00  0.00    -0.203 OA
BRANCH   6   8
ATOM      8  O   UNL     1       1.770   6.174 -12.010  0.00  0.00    -0.422 OA
BRANCH   8   9
ATOM      9  C   UNL     1       0.675   6.026 -11.137  0.00  0.00    +0.173 C 
ATOM     10  C   UNL     1       0.115   4.626 -11.126  0.00  0.00    +0.047 C 
ATOM     11  C   UNL     1      -0.368   7.087 -11.301  0.00  0.00    +0.047 C 
ENDBRANCH   8   9
ENDBRANCH   6   8
ENDBRANCH   5   6
ENDBRANCH   4   5
ENDBRANCH   3   4
ENDBRANCH   1   3
BRANCH   1  12
ATOM     12  O   UNL     1       0.892   5.416  -7.457  0.00  0.00    -0.250 OA
BRANCH  12  13
ATOM     13  C   UNL     1       0.202   5.192  -6.279  0.00  0.00    +0.372 C 
BRANCH  13  14
ATOM     14  O   UNL     1      -0.444   6.420  -5.951  0.00  0.00    -0.387 OA
BRANCH  14  15
ATOM     15  C   UNL     1      -1.798   6.345  -5.630  0.00  0.00    +0.514 C 
ATOM     16  O   UNL     1      -2.580   5.709  -6.363  0.00  0.00    -0.203 OA
BRANCH  15  17
ATOM     17  O   UNL     1      -2.341   7.061  -4.581  0.00  0.00    -0.422 OA
BRANCH  17  19
ATOM     18  C   UNL     1      -2.251   7.422  -2.702  0.00  0.00    +0.047 C 
ATOM     19  C   UNL     1      -2.079   6.731  -3.231  0.00  0.00    +0.173 C 
ATOM     20  C   UNL     1      -2.888   5.490  -2.875  0.00  0.00    +0.047 C 
ENDBRANCH  17  19
ENDBRANCH  15  17
ENDBRANCH  14  15
ENDBRANCH  13  14
ENDBRANCH  12  13
ENDBRANCH   1  12
BRANCH   1  21
ATOM     21  C   UNL     1       3.615   5.711  -6.813  0.00  0.00    +0.258 C 
BRANCH  21  22
ATOM     22  O   UNL     1       4.137   5.295  -5.576  0.00  0.00    -0.343 OA
BRANCH  22  23
ATOM     23  C   UNL     1       3.523   6.409  -4.706  0.00  0.00    +0.139 C 
ATOM     24  C   UNL     1       5.002   7.173  -4.516  0.00  0.00    +0.034 C 
BRANCH  23  25
ATOM     25  C   UNL     1       3.700   5.492  -3.322  0.00  0.00    +0.138 C 
BRANCH  25  26
ATOM     26  N   UNL     1       2.614   5.779  -2.469  0.00  0.00    -0.292 N 
ATOM     27  C   UNL     1       2.751   6.721  -1.501  0.00  0.00    +0.167 A 
ATOM     28  N   UNL     1       3.542   7.813  -1.352  0.00  0.00    -0.205 NA
ATOM     29  C   UNL     1       3.302   8.748  -0.402  0.00  0.00    +0.202 A 
ATOM     30  N   UNL     1       2.387   8.531   0.553  0.00  0.00    -0.204 NA
ATOM     31  C   UNL     1       1.551   7.474   0.427  0.00  0.00    +0.192 A 
ATOM     32  N   UNL     1       0.706   7.075   1.492  0.00  0.00    -0.105 NA
ATOM     33  C   UNL     1       1.594   6.722  -0.732  0.00  0.00    +0.152 A 
ATOM     34  N   UNL     1       0.840   5.722  -1.213  0.00  0.00    -0.219 NA
ATOM     35  C   UNL     1       1.299   5.513  -2.464  0.00  0.00    +0.180 A 
ENDBRANCH  25  26
ENDBRANCH  23  25
ENDBRANCH  22  23
ENDBRANCH  21  22
ENDBRANCH   1  21
TORSDOF 17
ENDMDL
MODEL 9
REMARK VINA RESULT:      -6.9      1.675      5.638
REMARK  Name = 
REMARK  17 active torsions:
REMARK  status: ('A' for Active; 'I' for Inactive)
REMARK    1  A    between atoms: C_2  and  O_4
REMARK    2  A    between atoms: O_4  and  C_5
REMARK    3  A    between atoms: C_5  and  O_7
REMARK    4  A    between atoms: O_7  and  C_8
REMARK    5  A    between atoms: C_8  and  O_9
REMARK    6  A    between atoms: O_9  and  P_10
REMARK    7  A    between atoms: P_10  and  C_12
REMARK    8  A    between atoms: P_10  and  O_27
REMARK    9  A    between atoms: C_12  and  O_13
REMARK   10  A    between atoms: O_13  and  C_14
REMARK   11  A    between atoms: C_14  and  C_16
REMARK   12  A    between atoms: C_16  and  N_17
REMARK   13  A    between atoms: O_27  and  C_28
REMARK   14  A    between atoms: C_28  and  O_29
REMARK   15  A    between atoms: O_29  and  C_30
REMARK   16  A    between atoms: C_30  and  O_32
REMARK   17  A    between atoms: O_32  and  C_33
REMARK                            x       y       z     vdW  Elec       q    Type
REMARK                         _______ _______ _______ _____ _____    ______ ____
ROOT
ATOM      1  P   UNL     1       2.855   5.104  -9.135  0.00  0.00    +0.378 P 
ATOM      2  O   UNL     1       2.960   3.661  -8.734  0.00  0.00    -0.255 OA
ENDROOT
BRANCH   1   3
ATOM      3  O   UNL     1       3.875   6.110  -8.253  0.00  0.00    -0.250 OA
BRANCH   3   4
ATOM      4  C   UNL     1       4.529   5.445  -7.236  0.00  0.00    +0.372 C 
BRANCH   4   5
ATOM      5  O   UNL     1       4.208   5.958  -5.945  0.00  0.00    -0.387 OA
BRANCH   5   6
ATOM      6  C   UNL     1       4.508   5.274  -4.772  0.00  0.00    +0.514 C 
ATOM      7  O   UNL     1       3.756   4.289  -4.506  0.00  0.00    -0.203 OA
BRANCH   6   8
ATOM      8  O   UNL     1       5.481   5.703  -3.872  0.00  0.00    -0.422 OA
BRANCH   8   9
ATOM      9  C   UNL     1       5.223   6.861  -3.114  0.00  0.00    +0.173 C 
ATOM     10  C   UNL     1       4.348   6.597  -1.915  0.00  0.00    +0.047 C 
ATOM     11  C   UNL     1       4.774   8.027  -3.938  0.00  0.00    +0.047 C 
ENDBRANCH   8   9
ENDBRANCH   6   8
ENDBRANCH   5   6
ENDBRANCH   4   5
ENDBRANCH   3   4
ENDBRANCH   1   3
BRANCH   1  12
ATOM     12  O   UNL     1       3.168   5.265 -10.794  0.00  0.00    -0.250 OA
BRANCH  12  13
ATOM     13  C   UNL     1       4.190   6.181 -10.955  0.00  0.00    +0.372 C 
BRANCH  13  14
ATOM     14  O   UNL     1       4.433   6.271 -12.357  0.00  0.00    -0.387 OA
BRANCH  14  15
ATOM     15  C   UNL     1       5.637   5.741 -12.817  0.00  0.00    +0.514 C 
ATOM     16  O   UNL     1       5.643   4.692 -13.489  0.00  0.00    -0.203 OA
BRANCH  15  17
ATOM     17  O   UNL     1       6.858   6.273 -12.448  0.00  0.00    -0.422 OA
BRANCH  17  19
ATOM     18  C   UNL     1       8.668   5.710 -12.176  0.00  0.00    +0.047 C 
ATOM     19  C   UNL     1       7.872   5.486 -11.855  0.00  0.00    +0.173 C 
ATOM     20  C   UNL     1       7.774   5.637 -10.342  0.00  0.00    +0.047 C 
ENDBRANCH  17  19
ENDBRANCH  15  17
ENDBRANCH  14  15
ENDBRANCH  13  14
ENDBRANCH  12  13
ENDBRANCH   1  12
BRANCH   1  21
ATOM     21  C   UNL     1       1.165   5.667  -8.858  0.00  0.00    +0.258 C 
BRANCH  21  22
ATOM     22  O   UNL     1       1.124   6.617  -7.823  0.00  0.00    -0.343 OA
BRANCH  22  23
ATOM     23  C   UNL     1       0.721   5.663  -6.681  0.00  0.00    +0.139 C 
ATOM     24  C   UNL     1      -0.772   5.351  -7.375  0.00  0.00    +0.034 C 
BRANCH  23  25
ATOM     25  C   UNL     1       0.146   6.932  -5.760  0.00  0.00    +0.138 C 
BRANCH  25  26
ATOM     26  N   UNL     1       0.207   6.547  -4.405  0.00  0.00    -0.292 N 
ATOM     27  C   UNL     1      -0.926   6.158  -3.766  0.00  0.00    +0.167 A 
ATOM     28  N   UNL     1      -2.103   5.622  -4.174  0.00  0.00    -0.205 NA
ATOM     29  C   UNL     1      -2.984   5.078  -3.300  0.00  0.00    +0.202 A 
ATOM     30  N   UNL     1      -2.812   5.222  -1.979  0.00  0.00    -0.204 NA
ATOM     31  C   UNL     1      -1.638   5.718  -1.524  0.00  0.00    +0.192 A 
ATOM     32  N   UNL     1      -1.473   6.084  -0.165  0.00  0.00    -0.105 NA
ATOM     33  C   UNL     1      -0.617   5.954  -2.426  0.00  0.00    +0.152 A 
ATOM     34  N   UNL     1       0.669   6.310  -2.293  0.00  0.00    -0.219 NA
ATOM     35  C   UNL     1       1.180   6.229  -3.538  0.00  0.00    +0.180 A 
ENDBRANCH  25  26
ENDBRANCH  23  25
ENDBRANCH  22  23
ENDBRANCH  21  22
ENDBRANCH   1  21
TORSDOF 17
ENDMDL
