MODEL 1
REMARK VINA RESULT:       0.3      0.000      0.000
REMARK  Name = 
REMARK  10 active torsions:
REMARK  status: ('A' for Active; 'I' for Inactive)
REMARK    1  A    between atoms: C_2  and  C_3
REMARK    2  A    between atoms: C_13  and  C_14
REMARK    3  A    between atoms: C_14  and  C_15
REMARK    4  A    between atoms: C_15  and  O_17
REMARK    5  A    between atoms: C_24  and  C_26
REMARK    6  A    between atoms: C_40  and  O_41
REMARK    7  A    between atoms: C_48  and  C_50
REMARK    8  A    between atoms: C_50  and  O_52
REMARK    9  A    between atoms: C_54  and  O_55
REMARK   10  A    between atoms: O_55  and  C_56
REMARK                            x       y       z     vdW  Elec       q    Type
REMARK                         _______ _______ _______ _____ _____    ______ ____
ROOT
ATOM      1  C   UNL     1       3.062   5.797  -2.852  0.00  0.00    +0.072 C 
ATOM      2  C   UNL     1       3.416   5.062  -4.251  0.00  0.00    +0.070 C 
ATOM      3  N   UNL     1       4.945   5.394  -4.185  0.00  0.00    -0.269 NA
ATOM      4  C   UNL     1       5.219   6.133  -5.342  0.00  0.00    +0.073 C 
ATOM      5  C   UNL     1       4.155   7.218  -5.166  0.00  0.00    +0.024 C 
ATOM      6  C   UNL     1       5.397   5.805  -2.958  0.00  0.00    +0.099 C 
ATOM      7  C   UNL     1       4.842   7.143  -2.543  0.00  0.00    -0.013 C 
ATOM      8  C   UNL     1       3.018   6.301  -5.227  0.00  0.00    +0.055 C 
ATOM      9  C   UNL     1       1.689   6.954  -4.572  0.00  0.00    +0.120 C 
ATOM     10  C   UNL     1       0.971   5.591  -4.070  0.00  0.00    +0.268 C 
ATOM     11  O   UNL     1      -0.300   6.144  -3.764  0.00  0.00    -0.209 OA
ATOM     12  N   UNL     1       0.840   7.002  -5.898  0.00  0.00    -0.304 N 
ATOM     13  C   UNL     1      -0.477   7.602  -5.802  0.00  0.00    +0.112 C 
ATOM     14  C   UNL     1       1.400   6.137  -6.808  0.00  0.00    +0.047 A 
ATOM     15  C   UNL     1       0.888   5.693  -8.024  0.00  0.00    +0.051 A 
ATOM     16  C   UNL     1       1.779   5.285  -9.005  0.00  0.00    +0.137 A 
ATOM     17  C   UNL     1       3.092   5.740  -8.951  0.00  0.00    +0.026 A 
ATOM     18  C   UNL     1       3.554   5.975  -7.682  0.00  0.00    -0.003 A 
ATOM     19  C   UNL     1       2.739   5.899  -6.542  0.00  0.00    -0.007 A 
ATOM     20  C   UNL     1       1.519   5.419  -2.543  0.00  0.00    +0.213 C 
ATOM     21  C   UNL     1       3.500   7.062  -2.639  0.00  0.00    -0.025 C 
ENDROOT
BRANCH  17  22
ATOM     22  C   UNL     1       3.627   6.403 -10.181  0.00  0.00    +0.146 C 
ATOM     23  C   UNL     1       2.642   6.415 -11.282  0.00  0.00    +0.068 A 
ATOM     24  C   UNL     1       3.016   5.941 -12.534  0.00  0.00    -0.005 A 
ATOM     25  C   UNL     1       1.960   6.265 -13.375  0.00  0.00    +0.015 A 
ATOM     26  C   UNL     1       1.091   7.118 -12.710  0.00  0.00    +0.081 A 
ATOM     27  C   UNL     1      -0.207   7.261 -13.186  0.00  0.00    +0.019 A 
ATOM     28  C   UNL     1      -0.413   7.089 -14.550  0.00  0.00    +0.002 A 
ATOM     29  C   UNL     1       0.627   6.663 -15.351  0.00  0.00    +0.000 A 
ATOM     30  C   UNL     1       1.728   6.086 -14.732  0.00  0.00    +0.001 A 
ATOM     31  C   UNL     1       3.806   4.670 -12.527  0.00  0.00    +0.045 C 
ATOM     32  C   UNL     1       5.010   4.764 -13.460  0.00  0.00    +0.077 C 
ATOM     33  N   UNL     1       6.033   5.393 -12.769  0.00  0.00    -0.270 NA
ATOM     34  C   UNL     1       7.355   4.918 -12.797  0.00  0.00    +0.103 C 
ATOM     35  C   UNL     1       8.079   5.832 -11.806  0.00  0.00    +0.141 C 
ATOM     36  C   UNL     1       7.233   5.963 -10.614  0.00  0.00    +0.033 C 
ATOM     37  C   UNL     1       5.989   6.975 -10.877  0.00  0.00    +0.020 C 
ATOM     38  O   UNL     1       8.517   7.000 -12.384  0.00  0.00    -0.224 OA
ATOM     39  C   UNL     1       5.971   6.770 -12.496  0.00  0.00    +0.072 C 
ATOM     40  N   UNL     1       1.640   7.306 -11.496  0.00  0.00    -0.249 NA
ATOM     41  C   UNL     1       4.898   5.784 -10.629  0.00  0.00    +0.022 C 
BRANCH  35  42
ATOM     42  C   UNL     1       9.295   5.058 -11.351  0.00  0.00    +0.032 C 
ATOM     43  C   UNL     1      10.582   5.728 -11.742  0.00  0.00    +0.003 C 
ENDBRANCH  35  42
BRANCH  22  44
ATOM     44  C   UNL     1       3.914   7.817  -9.778  0.00  0.00    +0.325 C 
ATOM     45  O   UNL     1       4.363   8.680 -10.557  0.00  0.00    -0.249 OA
BRANCH  44  46
ATOM     46  O   UNL     1       3.460   8.259  -8.539  0.00  0.00    -0.444 OA
ATOM     47  C   UNL     1       2.223   8.913  -8.376  0.00  0.00    +0.256 C 
ENDBRANCH  44  46
ENDBRANCH  22  44
ENDBRANCH  17  22
BRANCH  16  48
ATOM     48  O   UNL     1       1.497   4.423 -10.034  0.00  0.00    -0.472 OA
ATOM     49  C   UNL     1       0.146   4.275 -10.465  0.00  0.00    +0.252 C 
ENDBRANCH  16  48
BRANCH  10  50
ATOM     50  C   UNL     1       0.797   4.492  -4.817  0.00  0.00    +0.350 C 
ATOM     51  O   UNL     1      -0.408   4.186  -5.161  0.00  0.00    -0.247 OA
BRANCH  50  52
ATOM     52  O   UNL     1       1.473   3.339  -5.235  0.00  0.00    -0.443 OA
ATOM     53  C   UNL     1       1.925   3.078  -6.527  0.00  0.00    +0.256 C 
ENDBRANCH  50  52
ENDBRANCH  10  50
BRANCH   1  55
ATOM     54  C   UNL     1       2.930   4.291  -1.213  0.00  0.00    +0.001 C 
ATOM     55  C   UNL     1       3.732   4.824  -1.880  0.00  0.00    +0.009 C 
ENDBRANCH   1  55
BRANCH  20  56
ATOM     56  O   UNL     1       1.171   6.876  -2.139  0.00  0.00    -0.449 OA
BRANCH  56  57
ATOM     57  C   UNL     1       0.697   7.008  -0.842  0.00  0.00    +0.318 C 
ATOM     58  O   UNL     1       1.451   7.559   0.012  0.00  0.00    -0.250 OA
ATOM     59  C   UNL     1      -0.597   6.438  -0.379  0.00  0.00    +0.121 C 
ENDBRANCH  56  57
ENDBRANCH  20  56
TORSDOF 10
ENDMDL
MODEL 2
REMARK VINA RESULT:       0.9      5.073     10.416
REMARK  Name = 
REMARK  10 active torsions:
REMARK  status: ('A' for Active; 'I' for Inactive)
REMARK    1  A    between atoms: C_2  and  C_3
REMARK    2  A    between atoms: C_13  and  C_14
REMARK    3  A    between atoms: C_14  and  C_15
REMARK    4  A    between atoms: C_15  and  O_17
REMARK    5  A    between atoms: C_24  and  C_26
REMARK    6  A    between atoms: C_40  and  O_41
REMARK    7  A    between atoms: C_48  and  C_50
REMARK    8  A    between atoms: C_50  and  O_52
REMARK    9  A    between atoms: C_54  and  O_55
REMARK   10  A    between atoms: O_55  and  C_56
REMARK                            x       y       z     vdW  Elec       q    Type
REMARK                         _______ _______ _______ _____ _____    ______ ____
ROOT
ATOM      1  C   UNL     1       4.961  13.592   0.547  0.00  0.00    +0.072 C 
ATOM      2  C   UNL     1       5.452  12.144   0.014  0.00  0.00    +0.070 C 
ATOM      3  N   UNL     1       5.327  12.519  -1.502  0.00  0.00    -0.269 NA
ATOM      4  C   UNL     1       4.419  11.601  -2.043  0.00  0.00    +0.073 C 
ATOM      5  C   UNL     1       3.266  11.830  -1.064  0.00  0.00    +0.024 C 
ATOM      6  C   UNL     1       5.217  13.861  -1.761  0.00  0.00    +0.099 C 
ATOM      7  C   UNL     1       3.926  14.454  -1.259  0.00  0.00    -0.013 C 
ATOM      8  C   UNL     1       4.009  11.398   0.120  0.00  0.00    +0.055 C 
ATOM      9  C   UNL     1       3.336  11.958   1.482  0.00  0.00    +0.120 C 
ATOM     10  C   UNL     1       4.673  12.042   2.395  0.00  0.00    +0.268 C 
ATOM     11  O   UNL     1       4.038  12.252   3.647  0.00  0.00    -0.209 OA
ATOM     12  N   UNL     1       2.933  10.554   2.071  0.00  0.00    -0.304 N 
ATOM     13  C   UNL     1       2.206  10.563   3.327  0.00  0.00    +0.112 C 
ATOM     14  C   UNL     1       3.669   9.583   1.435  0.00  0.00    +0.047 A 
ATOM     15  C   UNL     1       3.805   8.235   1.756  0.00  0.00    +0.051 A 
ATOM     16  C   UNL     1       4.124   7.345   0.743  0.00  0.00    +0.137 A 
ATOM     17  C   UNL     1       3.851   7.700  -0.573  0.00  0.00    +0.026 A 
ATOM     18  C   UNL     1       3.922   9.047  -0.818  0.00  0.00    -0.003 A 
ATOM     19  C   UNL     1       4.115  10.002   0.191  0.00  0.00    -0.007 A 
ATOM     20  C   UNL     1       5.199  13.567   2.147  0.00  0.00    +0.213 C 
ATOM     21  C   UNL     1       3.822  14.132   0.046  0.00  0.00    -0.025 C 
ENDROOT
BRANCH  17  22
ATOM     22  C   UNL     1       3.035   6.737  -1.377  0.00  0.00    +0.146 C 
ATOM     23  C   UNL     1       3.488   6.656  -2.781  0.00  0.00    +0.068 A 
ATOM     24  C   UNL     1       2.561   6.816  -3.804  0.00  0.00    -0.005 A 
ATOM     25  C   UNL     1       3.246   6.494  -4.968  0.00  0.00    +0.015 A 
ATOM     26  C   UNL     1       4.468   5.927  -4.637  0.00  0.00    +0.081 A 
ATOM     27  C   UNL     1       5.475   5.889  -5.595  0.00  0.00    +0.019 A 
ATOM     28  C   UNL     1       5.087   5.820  -6.929  0.00  0.00    +0.002 A 
ATOM     29  C   UNL     1       3.751   5.920  -7.260  0.00  0.00    +0.000 A 
ATOM     30  C   UNL     1       2.885   6.437  -6.307  0.00  0.00    +0.001 A 
ATOM     31  C   UNL     1       1.581   7.931  -3.613  0.00  0.00    +0.045 C 
ATOM     32  C   UNL     1       0.160   7.478  -3.934  0.00  0.00    +0.077 C 
ATOM     33  N   UNL     1      -0.349   6.850  -2.807  0.00  0.00    -0.270 NA
ATOM     34  C   UNL     1      -1.645   7.108  -2.331  0.00  0.00    +0.103 C 
ATOM     35  C   UNL     1      -1.706   6.309  -1.028  0.00  0.00    +0.141 C 
ATOM     36  C   UNL     1      -0.455   6.541  -0.297  0.00  0.00    +0.033 C 
ATOM     37  C   UNL     1       0.774   5.694  -0.940  0.00  0.00    +0.020 C 
ATOM     38  O   UNL     1      -2.072   4.998  -1.226  0.00  0.00    -0.224 OA
ATOM     39  C   UNL     1       0.112   5.579  -2.427  0.00  0.00    +0.072 C 
ATOM     40  N   UNL     1       4.493   5.901  -3.292  0.00  0.00    -0.249 NA
ATOM     41  C   UNL     1       1.588   7.060  -1.316  0.00  0.00    +0.022 C 
BRANCH  35  42
ATOM     42  C   UNL     1      -2.784   6.966  -0.196  0.00  0.00    +0.032 C 
ATOM     43  C   UNL     1      -2.230   7.671   1.010  0.00  0.00    +0.003 C 
ENDBRANCH  35  42
BRANCH  22  44
ATOM     44  C   UNL     1       3.242   5.402  -0.728  0.00  0.00    +0.325 C 
ATOM     45  O   UNL     1       2.414   4.868   0.034  0.00  0.00    -0.249 OA
BRANCH  44  46
ATOM     46  O   UNL     1       4.306   4.614  -1.158  0.00  0.00    -0.444 OA
ATOM     47  C   UNL     1       4.408   3.245  -0.844  0.00  0.00    +0.256 C 
ENDBRANCH  44  46
ENDBRANCH  22  44
ENDBRANCH  17  22
BRANCH  16  48
ATOM     48  O   UNL     1       4.732   6.126   0.910  0.00  0.00    -0.472 OA
ATOM     49  C   UNL     1       5.890   6.037   1.735  0.00  0.00    +0.252 C 
ENDBRANCH  16  48
BRANCH  10  50
ATOM     50  C   UNL     1       5.578  11.064   2.527  0.00  0.00    +0.350 C 
ATOM     51  O   UNL     1       5.506  10.319   3.578  0.00  0.00    -0.247 OA
BRANCH  50  52
ATOM     52  O   UNL     1       6.805  10.634   2.004  0.00  0.00    -0.443 OA
ATOM     53  C   UNL     1       8.065  10.996   2.471  0.00  0.00    +0.256 C 
ENDBRANCH  50  52
ENDBRANCH  10  50
BRANCH   1  55
ATOM     54  C   UNL     1       6.980  14.421   1.002  0.00  0.00    +0.001 C 
ATOM     55  C   UNL     1       6.176  14.432   0.151  0.00  0.00    +0.009 C 
ENDBRANCH   1  55
BRANCH  20  56
ATOM     56  O   UNL     1       3.816  14.207   2.434  0.00  0.00    -0.449 OA
BRANCH  56  57
ATOM     57  C   UNL     1       3.877  15.404   3.130  0.00  0.00    +0.318 C 
ATOM     58  O   UNL     1       4.998  15.758   3.602  0.00  0.00    -0.250 OA
ATOM     59  C   UNL     1       2.683  16.234   3.447  0.00  0.00    +0.121 C 
ENDBRANCH  56  57
ENDBRANCH  20  56
TORSDOF 10
ENDMDL
MODEL 3
REMARK VINA RESULT:       1.3      2.367      6.120
REMARK  Name = 
REMARK  10 active torsions:
REMARK  status: ('A' for Active; 'I' for Inactive)
REMARK    1  A    between atoms: C_2  and  C_3
REMARK    2  A    between atoms: C_13  and  C_14
REMARK    3  A    between atoms: C_14  and  C_15
REMARK    4  A    between atoms: C_15  and  O_17
REMARK    5  A    between atoms: C_24  and  C_26
REMARK    6  A    between atoms: C_40  and  O_41
REMARK    7  A    between atoms: C_48  and  C_50
REMARK    8  A    between atoms: C_50  and  O_52
REMARK    9  A    between atoms: C_54  and  O_55
REMARK   10  A    between atoms: O_55  and  C_56
REMARK                            x       y       z     vdW  Elec       q    Type
REMARK                         _______ _______ _______ _____ _____    ______ ____
ROOT
ATOM      1  C   UNL     1      -0.921   7.283  -1.284  0.00  0.00    +0.072 C 
ATOM      2  C   UNL     1      -0.058   7.826  -2.542  0.00  0.00    +0.070 C 
ATOM      3  N   UNL     1      -1.305   8.044  -3.465  0.00  0.00    -0.269 NA
ATOM      4  C   UNL     1      -1.084   7.243  -4.591  0.00  0.00    +0.073 C 
ATOM      5  C   UNL     1      -0.843   5.914  -3.871  0.00  0.00    +0.024 C 
ATOM      6  C   UNL     1      -2.513   8.040  -2.819  0.00  0.00    +0.099 C 
ATOM      7  C   UNL     1      -2.871   6.693  -2.247  0.00  0.00    -0.013 C 
ATOM      8  C   UNL     1       0.343   6.369  -3.146  0.00  0.00    +0.055 C 
ATOM      9  C   UNL     1       0.646   5.439  -1.856  0.00  0.00    +0.120 C 
ATOM     10  C   UNL     1       1.366   6.549  -0.920  0.00  0.00    +0.268 C 
ATOM     11  O   UNL     1       1.875   5.667   0.069  0.00  0.00    -0.209 OA
ATOM     12  N   UNL     1       2.023   4.868  -2.366  0.00  0.00    -0.304 N 
ATOM     13  C   UNL     1       2.673   3.889  -1.516  0.00  0.00    +0.112 C 
ATOM     14  C   UNL     1       2.495   5.690  -3.362  0.00  0.00    +0.047 A 
ATOM     15  C   UNL     1       3.752   5.706  -3.961  0.00  0.00    +0.051 A 
ATOM     16  C   UNL     1       3.862   6.204  -5.250  0.00  0.00    +0.137 A 
ATOM     17  C   UNL     1       2.730   6.234  -6.056  0.00  0.00    +0.026 A 
ATOM     18  C   UNL     1       1.555   6.403  -5.370  0.00  0.00    -0.003 A 
ATOM     19  C   UNL     1       1.477   6.407  -3.969  0.00  0.00    -0.007 A 
ATOM     20  C   UNL     1       0.127   7.170  -0.057  0.00  0.00    +0.213 C 
ATOM     21  C   UNL     1      -1.833   6.299  -1.481  0.00  0.00    -0.025 C 
ENDROOT
BRANCH  17  22
ATOM     22  C   UNL     1       2.838   5.577  -7.396  0.00  0.00    +0.146 C 
ATOM     23  C   UNL     1       4.208   5.654  -7.947  0.00  0.00    +0.068 A 
ATOM     24  C   UNL     1       4.395   6.142  -9.234  0.00  0.00    -0.005 A 
ATOM     25  C   UNL     1       5.733   5.904  -9.520  0.00  0.00    +0.015 A 
ATOM     26  C   UNL     1       6.272   5.084  -8.539  0.00  0.00    +0.081 A 
ATOM     27  C   UNL     1       7.653   5.031  -8.390  0.00  0.00    +0.019 A 
ATOM     28  C   UNL     1       8.429   5.254  -9.521  0.00  0.00    +0.002 A 
ATOM     29  C   UNL     1       7.825   5.641 -10.701  0.00  0.00    +0.000 A 
ATOM     30  C   UNL     1       6.530   6.135 -10.633  0.00  0.00    +0.001 A 
ATOM     31  C   UNL     1       3.604   7.363  -9.579  0.00  0.00    +0.045 C 
ATOM     32  C   UNL     1       2.946   7.227 -10.949  0.00  0.00    +0.077 C 
ATOM     33  N   UNL     1       1.765   6.519 -10.783  0.00  0.00    -0.270 NA
ATOM     34  C   UNL     1       0.565   6.917 -11.394  0.00  0.00    +0.103 C 
ATOM     35  C   UNL     1      -0.462   5.935 -10.827  0.00  0.00    +0.141 C 
ATOM     36  C   UNL     1      -0.224   5.819  -9.383  0.00  0.00    +0.033 C 
ATOM     37  C   UNL     1       1.070   4.889  -9.068  0.00  0.00    +0.020 C 
ATOM     38  O   UNL     1      -0.523   4.760 -11.539  0.00  0.00    -0.224 OA
ATOM     39  C   UNL     1       1.789   5.141 -10.511  0.00  0.00    +0.072 C 
ATOM     40  N   UNL     1       5.256   4.830  -7.694  0.00  0.00    -0.249 NA
ATOM     41  C   UNL     1       1.859   6.134  -8.362  0.00  0.00    +0.022 C 
BRANCH  35  42
ATOM     42  C   UNL     1      -1.802   6.623 -10.958  0.00  0.00    +0.032 C 
ATOM     43  C   UNL     1      -1.693   7.968 -11.621  0.00  0.00    +0.003 C 
ENDBRANCH  35  42
BRANCH  22  44
ATOM     44  C   UNL     1       2.495   4.137  -7.163  0.00  0.00    +0.325 C 
ATOM     45  O   UNL     1       3.016   3.193  -7.787  0.00  0.00    -0.249 OA
BRANCH  44  46
ATOM     46  O   UNL     1       1.722   3.811  -6.053  0.00  0.00    -0.444 OA
ATOM     47  C   UNL     1       0.314   3.840  -6.077  0.00  0.00    +0.256 C 
ENDBRANCH  44  46
ENDBRANCH  22  44
ENDBRANCH  17  22
BRANCH  16  48
ATOM     48  O   UNL     1       5.001   6.718  -5.815  0.00  0.00    -0.472 OA
ATOM     49  C   UNL     1       6.004   7.276  -4.970  0.00  0.00    +0.252 C 
ENDBRANCH  16  48
BRANCH  10  50
ATOM     50  C   UNL     1       2.348   7.370  -1.316  0.00  0.00    +0.350 C 
ATOM     51  O   UNL     1       3.560   7.038  -1.023  0.00  0.00    -0.247 OA
BRANCH  50  52
ATOM     52  O   UNL     1       2.557   8.668  -1.797  0.00  0.00    -0.443 OA
ATOM     53  C   UNL     1       3.605   9.514  -1.442  0.00  0.00    +0.256 C 
ENDBRANCH  50  52
ENDBRANCH  10  50
BRANCH   1  55
ATOM     54  C   UNL     1      -1.368   8.844   0.243  0.00  0.00    +0.001 C 
ATOM     55  C   UNL     1      -1.612   8.583  -0.872  0.00  0.00    +0.009 C 
ENDBRANCH   1  55
BRANCH  20  56
ATOM     56  O   UNL     1      -0.415   5.781   0.370  0.00  0.00    -0.449 OA
BRANCH  56  57
ATOM     57  C   UNL     1      -1.198   5.804   1.514  0.00  0.00    +0.318 C 
ATOM     58  O   UNL     1      -2.434   5.557   1.391  0.00  0.00    -0.250 OA
ATOM     59  C   UNL     1      -0.688   6.210   2.851  0.00  0.00    +0.121 C 
ENDBRANCH  56  57
ENDBRANCH  20  56
TORSDOF 10
ENDMDL
MODEL 4
REMARK VINA RESULT:       1.9      6.464     12.179
REMARK  Name = 
REMARK  10 active torsions:
REMARK  status: ('A' for Active; 'I' for Inactive)
REMARK    1  A    between atoms: C_2  and  C_3
REMARK    2  A    between atoms: C_13  and  C_14
REMARK    3  A    between atoms: C_14  and  C_15
REMARK    4  A    between atoms: C_15  and  O_17
REMARK    5  A    between atoms: C_24  and  C_26
REMARK    6  A    between atoms: C_40  and  O_41
REMARK    7  A    between atoms: C_48  and  C_50
REMARK    8  A    between atoms: C_50  and  O_52
REMARK    9  A    between atoms: C_54  and  O_55
REMARK   10  A    between atoms: O_55  and  C_56
REMARK                            x       y       z     vdW  Elec       q    Type
REMARK                         _______ _______ _______ _____ _____    ______ ____
ROOT
ATOM      1  C   UNL     1       5.782  15.353  -0.208  0.00  0.00    +0.072 C 
ATOM      2  C   UNL     1       6.271  13.814  -0.313  0.00  0.00    +0.070 C 
ATOM      3  N   UNL     1       5.932  13.677  -1.837  0.00  0.00    -0.269 NA
ATOM      4  C   UNL     1       5.009  12.629  -1.924  0.00  0.00    +0.073 C 
ATOM      5  C   UNL     1       3.983  13.156  -0.920  0.00  0.00    +0.024 C 
ATOM      6  C   UNL     1       5.723  14.862  -2.493  0.00  0.00    +0.099 C 
ATOM      7  C   UNL     1       4.480  15.579  -2.034  0.00  0.00    -0.013 C 
ATOM      8  C   UNL     1       4.893  13.135   0.225  0.00  0.00    +0.055 C 
ATOM      9  C   UNL     1       4.376  14.102   1.416  0.00  0.00    +0.120 C 
ATOM     10  C   UNL     1       5.813  14.484   2.059  0.00  0.00    +0.268 C 
ATOM     11  O   UNL     1       5.336  15.085   3.254  0.00  0.00    -0.209 OA
ATOM     12  N   UNL     1       4.122  12.962   2.474  0.00  0.00    -0.304 N 
ATOM     13  C   UNL     1       3.565  13.374   3.748  0.00  0.00    +0.112 C 
ATOM     14  C   UNL     1       4.817  11.842   2.085  0.00  0.00    +0.047 A 
ATOM     15  C   UNL     1       5.061  10.671   2.799  0.00  0.00    +0.051 A 
ATOM     16  C   UNL     1       5.289   9.502   2.090  0.00  0.00    +0.137 A 
ATOM     17  C   UNL     1       4.831   9.411   0.780  0.00  0.00    +0.026 A 
ATOM     18  C   UNL     1       4.802  10.606   0.110  0.00  0.00    -0.003 A 
ATOM     19  C   UNL     1       5.076  11.838   0.724  0.00  0.00    -0.007 A 
ATOM     20  C   UNL     1       6.227  15.849   1.266  0.00  0.00    +0.213 C 
ATOM     21  C   UNL     1       4.563  15.697  -0.693  0.00  0.00    -0.025 C 
ENDROOT
BRANCH  17  22
ATOM     22  C   UNL     1       3.967   8.235   0.449  0.00  0.00    +0.146 C 
ATOM     23  C   UNL     1       3.966   7.932  -0.998  0.00  0.00    +0.068 A 
ATOM     24  C   UNL     1       2.754   7.799  -1.663  0.00  0.00    -0.005 A 
ATOM     25  C   UNL     1       3.084   7.330  -2.928  0.00  0.00    +0.015 A 
ATOM     26  C   UNL     1       4.421   6.961  -2.944  0.00  0.00    +0.081 A 
ATOM     27  C   UNL     1       5.072   6.840  -4.166  0.00  0.00    +0.019 A 
ATOM     28  C   UNL     1       4.305   6.478  -5.267  0.00  0.00    +0.002 A 
ATOM     29  C   UNL     1       2.933   6.380  -5.145  0.00  0.00    +0.000 A 
ATOM     30  C   UNL     1       2.337   6.981  -4.045  0.00  0.00    +0.001 A 
ATOM     31  C   UNL     1       1.721   8.827  -1.325  0.00  0.00    +0.045 C 
ATOM     32  C   UNL     1       0.360   8.183  -1.081  0.00  0.00    +0.077 C 
ATOM     33  N   UNL     1       0.331   7.736   0.231  0.00  0.00    -0.270 NA
ATOM     34  C   UNL     1      -0.776   7.950   1.069  0.00  0.00    +0.103 C 
ATOM     35  C   UNL     1      -0.302   7.413   2.421  0.00  0.00    +0.141 C 
ATOM     36  C   UNL     1       1.062   7.905   2.649  0.00  0.00    +0.033 C 
ATOM     37  C   UNL     1       2.146   7.076   1.766  0.00  0.00    +0.020 C 
ATOM     38  O   UNL     1      -0.501   6.060   2.554  0.00  0.00    -0.224 OA
ATOM     39  C   UNL     1       1.081   6.613   0.620  0.00  0.00    +0.072 C 
ATOM     40  N   UNL     1       4.868   7.197  -1.696  0.00  0.00    -0.249 NA
ATOM     41  C   UNL     1       2.579   8.419   0.940  0.00  0.00    +0.022 C 
BRANCH  35  42
ATOM     42  C   UNL     1      -1.156   8.108   3.457  0.00  0.00    +0.032 C 
ATOM     43  C   UNL     1      -0.705   9.517   3.723  0.00  0.00    +0.003 C 
ENDBRANCH  35  42
BRANCH  22  44
ATOM     44  C   UNL     1       4.571   7.077   1.182  0.00  0.00    +0.325 C 
ATOM     45  O   UNL     1       4.320   6.805   2.371  0.00  0.00    -0.249 OA
BRANCH  44  46
ATOM     46  O   UNL     1       5.279   6.127   0.452  0.00  0.00    -0.444 OA
ATOM     47  C   UNL     1       4.705   4.910   0.036  0.00  0.00    +0.256 C 
ENDBRANCH  44  46
ENDBRANCH  22  44
ENDBRANCH  17  22
BRANCH  16  48
ATOM     48  O   UNL     1       5.973   8.407   2.552  0.00  0.00    -0.472 OA
ATOM     49  C   UNL     1       7.292   8.578   3.065  0.00  0.00    +0.252 C 
ENDBRANCH  16  48
BRANCH  10  50
ATOM     50  C   UNL     1       6.776  13.606   2.371  0.00  0.00    +0.350 C 
ATOM     51  O   UNL     1       7.112  13.501   3.612  0.00  0.00    -0.247 OA
BRANCH  50  52
ATOM     52  O   UNL     1       7.781  12.833   1.776  0.00  0.00    -0.443 OA
ATOM     53  C   UNL     1       8.819  12.187   2.443  0.00  0.00    +0.256 C 
ENDBRANCH  50  52
ENDBRANCH  10  50
BRANCH   1  55
ATOM     54  C   UNL     1       6.982  17.158  -0.731  0.00  0.00    +0.001 C 
ATOM     55  C   UNL     1       6.892  16.026  -1.017  0.00  0.00    +0.009 C 
ENDBRANCH   1  55
BRANCH  20  56
ATOM     56  O   UNL     1       4.862  16.540   1.522  0.00  0.00    -0.449 OA
BRANCH  56  57
ATOM     57  C   UNL     1       4.845  17.371   2.632  0.00  0.00    +0.318 C 
ATOM     58  O   UNL     1       5.957  17.749   3.106  0.00  0.00    -0.250 OA
ATOM     59  C   UNL     1       3.602  17.749   3.358  0.00  0.00    +0.121 C 
ENDBRANCH  56  57
ENDBRANCH  20  56
TORSDOF 10
ENDMDL
MODEL 5
REMARK VINA RESULT:       2.7      3.353     10.459
REMARK  Name = 
REMARK  10 active torsions:
REMARK  status: ('A' for Active; 'I' for Inactive)
REMARK    1  A    between atoms: C_2  and  C_3
REMARK    2  A    between atoms: C_13  and  C_14
REMARK    3  A    between atoms: C_14  and  C_15
REMARK    4  A    between atoms: C_15  and  O_17
REMARK    5  A    between atoms: C_24  and  C_26
REMARK    6  A    between atoms: C_40  and  O_41
REMARK    7  A    between atoms: C_48  and  C_50
REMARK    8  A    between atoms: C_50  and  O_52
REMARK    9  A    between atoms: C_54  and  O_55
REMARK   10  A    between atoms: O_55  and  C_56
REMARK                            x       y       z     vdW  Elec       q    Type
REMARK                         _______ _______ _______ _____ _____    ______ ____
ROOT
ATOM      1  C   UNL     1       3.059   6.125  -7.526  0.00  0.00    +0.072 C 
ATOM      2  C   UNL     1       2.795   7.161  -6.310  0.00  0.00    +0.070 C 
ATOM      3  N   UNL     1       4.301   7.243  -5.885  0.00  0.00    -0.269 NA
ATOM      4  C   UNL     1       4.338   6.819  -4.551  0.00  0.00    +0.073 C 
ATOM      5  C   UNL     1       3.627   5.475  -4.729  0.00  0.00    +0.024 C 
ATOM      6  C   UNL     1       5.191   6.759  -6.807  0.00  0.00    +0.099 C 
ATOM      7  C   UNL     1       5.079   5.270  -7.010  0.00  0.00    -0.013 C 
ATOM      8  C   UNL     1       2.368   6.052  -5.199  0.00  0.00    +0.055 C 
ATOM      9  C   UNL     1       1.477   4.963  -6.000  0.00  0.00    +0.120 C 
ATOM     10  C   UNL     1       0.694   5.976  -6.994  0.00  0.00    +0.268 C 
ATOM     11  O   UNL     1      -0.275   5.059  -7.479  0.00  0.00    -0.209 OA
ATOM     12  N   UNL     1       0.280   4.924  -4.977  0.00  0.00    -0.304 N 
ATOM     13  C   UNL     1      -0.789   3.987  -5.266  0.00  0.00    +0.112 C 
ATOM     14  C   UNL     1       0.336   6.053  -4.194  0.00  0.00    +0.047 A 
ATOM     15  C   UNL     1      -0.614   6.550  -3.305  0.00  0.00    +0.051 A 
ATOM     16  C   UNL     1      -0.181   7.346  -2.256  0.00  0.00    +0.137 A 
ATOM     17  C   UNL     1       1.145   7.256  -1.847  0.00  0.00    +0.026 A 
ATOM     18  C   UNL     1       2.022   6.934  -2.849  0.00  0.00    -0.003 A 
ATOM     19  C   UNL     1       1.613   6.589  -4.147  0.00  0.00    -0.007 A 
ATOM     20  C   UNL     1       1.651   6.017  -8.315  0.00  0.00    +0.213 C 
ATOM     21  C   UNL     1       3.789   5.005  -7.296  0.00  0.00    -0.025 C 
ENDROOT
BRANCH  17  22
ATOM     22  C   UNL     1       1.385   6.986  -0.395  0.00  0.00    +0.146 C 
ATOM     23  C   UNL     1       0.133   6.998   0.390  0.00  0.00    +0.068 A 
ATOM     24  C   UNL     1       0.055   7.787   1.532  0.00  0.00    -0.005 A 
ATOM     25  C   UNL     1      -1.143   7.432   2.136  0.00  0.00    +0.015 A 
ATOM     26  C   UNL     1      -1.651   6.299   1.516  0.00  0.00    +0.081 A 
ATOM     27  C   UNL     1      -2.998   5.992   1.671  0.00  0.00    +0.019 A 
ATOM     28  C   UNL     1      -3.615   6.396   2.850  0.00  0.00    +0.002 A 
ATOM     29  C   UNL     1      -2.925   7.183   3.750  0.00  0.00    +0.000 A 
ATOM     30  C   UNL     1      -1.785   7.835   3.300  0.00  0.00    +0.001 A 
ATOM     31  C   UNL     1       0.624   9.164   1.399  0.00  0.00    +0.045 C 
ATOM     32  C   UNL     1       1.504   9.516   2.595  0.00  0.00    +0.077 C 
ATOM     33  N   UNL     1       2.763   8.983   2.367  0.00  0.00    -0.270 NA
ATOM     34  C   UNL     1       3.938   9.716   2.602  0.00  0.00    +0.103 C 
ATOM     35  C   UNL     1       5.041   8.787   2.091  0.00  0.00    +0.141 C 
ATOM     36  C   UNL     1       4.607   8.241   0.799  0.00  0.00    +0.033 C 
ATOM     37  C   UNL     1       3.497   7.071   0.993  0.00  0.00    +0.020 C 
ATOM     38  O   UNL     1       5.452   7.880   3.039  0.00  0.00    -0.224 OA
ATOM     39  C   UNL     1       2.979   7.597   2.447  0.00  0.00    +0.072 C 
ATOM     40  N   UNL     1      -0.751   5.983   0.567  0.00  0.00    -0.249 NA
ATOM     41  C   UNL     1       2.369   7.934   0.184  0.00  0.00    +0.022 C 
BRANCH  35  42
ATOM     42  C   UNL     1       6.215   9.686   1.773  0.00  0.00    +0.032 C 
ATOM     43  C   UNL     1       6.982  10.085   3.002  0.00  0.00    +0.003 C 
ENDBRANCH  35  42
BRANCH  22  44
ATOM     44  C   UNL     1       1.974   5.610  -0.338  0.00  0.00    +0.325 C 
ATOM     45  O   UNL     1       1.305   4.566  -0.459  0.00  0.00    -0.249 OA
BRANCH  44  46
ATOM     46  O   UNL     1       3.359   5.479  -0.369  0.00  0.00    -0.444 OA
ATOM     47  C   UNL     1       4.011   4.513  -1.160  0.00  0.00    +0.256 C 
ENDBRANCH  44  46
ENDBRANCH  22  44
ENDBRANCH  17  22
BRANCH  16  48
ATOM     48  O   UNL     1      -0.943   8.268  -1.584  0.00  0.00    -0.472 OA
ATOM     49  C   UNL     1      -2.363   8.148  -1.612  0.00  0.00    +0.252 C 
ENDBRANCH  16  48
BRANCH  10  50
ATOM     50  C   UNL     1       0.074   7.101  -6.615  0.00  0.00    +0.350 C 
ATOM     51  O   UNL     1       0.706   8.215  -6.772  0.00  0.00    -0.247 OA
BRANCH  50  52
ATOM     52  O   UNL     1      -1.021   7.543  -5.862  0.00  0.00    -0.443 OA
ATOM     53  C   UNL     1      -2.337   7.110  -6.000  0.00  0.00    +0.256 C 
ENDBRANCH  50  52
ENDBRANCH  10  50
BRANCH   1  55
ATOM     54  C   UNL     1       3.100   7.334  -9.399  0.00  0.00    +0.001 C 
ATOM     55  C   UNL     1       3.791   7.055  -8.495  0.00  0.00    +0.009 C 
ENDBRANCH   1  55
BRANCH  20  56
ATOM     56  O   UNL     1       1.751   4.473  -8.425  0.00  0.00    -0.449 OA
BRANCH  56  57
ATOM     57  C   UNL     1       1.831   4.000  -9.726  0.00  0.00    +0.318 C 
ATOM     58  O   UNL     1       2.972   3.677 -10.171  0.00  0.00    -0.250 OA
ATOM     59  C   UNL     1       0.671   3.957 -10.657  0.00  0.00    +0.121 C 
ENDBRANCH  56  57
ENDBRANCH  20  56
TORSDOF 10
ENDMDL
