MODEL 1
REMARK VINA RESULT:      -7.3      0.000      0.000
REMARK  Name = 
REMARK  4 active torsions:
REMARK  status: ('A' for Active; 'I' for Inactive)
REMARK    1  A    between atoms: N_2  and  C_3
REMARK    2  A    between atoms: C_3  and  C_4
REMARK    3  A    between atoms: C_4  and  C_5
REMARK    4  A    between atoms: C_5  and  C_6
REMARK                            x       y       z     vdW  Elec       q    Type
REMARK                         _______ _______ _______ _____ _____    ______ ____
ROOT
ATOM      1  C   UNL     1       3.454   5.772 -10.916  0.00  0.00    +0.045 C 
ATOM      2  C   UNL     1       4.635   6.271 -11.631  0.00  0.00    -0.018 A 
ATOM      3  C   UNL     1       4.940   5.985 -12.956  0.00  0.00    -0.004 A 
ATOM      4  C   UNL     1       6.166   6.370 -13.438  0.00  0.00    -0.000 A 
ATOM      5  C   UNL     1       7.004   7.112 -12.613  0.00  0.00    -0.000 A 
ATOM      6  C   UNL     1       6.517   7.737 -11.472  0.00  0.00    -0.000 A 
ATOM      7  C   UNL     1       3.942   5.720 -14.001  0.00  0.00    -0.000 C 
ATOM      8  C   UNL     1       2.609   5.685 -13.930  0.00  0.00    -0.000 C 
ATOM      9  C   UNL     1       1.812   6.165 -12.793  0.00  0.00    -0.004 A 
ATOM     10  C   UNL     1       0.663   6.842 -13.185  0.00  0.00    -0.000 A 
ATOM     11  C   UNL     1      -0.172   7.441 -12.256  0.00  0.00    -0.000 A 
ATOM     12  C   UNL     1      -0.052   6.973 -10.952  0.00  0.00    -0.000 A 
ATOM     13  C   UNL     1       1.187   6.495 -10.543  0.00  0.00    -0.004 A 
ATOM     14  C   UNL     1       5.432   7.113 -10.865  0.00  0.00    -0.004 A 
ATOM     15  C   UNL     1       2.200   6.311 -11.465  0.00  0.00    -0.018 A 
ENDROOT
BRANCH   1  16
ATOM     16  C   UNL     1       3.550   5.807  -9.431  0.00  0.00    +0.010 C 
BRANCH  16  17
ATOM     17  C   UNL     1       3.837   4.375  -8.990  0.00  0.00    +0.019 C 
BRANCH  17  18
ATOM     18  C   UNL     1       2.600   3.728  -8.396  0.00  0.00    +0.089 C 
BRANCH  18  20
ATOM     19  C   UNL     1       1.719   4.005  -6.169  0.00  0.00    +0.107 C 
ATOM     20  N   UNL     1       1.911   4.604  -7.479  0.00  0.00    -0.217 NA
ENDBRANCH  18  20
ENDBRANCH  17  18
ENDBRANCH  16  17
ENDBRANCH   1  16
TORSDOF 4
ENDMDL
MODEL 2
REMARK VINA RESULT:      -7.3      6.017      7.427
REMARK  Name = 
REMARK  4 active torsions:
REMARK  status: ('A' for Active; 'I' for Inactive)
REMARK    1  A    between atoms: N_2  and  C_3
REMARK    2  A    between atoms: C_3  and  C_4
REMARK    3  A    between atoms: C_4  and  C_5
REMARK    4  A    between atoms: C_5  and  C_6
REMARK                            x       y       z     vdW  Elec       q    Type
REMARK                         _______ _______ _______ _____ _____    ______ ____
ROOT
ATOM      1  C   UNL     1       1.069   5.515  -3.705  0.00  0.00    +0.045 C 
ATOM      2  C   UNL     1       2.387   5.892  -4.230  0.00  0.00    -0.018 A 
ATOM      3  C   UNL     1       3.096   5.171  -5.184  0.00  0.00    -0.004 A 
ATOM      4  C   UNL     1       4.391   5.542  -5.447  0.00  0.00    -0.000 A 
ATOM      5  C   UNL     1       4.900   6.675  -4.824  0.00  0.00    -0.000 A 
ATOM      6  C   UNL     1       4.058   7.601  -4.219  0.00  0.00    -0.000 A 
ATOM      7  C   UNL     1       2.479   4.358  -6.240  0.00  0.00    -0.000 C 
ATOM      8  C   UNL     1       1.191   4.127  -6.509  0.00  0.00    -0.000 C 
ATOM      9  C   UNL     1       0.063   4.867  -5.928  0.00  0.00    -0.004 A 
ATOM     10  C   UNL     1      -0.942   5.134  -6.851  0.00  0.00    -0.000 A 
ATOM     11  C   UNL     1      -2.048   5.895  -6.510  0.00  0.00    -0.000 A 
ATOM     12  C   UNL     1      -2.311   5.995  -5.148  0.00  0.00    -0.000 A 
ATOM     13  C   UNL     1      -1.235   5.931  -4.271  0.00  0.00    -0.004 A 
ATOM     14  C   UNL     1       2.870   7.087  -3.711  0.00  0.00    -0.004 A 
ATOM     15  C   UNL     1       0.019   5.579  -4.734  0.00  0.00    -0.018 A 
ENDROOT
BRANCH   1  16
ATOM     16  C   UNL     1       0.704   6.139  -2.403  0.00  0.00    +0.010 C 
BRANCH  16  17
ATOM     17  C   UNL     1       0.696   5.008  -1.378  0.00  0.00    +0.019 C 
BRANCH  17  18
ATOM     18  C   UNL     1       2.106   4.667  -0.931  0.00  0.00    +0.089 C 
BRANCH  18  20
ATOM     19  C   UNL     1       4.199   5.831  -0.654  0.00  0.00    +0.107 C 
ATOM     20  N   UNL     1       2.780   5.798  -0.340  0.00  0.00    -0.217 NA
ENDBRANCH  18  20
ENDBRANCH  17  18
ENDBRANCH  16  17
ENDBRANCH   1  16
TORSDOF 4
ENDMDL
MODEL 3
REMARK VINA RESULT:      -7.2      4.031      8.880
REMARK  Name = 
REMARK  4 active torsions:
REMARK  status: ('A' for Active; 'I' for Inactive)
REMARK    1  A    between atoms: N_2  and  C_3
REMARK    2  A    between atoms: C_3  and  C_4
REMARK    3  A    between atoms: C_4  and  C_5
REMARK    4  A    between atoms: C_5  and  C_6
REMARK                            x       y       z     vdW  Elec       q    Type
REMARK                         _______ _______ _______ _____ _____    ______ ____
ROOT
ATOM      1  C   UNL     1       1.346   6.215  -5.146  0.00  0.00    +0.045 C 
ATOM      2  C   UNL     1       0.075   6.482  -4.461  0.00  0.00    -0.018 A 
ATOM      3  C   UNL     1      -0.327   5.880  -3.273  0.00  0.00    -0.004 A 
ATOM      4  C   UNL     1      -1.614   6.088  -2.845  0.00  0.00    -0.000 A 
ATOM      5  C   UNL     1      -2.423   6.964  -3.560  0.00  0.00    -0.000 A 
ATOM      6  C   UNL     1      -1.879   7.859  -4.473  0.00  0.00    -0.000 A 
ATOM      7  C   UNL     1       0.590   5.424  -2.220  0.00  0.00    -0.000 C 
ATOM      8  C   UNL     1       1.923   5.464  -2.161  0.00  0.00    -0.000 C 
ATOM      9  C   UNL     1       2.784   6.232  -3.071  0.00  0.00    -0.004 A 
ATOM     10  C   UNL     1       3.846   6.848  -2.419  0.00  0.00    -0.000 A 
ATOM     11  C   UNL     1       4.718   7.684  -3.097  0.00  0.00    -0.000 A 
ATOM     12  C   UNL     1       4.747   7.528  -4.479  0.00  0.00    -0.000 A 
ATOM     13  C   UNL     1       3.583   7.105  -5.110  0.00  0.00    -0.004 A 
ATOM     14  C   UNL     1      -0.704   7.443  -5.091  0.00  0.00    -0.004 A 
ATOM     15  C   UNL     1       2.507   6.667  -4.363  0.00  0.00    -0.018 A 
ENDROOT
BRANCH   1  16
ATOM     16  C   UNL     1       1.381   6.593  -6.585  0.00  0.00    +0.010 C 
BRANCH  16  17
ATOM     17  C   UNL     1       1.091   5.314  -7.366  0.00  0.00    +0.019 C 
BRANCH  17  18
ATOM     18  C   UNL     1       2.204   4.298  -7.183  0.00  0.00    +0.089 C 
BRANCH  18  20
ATOM     19  C   UNL     1       3.782   4.330  -9.005  0.00  0.00    +0.107 C 
ATOM     20  N   UNL     1       2.607   3.696  -8.431  0.00  0.00    -0.217 NA
ENDBRANCH  18  20
ENDBRANCH  17  18
ENDBRANCH  16  17
ENDBRANCH   1  16
TORSDOF 4
ENDMDL
MODEL 4
REMARK VINA RESULT:      -7.2      4.108      6.887
REMARK  Name = 
REMARK  4 active torsions:
REMARK  status: ('A' for Active; 'I' for Inactive)
REMARK    1  A    between atoms: N_2  and  C_3
REMARK    2  A    between atoms: C_3  and  C_4
REMARK    3  A    between atoms: C_4  and  C_5
REMARK    4  A    between atoms: C_5  and  C_6
REMARK                            x       y       z     vdW  Elec       q    Type
REMARK                         _______ _______ _______ _____ _____    ______ ____
ROOT
ATOM      1  C   UNL     1       1.048   5.676  -5.183  0.00  0.00    +0.045 C 
ATOM      2  C   UNL     1       1.238   6.140  -6.563  0.00  0.00    -0.018 A 
ATOM      3  C   UNL     1       0.477   5.725  -7.650  0.00  0.00    -0.004 A 
ATOM      4  C   UNL     1       0.882   6.101  -8.906  0.00  0.00    -0.000 A 
ATOM      5  C   UNL     1       1.971   6.957  -9.028  0.00  0.00    -0.000 A 
ATOM      6  C   UNL     1       2.440   7.681  -7.939  0.00  0.00    -0.000 A 
ATOM      7  C   UNL     1      -0.931   5.315  -7.571  0.00  0.00    -0.000 C 
ATOM      8  C   UNL     1      -1.749   5.239  -6.519  0.00  0.00    -0.000 C 
ATOM      9  C   UNL     1      -1.473   5.808  -5.194  0.00  0.00    -0.004 A 
ATOM     10  C   UNL     1      -2.591   6.398  -4.613  0.00  0.00    -0.000 A 
ATOM     11  C   UNL     1      -2.506   7.061  -3.400  0.00  0.00    -0.000 A 
ATOM     12  C   UNL     1      -1.405   6.739  -2.615  0.00  0.00    -0.000 A 
ATOM     13  C   UNL     1      -0.236   6.352  -3.261  0.00  0.00    -0.004 A 
ATOM     14  C   UNL     1       2.245   7.087  -6.696  0.00  0.00    -0.004 A 
ATOM     15  C   UNL     1      -0.241   6.109  -4.621  0.00  0.00    -0.018 A 
ENDROOT
BRANCH   1  16
ATOM     16  C   UNL     1       2.217   5.873  -4.282  0.00  0.00    +0.010 C 
BRANCH  16  17
ATOM     17  C   UNL     1       3.178   4.725  -4.576  0.00  0.00    +0.019 C 
BRANCH  17  18
ATOM     18  C   UNL     1       4.621   5.192  -4.523  0.00  0.00    +0.089 C 
BRANCH  18  20
ATOM     19  C   UNL     1       5.521   7.408  -4.219  0.00  0.00    +0.107 C 
ATOM     20  N   UNL     1       4.804   6.298  -3.614  0.00  0.00    -0.217 NA
ENDBRANCH  18  20
ENDBRANCH  17  18
ENDBRANCH  16  17
ENDBRANCH   1  16
TORSDOF 4
ENDMDL
MODEL 5
REMARK VINA RESULT:      -7.1      2.006      5.590
REMARK  Name = 
REMARK  4 active torsions:
REMARK  status: ('A' for Active; 'I' for Inactive)
REMARK    1  A    between atoms: N_2  and  C_3
REMARK    2  A    between atoms: C_3  and  C_4
REMARK    3  A    between atoms: C_4  and  C_5
REMARK    4  A    between atoms: C_5  and  C_6
REMARK                            x       y       z     vdW  Elec       q    Type
REMARK                         _______ _______ _______ _____ _____    ______ ____
ROOT
ATOM      1  C   UNL     1       3.687   6.008 -10.223  0.00  0.00    +0.045 C 
ATOM      2  C   UNL     1       3.260   6.289  -8.847  0.00  0.00    -0.018 A 
ATOM      3  C   UNL     1       3.742   5.636  -7.718  0.00  0.00    -0.004 A 
ATOM      4  C   UNL     1       3.123   5.874  -6.517  0.00  0.00    -0.000 A 
ATOM      5  C   UNL     1       2.111   6.825  -6.465  0.00  0.00    -0.000 A 
ATOM      6  C   UNL     1       1.941   7.748  -7.489  0.00  0.00    -0.000 A 
ATOM      7  C   UNL     1       5.096   5.078  -7.595  0.00  0.00    -0.000 C 
ATOM      8  C   UNL     1       6.102   5.057  -8.472  0.00  0.00    -0.000 C 
ATOM      9  C   UNL     1       6.154   5.839  -9.714  0.00  0.00    -0.004 A 
ATOM     10  C   UNL     1       7.414   6.369  -9.968  0.00  0.00    -0.000 A 
ATOM     11  C   UNL     1       7.639   7.204 -11.050  0.00  0.00    -0.000 A 
ATOM     12  C   UNL     1       6.698   7.130 -12.071  0.00  0.00    -0.000 A 
ATOM     13  C   UNL     1       5.392   6.796 -11.731  0.00  0.00    -0.004 A 
ATOM     14  C   UNL     1       2.333   7.319  -8.753  0.00  0.00    -0.004 A 
ATOM     15  C   UNL     1       5.098   6.361 -10.453  0.00  0.00    -0.018 A 
ENDROOT
BRANCH   1  16
ATOM     16  C   UNL     1       2.750   6.469 -11.284  0.00  0.00    +0.010 C 
BRANCH  16  17
ATOM     17  C   UNL     1       1.910   5.253 -11.665  0.00  0.00    +0.019 C 
BRANCH  17  18
ATOM     18  C   UNL     1       0.557   5.672 -12.210  0.00  0.00    +0.089 C 
BRANCH  18  20
ATOM     19  C   UNL     1      -0.728   7.603 -11.554  0.00  0.00    +0.107 C 
ATOM     20  N   UNL     1      -0.279   6.268 -11.196  0.00  0.00    -0.217 NA
ENDBRANCH  18  20
ENDBRANCH  17  18
ENDBRANCH  16  17
ENDBRANCH   1  16
TORSDOF 4
ENDMDL
MODEL 6
REMARK VINA RESULT:      -7.1      3.045      5.876
REMARK  Name = 
REMARK  4 active torsions:
REMARK  status: ('A' for Active; 'I' for Inactive)
REMARK    1  A    between atoms: N_2  and  C_3
REMARK    2  A    between atoms: C_3  and  C_4
REMARK    3  A    between atoms: C_4  and  C_5
REMARK    4  A    between atoms: C_5  and  C_6
REMARK                            x       y       z     vdW  Elec       q    Type
REMARK                         _______ _______ _______ _____ _____    ______ ____
ROOT
ATOM      1  C   UNL     1       0.742   5.989  -8.485  0.00  0.00    +0.045 C 
ATOM      2  C   UNL     1       2.157   5.618  -8.373  0.00  0.00    -0.018 A 
ATOM      3  C   UNL     1       3.104   6.319  -7.634  0.00  0.00    -0.004 A 
ATOM      4  C   UNL     1       4.423   5.963  -7.765  0.00  0.00    -0.000 A 
ATOM      5  C   UNL     1       4.742   4.862  -8.551  0.00  0.00    -0.000 A 
ATOM      6  C   UNL     1       3.770   3.943  -8.927  0.00  0.00    -0.000 A 
ATOM      7  C   UNL     1       2.808   7.082  -6.414  0.00  0.00    -0.000 C 
ATOM      8  C   UNL     1       1.649   7.279  -5.781  0.00  0.00    -0.000 C 
ATOM      9  C   UNL     1       0.408   6.539  -6.044  0.00  0.00    -0.004 A 
ATOM     10  C   UNL     1      -0.289   6.221  -4.884  0.00  0.00    -0.000 A 
ATOM     11  C   UNL     1      -1.441   5.452  -4.925  0.00  0.00    -0.000 A 
ATOM     12  C   UNL     1      -2.081   5.395  -6.158  0.00  0.00    -0.000 A 
ATOM     13  C   UNL     1      -1.301   5.510  -7.302  0.00  0.00    -0.004 A 
ATOM     14  C   UNL     1       2.482   4.452  -9.054  0.00  0.00    -0.004 A 
ATOM     15  C   UNL     1       0.029   5.869  -7.203  0.00  0.00    -0.018 A 
ENDROOT
BRANCH   1  16
ATOM     16  C   UNL     1       0.024   5.405  -9.652  0.00  0.00    +0.010 C 
BRANCH  16  17
ATOM     17  C   UNL     1      -0.069   6.517 -10.692  0.00  0.00    +0.019 C 
BRANCH  17  18
ATOM     18  C   UNL     1       0.711   6.162 -11.944  0.00  0.00    +0.089 C 
BRANCH  18  20
ATOM     19  C   UNL     1       0.853   4.532 -13.715  0.00  0.00    +0.107 C 
ATOM     20  N   UNL     1       0.549   4.776 -12.315  0.00  0.00    -0.217 NA
ENDBRANCH  18  20
ENDBRANCH  17  18
ENDBRANCH  16  17
ENDBRANCH   1  16
TORSDOF 4
ENDMDL
MODEL 7
REMARK VINA RESULT:      -7.1      2.213      4.773
REMARK  Name = 
REMARK  4 active torsions:
REMARK  status: ('A' for Active; 'I' for Inactive)
REMARK    1  A    between atoms: N_2  and  C_3
REMARK    2  A    between atoms: C_3  and  C_4
REMARK    3  A    between atoms: C_4  and  C_5
REMARK    4  A    between atoms: C_5  and  C_6
REMARK                            x       y       z     vdW  Elec       q    Type
REMARK                         _______ _______ _______ _____ _____    ______ ____
ROOT
ATOM      1  C   UNL     1       3.934   6.603 -10.905  0.00  0.00    +0.045 C 
ATOM      2  C   UNL     1       3.966   6.248  -9.481  0.00  0.00    -0.018 A 
ATOM      3  C   UNL     1       3.024   6.652  -8.542  0.00  0.00    -0.004 A 
ATOM      4  C   UNL     1       3.278   6.397  -7.218  0.00  0.00    -0.000 A 
ATOM      5  C   UNL     1       4.411   5.664  -6.885  0.00  0.00    -0.000 A 
ATOM      6  C   UNL     1       5.093   4.924  -7.842  0.00  0.00    -0.000 A 
ATOM      7  C   UNL     1       1.610   6.914  -8.842  0.00  0.00    -0.000 C 
ATOM      8  C   UNL     1       0.946   6.842  -9.998  0.00  0.00    -0.000 C 
ATOM      9  C   UNL     1       1.459   6.221 -11.227  0.00  0.00    -0.004 A 
ATOM     10  C   UNL     1       0.493   5.488 -11.907  0.00  0.00    -0.000 A 
ATOM     11  C   UNL     1       0.809   4.762 -13.044  0.00  0.00    -0.000 A 
ATOM     12  C   UNL     1       1.977   5.143 -13.694  0.00  0.00    -0.000 A 
ATOM     13  C   UNL     1       3.003   5.683 -12.927  0.00  0.00    -0.004 A 
ATOM     14  C   UNL     1       5.025   5.416  -9.140  0.00  0.00    -0.004 A 
ATOM     15  C   UNL     1       2.781   6.010 -11.603  0.00  0.00    -0.018 A 
ENDROOT
BRANCH   1  16
ATOM     16  C   UNL     1       5.232   6.468 -11.622  0.00  0.00    +0.010 C 
BRANCH  16  17
ATOM     17  C   UNL     1       6.028   7.729 -11.299  0.00  0.00    +0.019 C 
BRANCH  17  18
ATOM     18  C   UNL     1       7.468   7.394 -10.956  0.00  0.00    +0.089 C 
BRANCH  18  20
ATOM     19  C   UNL     1       8.879   5.894 -12.210  0.00  0.00    +0.107 C 
ATOM     20  N   UNL     1       7.794   6.019 -11.251  0.00  0.00    -0.217 NA
ENDBRANCH  18  20
ENDBRANCH  17  18
ENDBRANCH  16  17
ENDBRANCH   1  16
TORSDOF 4
ENDMDL
MODEL 8
REMARK VINA RESULT:      -6.9      3.563      6.242
REMARK  Name = 
REMARK  4 active torsions:
REMARK  status: ('A' for Active; 'I' for Inactive)
REMARK    1  A    between atoms: N_2  and  C_3
REMARK    2  A    between atoms: C_3  and  C_4
REMARK    3  A    between atoms: C_4  and  C_5
REMARK    4  A    between atoms: C_5  and  C_6
REMARK                            x       y       z     vdW  Elec       q    Type
REMARK                         _______ _______ _______ _____ _____    ______ ____
ROOT
ATOM      1  C   UNL     1       0.118   5.801  -7.355  0.00  0.00    +0.045 C 
ATOM      2  C   UNL     1       0.363   5.758  -8.801  0.00  0.00    -0.018 A 
ATOM      3  C   UNL     1       1.110   6.694  -9.507  0.00  0.00    -0.004 A 
ATOM      4  C   UNL     1       1.104   6.628 -10.878  0.00  0.00    -0.000 A 
ATOM      5  C   UNL     1       0.435   5.576 -11.493  0.00  0.00    -0.000 A 
ATOM      6  C   UNL     1       0.066   4.445 -10.777  0.00  0.00    -0.000 A 
ATOM      7  C   UNL     1       2.239   7.449  -8.948  0.00  0.00    -0.000 C 
ATOM      8  C   UNL     1       2.768   7.428  -7.723  0.00  0.00    -0.000 C 
ATOM      9  C   UNL     1       2.476   6.418  -6.696  0.00  0.00    -0.004 A 
ATOM     10  C   UNL     1       3.604   6.029  -5.983  0.00  0.00    -0.000 A 
ATOM     11  C   UNL     1       3.542   5.025  -5.030  0.00  0.00    -0.000 A 
ATOM     12  C   UNL     1       2.274   4.751  -4.529  0.00  0.00    -0.000 A 
ATOM     13  C   UNL     1       1.184   4.962  -5.364  0.00  0.00    -0.004 A 
ATOM     14  C   UNL     1      -0.197   4.650  -9.426  0.00  0.00    -0.004 A 
ATOM     15  C   UNL     1       1.351   5.609  -6.574  0.00  0.00    -0.018 A 
ENDROOT
BRANCH   1  16
ATOM     16  C   UNL     1      -1.047   5.002  -6.885  0.00  0.00    +0.010 C 
BRANCH  16  17
ATOM     17  C   UNL     1      -2.076   6.009  -6.379  0.00  0.00    +0.019 C 
BRANCH  17  18
ATOM     18  C   UNL     1      -2.428   5.747  -4.926  0.00  0.00    +0.089 C 
BRANCH  18  20
ATOM     19  C   UNL     1      -1.668   8.018  -4.655  0.00  0.00    +0.107 C 
ATOM     20  N   UNL     1      -2.541   6.966  -4.162  0.00  0.00    -0.217 NA
ENDBRANCH  18  20
ENDBRANCH  17  18
ENDBRANCH  16  17
ENDBRANCH   1  16
TORSDOF 4
ENDMDL
MODEL 9
REMARK VINA RESULT:      -6.6      4.355      7.653
REMARK  Name = 
REMARK  4 active torsions:
REMARK  status: ('A' for Active; 'I' for Inactive)
REMARK    1  A    between atoms: N_2  and  C_3
REMARK    2  A    between atoms: C_3  and  C_4
REMARK    3  A    between atoms: C_4  and  C_5
REMARK    4  A    between atoms: C_5  and  C_6
REMARK                            x       y       z     vdW  Elec       q    Type
REMARK                         _______ _______ _______ _____ _____    ______ ____
ROOT
ATOM      1  C   UNL     1       0.404   6.728  -5.332  0.00  0.00    +0.045 C 
ATOM      2  C   UNL     1       0.603   6.410  -6.751  0.00  0.00    -0.018 A 
ATOM      3  C   UNL     1       1.634   6.909  -7.538  0.00  0.00    -0.004 A 
ATOM      4  C   UNL     1       1.591   6.672  -8.890  0.00  0.00    -0.000 A 
ATOM      5  C   UNL     1       0.577   5.866  -9.394  0.00  0.00    -0.000 A 
ATOM      6  C   UNL     1      -0.175   5.051  -8.557  0.00  0.00    -0.000 A 
ATOM      7  C   UNL     1       2.967   7.266  -7.034  0.00  0.00    -0.000 C 
ATOM      8  C   UNL     1       3.463   7.212  -5.796  0.00  0.00    -0.000 C 
ATOM      9  C   UNL     1       2.830   6.522  -4.664  0.00  0.00    -0.004 A 
ATOM     10  C   UNL     1       3.744   5.845  -3.864  0.00  0.00    -0.000 A 
ATOM     11  C   UNL     1       3.327   5.066  -2.797  0.00  0.00    -0.000 A 
ATOM     12  C   UNL     1       2.052   5.342  -2.315  0.00  0.00    -0.000 A 
ATOM     13  C   UNL     1       1.107   5.825  -3.212  0.00  0.00    -0.004 A 
ATOM     14  C   UNL     1      -0.330   5.512  -7.254  0.00  0.00    -0.004 A 
ATOM     15  C   UNL     1       1.488   6.203  -4.485  0.00  0.00    -0.018 A 
ENDROOT
BRANCH   1  16
ATOM     16  C   UNL     1      -0.968   6.477  -4.812  0.00  0.00    +0.010 C 
BRANCH  16  17
ATOM     17  C   UNL     1      -1.605   7.850  -4.616  0.00  0.00    +0.019 C 
BRANCH  17  18
ATOM     18  C   UNL     1      -2.023   8.057  -3.172  0.00  0.00    +0.089 C 
BRANCH  18  20
ATOM     19  C   UNL     1      -3.721   6.450  -2.583  0.00  0.00    +0.107 C 
ATOM     20  N   UNL     1      -2.316   6.812  -2.503  0.00  0.00    -0.217 NA
ENDBRANCH  18  20
ENDBRANCH  17  18
ENDBRANCH  16  17
ENDBRANCH   1  16
TORSDOF 4
ENDMDL
