MODEL 1
REMARK VINA RESULT:      -9.0      0.000      0.000
REMARK  Name = 
REMARK  4 active torsions:
REMARK  status: ('A' for Active; 'I' for Inactive)
REMARK    1  A    between atoms: C_6  and  N_7
REMARK    2  A    between atoms: N_7  and  C_9
REMARK    3  A    between atoms: C_9  and  O_11
REMARK    4  A    between atoms: O_11  and  C_12
REMARK                            x       y       z     vdW  Elec       q    Type
REMARK                         _______ _______ _______ _____ _____    ______ ____
ROOT
ATOM      1  C   UNL     1       2.577   6.445  -6.149  0.00  0.00    +0.241 C 
ATOM      2  S   UNL     1       3.492   6.915  -4.896  0.00  0.00    +0.007 S 
ENDROOT
BRANCH   1   3
ATOM      3  N   UNL     1       1.385   5.683  -5.989  0.00  0.00    -0.251 N 
ATOM      4  C   UNL     1       1.435   4.225  -5.938  0.00  0.00    +0.121 C 
BRANCH   3   8
ATOM      5  C   UNL     1      -3.364   4.981  -6.063  0.00  0.00    +0.031 C 
ATOM      6  C   UNL     1      -2.287   6.019  -6.076  0.00  0.00    -0.021 A 
ATOM      7  C   UNL     1      -0.992   5.687  -6.397  0.00  0.00    +0.011 A 
ATOM      8  C   UNL     1       0.118   6.348  -5.927  0.00  0.00    +0.054 A 
ATOM      9  C   UNL     1      -0.087   7.352  -4.990  0.00  0.00    +0.015 A 
ATOM     10  C   UNL     1      -1.373   7.782  -4.724  0.00  0.00    +0.001 A 
ATOM     11  C   UNL     1      -2.472   7.152  -5.290  0.00  0.00    -0.004 A 
ENDBRANCH   3   8
ENDBRANCH   1   3
BRANCH   1  12
ATOM     12  O   UNL     1       2.813   7.050  -7.384  0.00  0.00    -0.434 OA
BRANCH  12  13
ATOM     13  C   UNL     1       3.521   6.297  -8.326  0.00  0.00    +0.147 A 
ATOM     14  C   UNL     1       3.797   6.794  -9.594  0.00  0.00    +0.038 A 
ATOM     15  C   UNL     1       5.046   6.611 -10.171  0.00  0.00    +0.003 A 
ATOM     16  C   UNL     1       5.989   5.778  -9.580  0.00  0.00    +0.000 A 
ATOM     17  C   UNL     1       7.322   6.145  -9.710  0.00  0.00    +0.000 A 
ATOM     18  C   UNL     1       7.718   7.232 -10.475  0.00  0.00    +0.000 A 
ATOM     19  C   UNL     1       6.776   7.715 -11.373  0.00  0.00    +0.000 A 
ATOM     20  C   UNL     1       5.538   4.999  -8.528  0.00  0.00    +0.003 A 
ATOM     21  C   UNL     1       5.456   7.284 -11.299  0.00  0.00    +0.000 A 
ATOM     22  C   UNL     1       4.302   5.218  -7.930  0.00  0.00    +0.038 A 
ENDBRANCH  12  13
ENDBRANCH   1  12
TORSDOF 4
ENDMDL
MODEL 2
REMARK VINA RESULT:      -8.8      2.543      4.390
REMARK  Name = 
REMARK  4 active torsions:
REMARK  status: ('A' for Active; 'I' for Inactive)
REMARK    1  A    between atoms: C_6  and  N_7
REMARK    2  A    between atoms: N_7  and  C_9
REMARK    3  A    between atoms: C_9  and  O_11
REMARK    4  A    between atoms: O_11  and  C_12
REMARK                            x       y       z     vdW  Elec       q    Type
REMARK                         _______ _______ _______ _____ _____    ______ ____
ROOT
ATOM      1  C   UNL     1       2.625   5.238  -8.693  0.00  0.00    +0.241 C 
ATOM      2  S   UNL     1       1.437   4.827  -9.717  0.00  0.00    +0.007 S 
ENDROOT
BRANCH   1   3
ATOM      3  N   UNL     1       2.374   5.733  -7.382  0.00  0.00    -0.251 N 
ATOM      4  C   UNL     1       1.171   6.508  -7.095  0.00  0.00    +0.121 C 
BRANCH   3   8
ATOM      5  C   UNL     1       5.109   7.932  -4.104  0.00  0.00    +0.031 C 
ATOM      6  C   UNL     1       4.807   6.618  -4.755  0.00  0.00    -0.021 A 
ATOM      7  C   UNL     1       4.127   6.563  -5.949  0.00  0.00    +0.011 A 
ATOM      8  C   UNL     1       3.334   5.511  -6.342  0.00  0.00    +0.054 A 
ATOM      9  C   UNL     1       3.133   4.487  -5.427  0.00  0.00    +0.015 A 
ATOM     10  C   UNL     1       3.880   4.457  -4.264  0.00  0.00    +0.001 A 
ATOM     11  C   UNL     1       4.745   5.492  -3.940  0.00  0.00    -0.004 A 
ENDBRANCH   3   8
ENDBRANCH   1   3
BRANCH   1  12
ATOM     12  O   UNL     1       3.920   4.823  -9.006  0.00  0.00    -0.434 OA
BRANCH  12  13
ATOM     13  C   UNL     1       4.832   5.825  -9.352  0.00  0.00    +0.147 A 
ATOM     14  C   UNL     1       6.196   5.568  -9.433  0.00  0.00    +0.038 A 
ATOM     15  C   UNL     1       6.953   6.080 -10.477  0.00  0.00    +0.003 A 
ATOM     16  C   UNL     1       6.413   7.004 -11.363  0.00  0.00    +0.000 A 
ATOM     17  C   UNL     1       6.846   6.941 -12.680  0.00  0.00    +0.000 A 
ATOM     18  C   UNL     1       7.847   6.071 -13.089  0.00  0.00    +0.000 A 
ATOM     19  C   UNL     1       8.624   5.527 -12.076  0.00  0.00    +0.000 A 
ATOM     20  C   UNL     1       5.177   7.527 -11.018  0.00  0.00    +0.003 A 
ATOM     21  C   UNL     1       8.236   5.661 -10.748  0.00  0.00    +0.000 A 
ATOM     22  C   UNL     1       4.409   6.980  -9.997  0.00  0.00    +0.038 A 
ENDBRANCH  12  13
ENDBRANCH   1  12
TORSDOF 4
ENDMDL
MODEL 3
REMARK VINA RESULT:      -8.7      1.643      7.772
REMARK  Name = 
REMARK  4 active torsions:
REMARK  status: ('A' for Active; 'I' for Inactive)
REMARK    1  A    between atoms: C_6  and  N_7
REMARK    2  A    between atoms: N_7  and  C_9
REMARK    3  A    between atoms: C_9  and  O_11
REMARK    4  A    between atoms: O_11  and  C_12
REMARK                            x       y       z     vdW  Elec       q    Type
REMARK                         _______ _______ _______ _____ _____    ______ ____
ROOT
ATOM      1  C   UNL     1       2.185   6.055  -8.050  0.00  0.00    +0.241 C 
ATOM      2  S   UNL     1       2.143   7.609  -7.590  0.00  0.00    +0.007 S 
ENDROOT
BRANCH   1   3
ATOM      3  N   UNL     1       2.623   5.647  -9.341  0.00  0.00    -0.251 N 
ATOM      4  C   UNL     1       1.661   5.242 -10.362  0.00  0.00    +0.121 C 
BRANCH   3   8
ATOM      5  C   UNL     1       6.278   8.046 -11.328  0.00  0.00    +0.031 C 
ATOM      6  C   UNL     1       5.861   6.738 -10.732  0.00  0.00    -0.021 A 
ATOM      7  C   UNL     1       4.530   6.415 -10.602  0.00  0.00    +0.011 A 
ATOM      8  C   UNL     1       4.025   5.584  -9.630  0.00  0.00    +0.054 A 
ATOM      9  C   UNL     1       4.908   5.125  -8.663  0.00  0.00    +0.015 A 
ATOM     10  C   UNL     1       6.263   5.341  -8.820  0.00  0.00    +0.001 A 
ATOM     11  C   UNL     1       6.751   6.108  -9.868  0.00  0.00    -0.004 A 
ENDBRANCH   3   8
ENDBRANCH   1   3
BRANCH   1  12
ATOM     12  O   UNL     1       2.061   5.083  -7.057  0.00  0.00    -0.434 OA
BRANCH  12  13
ATOM     13  C   UNL     1       0.777   4.869  -6.546  0.00  0.00    +0.147 A 
ATOM     14  C   UNL     1       0.519   4.932  -5.182  0.00  0.00    +0.038 A 
ATOM     15  C   UNL     1      -0.617   5.571  -4.704  0.00  0.00    +0.003 A 
ATOM     16  C   UNL     1      -1.611   6.003  -5.575  0.00  0.00    +0.000 A 
ATOM     17  C   UNL     1      -2.283   7.168  -5.233  0.00  0.00    +0.000 A 
ATOM     18  C   UNL     1      -2.059   7.827  -4.032  0.00  0.00    +0.000 A 
ATOM     19  C   UNL     1      -1.402   7.093  -3.054  0.00  0.00    +0.000 A 
ATOM     20  C   UNL     1      -1.498   5.576  -6.887  0.00  0.00    +0.003 A 
ATOM     21  C   UNL     1      -0.799   5.882  -3.376  0.00  0.00    +0.000 A 
ATOM     22  C   UNL     1      -0.340   4.974  -7.365  0.00  0.00    +0.038 A 
ENDBRANCH  12  13
ENDBRANCH   1  12
TORSDOF 4
ENDMDL
MODEL 4
REMARK VINA RESULT:      -8.6      2.097      3.589
REMARK  Name = 
REMARK  4 active torsions:
REMARK  status: ('A' for Active; 'I' for Inactive)
REMARK    1  A    between atoms: C_6  and  N_7
REMARK    2  A    between atoms: N_7  and  C_9
REMARK    3  A    between atoms: C_9  and  O_11
REMARK    4  A    between atoms: O_11  and  C_12
REMARK                            x       y       z     vdW  Elec       q    Type
REMARK                         _______ _______ _______ _____ _____    ______ ____
ROOT
ATOM      1  C   UNL     1       2.963   5.967  -6.184  0.00  0.00    +0.241 C 
ATOM      2  S   UNL     1       4.161   6.712  -5.384  0.00  0.00    +0.007 S 
ENDROOT
BRANCH   1   3
ATOM      3  N   UNL     1       1.818   6.658  -6.672  0.00  0.00    -0.251 N 
ATOM      4  C   UNL     1       1.960   7.757  -7.623  0.00  0.00    +0.121 C 
BRANCH   3   8
ATOM      5  C   UNL     1      -2.038   8.338  -4.355  0.00  0.00    +0.031 C 
ATOM      6  C   UNL     1      -1.396   7.110  -4.921  0.00  0.00    -0.021 A 
ATOM      7  C   UNL     1      -0.053   7.086  -5.212  0.00  0.00    +0.011 A 
ATOM      8  C   UNL     1       0.516   6.306  -6.191  0.00  0.00    +0.054 A 
ATOM      9  C   UNL     1      -0.342   5.572  -6.998  0.00  0.00    +0.015 A 
ATOM     10  C   UNL     1      -1.681   5.488  -6.670  0.00  0.00    +0.001 A 
ATOM     11  C   UNL     1      -2.208   6.218  -5.614  0.00  0.00    -0.004 A 
ENDBRANCH   3   8
ENDBRANCH   1   3
BRANCH   1  12
ATOM     12  O   UNL     1       3.205   4.676  -6.653  0.00  0.00    -0.434 OA
BRANCH  12  13
ATOM     13  C   UNL     1       3.237   4.508  -8.041  0.00  0.00    +0.147 A 
ATOM     14  C   UNL     1       2.130   4.043  -8.741  0.00  0.00    +0.038 A 
ATOM     15  C   UNL     1       1.760   4.623  -9.947  0.00  0.00    +0.003 A 
ATOM     16  C   UNL     1       2.582   5.553 -10.573  0.00  0.00    +0.000 A 
ATOM     17  C   UNL     1       1.955   6.571 -11.278  0.00  0.00    +0.000 A 
ATOM     18  C   UNL     1       0.579   6.616 -11.447  0.00  0.00    +0.000 A 
ATOM     19  C   UNL     1      -0.100   5.434 -11.186  0.00  0.00    +0.000 A 
ATOM     20  C   UNL     1       3.851   5.698 -10.040  0.00  0.00    +0.003 A 
ATOM     21  C   UNL     1       0.549   4.380 -10.554  0.00  0.00    +0.000 A 
ATOM     22  C   UNL     1       4.199   5.148  -8.812  0.00  0.00    +0.038 A 
ENDBRANCH  12  13
ENDBRANCH   1  12
TORSDOF 4
ENDMDL
MODEL 5
REMARK VINA RESULT:      -8.5      2.419      6.655
REMARK  Name = 
REMARK  4 active torsions:
REMARK  status: ('A' for Active; 'I' for Inactive)
REMARK    1  A    between atoms: C_6  and  N_7
REMARK    2  A    between atoms: N_7  and  C_9
REMARK    3  A    between atoms: C_9  and  O_11
REMARK    4  A    between atoms: O_11  and  C_12
REMARK                            x       y       z     vdW  Elec       q    Type
REMARK                         _______ _______ _______ _____ _____    ______ ____
ROOT
ATOM      1  C   UNL     1       1.741   5.289  -8.699  0.00  0.00    +0.241 C 
ATOM      2  S   UNL     1       0.316   5.633  -9.391  0.00  0.00    +0.007 S 
ENDROOT
BRANCH   1   3
ATOM      3  N   UNL     1       2.791   6.243  -8.584  0.00  0.00    -0.251 N 
ATOM      4  C   UNL     1       2.564   7.525  -7.925  0.00  0.00    +0.121 C 
BRANCH   3   8
ATOM      5  C   UNL     1       6.272   8.071 -11.341  0.00  0.00    +0.031 C 
ATOM      6  C   UNL     1       5.790   6.834 -10.650  0.00  0.00    -0.021 A 
ATOM      7  C   UNL     1       4.484   6.723 -10.234  0.00  0.00    +0.011 A 
ATOM      8  C   UNL     1       4.072   5.965  -9.164  0.00  0.00    +0.054 A 
ATOM      9  C   UNL     1       5.056   5.354  -8.399  0.00  0.00    +0.015 A 
ATOM     10  C   UNL     1       6.364   5.356  -8.845  0.00  0.00    +0.001 A 
ATOM     11  C   UNL     1       6.732   6.056  -9.985  0.00  0.00    -0.004 A 
ENDBRANCH   3   8
ENDBRANCH   1   3
BRANCH   1  12
ATOM     12  O   UNL     1       1.826   4.119  -7.943  0.00  0.00    -0.434 OA
BRANCH  12  13
ATOM     13  C   UNL     1       1.878   4.272  -6.554  0.00  0.00    +0.147 A 
ATOM     14  C   UNL     1       3.074   4.160  -5.856  0.00  0.00    +0.038 A 
ATOM     15  C   UNL     1       3.386   5.052  -4.838  0.00  0.00    +0.003 A 
ATOM     16  C   UNL     1       2.443   5.960  -4.372  0.00  0.00    +0.000 A 
ATOM     17  C   UNL     1       2.914   7.199  -3.958  0.00  0.00    +0.000 A 
ATOM     18  C   UNL     1       4.268   7.497  -3.909  0.00  0.00    +0.000 A 
ATOM     19  C   UNL     1       5.128   6.408  -3.955  0.00  0.00    +0.000 A 
ATOM     20  C   UNL     1       1.147   5.778  -4.825  0.00  0.00    +0.003 A 
ATOM     21  C   UNL     1       4.644   5.148  -4.287  0.00  0.00    +0.000 A 
ATOM     22  C   UNL     1       0.851   4.913  -5.872  0.00  0.00    +0.038 A 
ENDBRANCH  12  13
ENDBRANCH   1  12
TORSDOF 4
ENDMDL
MODEL 6
REMARK VINA RESULT:      -8.5      2.148      3.759
REMARK  Name = 
REMARK  4 active torsions:
REMARK  status: ('A' for Active; 'I' for Inactive)
REMARK    1  A    between atoms: C_6  and  N_7
REMARK    2  A    between atoms: N_7  and  C_9
REMARK    3  A    between atoms: C_9  and  O_11
REMARK    4  A    between atoms: O_11  and  C_12
REMARK                            x       y       z     vdW  Elec       q    Type
REMARK                         _______ _______ _______ _____ _____    ______ ____
ROOT
ATOM      1  C   UNL     1       1.605   6.345  -6.916  0.00  0.00    +0.241 C 
ATOM      2  S   UNL     1       0.541   5.666  -7.933  0.00  0.00    +0.007 S 
ENDROOT
BRANCH   1   3
ATOM      3  N   UNL     1       1.609   6.081  -5.517  0.00  0.00    -0.251 N 
ATOM      4  C   UNL     1       0.371   5.749  -4.818  0.00  0.00    +0.121 C 
BRANCH   3   8
ATOM      5  C   UNL     1       3.760   8.417  -1.915  0.00  0.00    +0.031 C 
ATOM      6  C   UNL     1       3.969   7.440  -3.030  0.00  0.00    -0.021 A 
ATOM      7  C   UNL     1       3.060   7.337  -4.056  0.00  0.00    +0.011 A 
ATOM      8  C   UNL     1       2.831   6.188  -4.776  0.00  0.00    +0.054 A 
ATOM      9  C   UNL     1       3.493   5.038  -4.370  0.00  0.00    +0.015 A 
ATOM     10  C   UNL     1       4.488   5.127  -3.415  0.00  0.00    +0.001 A 
ATOM     11  C   UNL     1       4.760   6.325  -2.771  0.00  0.00    -0.004 A 
ENDBRANCH   3   8
ENDBRANCH   1   3
BRANCH   1  12
ATOM     12  O   UNL     1       2.718   6.975  -7.473  0.00  0.00    -0.434 OA
BRANCH  12  13
ATOM     13  C   UNL     1       3.456   6.237  -8.403  0.00  0.00    +0.147 A 
ATOM     14  C   UNL     1       3.777   6.757  -9.652  0.00  0.00    +0.038 A 
ATOM     15  C   UNL     1       5.045   6.580 -10.188  0.00  0.00    +0.003 A 
ATOM     16  C   UNL     1       5.965   5.734  -9.581  0.00  0.00    +0.000 A 
ATOM     17  C   UNL     1       7.302   6.099  -9.658  0.00  0.00    +0.000 A 
ATOM     18  C   UNL     1       7.728   7.198 -10.389  0.00  0.00    +0.000 A 
ATOM     19  C   UNL     1       6.818   7.700 -11.309  0.00  0.00    +0.000 A 
ATOM     20  C   UNL     1       5.476   4.937  -8.559  0.00  0.00    +0.003 A 
ATOM     21  C   UNL     1       5.495   7.273 -11.289  0.00  0.00    +0.000 A 
ATOM     22  C   UNL     1       4.220   5.149  -8.001  0.00  0.00    +0.038 A 
ENDBRANCH  12  13
ENDBRANCH   1  12
TORSDOF 4
ENDMDL
MODEL 7
REMARK VINA RESULT:      -8.4      3.255      5.360
REMARK  Name = 
REMARK  4 active torsions:
REMARK  status: ('A' for Active; 'I' for Inactive)
REMARK    1  A    between atoms: C_6  and  N_7
REMARK    2  A    between atoms: N_7  and  C_9
REMARK    3  A    between atoms: C_9  and  O_11
REMARK    4  A    between atoms: O_11  and  C_12
REMARK                            x       y       z     vdW  Elec       q    Type
REMARK                         _______ _______ _______ _____ _____    ______ ____
ROOT
ATOM      1  C   UNL     1       2.423   6.468  -6.907  0.00  0.00    +0.241 C 
ATOM      2  S   UNL     1       2.694   6.187  -8.481  0.00  0.00    +0.007 S 
ENDROOT
BRANCH   1   3
ATOM      3  N   UNL     1       1.660   5.589  -6.088  0.00  0.00    -0.251 N 
ATOM      4  C   UNL     1       1.631   4.155  -6.361  0.00  0.00    +0.121 C 
BRANCH   3   8
ATOM      5  C   UNL     1      -2.594   7.532  -4.999  0.00  0.00    +0.031 C 
ATOM      6  C   UNL     1      -1.232   7.206  -4.470  0.00  0.00    -0.021 A 
ATOM      7  C   UNL     1      -0.190   6.933  -5.324  0.00  0.00    +0.011 A 
ATOM      8  C   UNL     1       0.873   6.118  -5.015  0.00  0.00    +0.054 A 
ATOM      9  C   UNL     1       0.835   5.454  -3.797  0.00  0.00    +0.015 A 
ATOM     10  C   UNL     1      -0.138   5.784  -2.872  0.00  0.00    +0.001 A 
ATOM     11  C   UNL     1      -1.148   6.683  -3.183  0.00  0.00    -0.004 A 
ENDBRANCH   3   8
ENDBRANCH   1   3
BRANCH   1  12
ATOM     12  O   UNL     1       3.200   7.445  -6.283  0.00  0.00    -0.434 OA
BRANCH  12  13
ATOM     13  C   UNL     1       4.101   7.001  -5.309  0.00  0.00    +0.147 A 
ATOM     14  C   UNL     1       4.181   7.611  -4.063  0.00  0.00    +0.038 A 
ATOM     15  C   UNL     1       4.296   6.850  -2.908  0.00  0.00    +0.003 A 
ATOM     16  C   UNL     1       4.515   5.479  -2.976  0.00  0.00    +0.000 A 
ATOM     17  C   UNL     1       3.936   4.699  -1.985  0.00  0.00    +0.000 A 
ATOM     18  C   UNL     1       3.253   5.253  -0.912  0.00  0.00    +0.000 A 
ATOM     19  C   UNL     1       3.472   6.606  -0.690  0.00  0.00    +0.000 A 
ATOM     20  C   UNL     1       4.817   4.973  -4.229  0.00  0.00    +0.003 A 
ATOM     21  C   UNL     1       4.128   7.373  -1.646  0.00  0.00    +0.000 A 
ATOM     22  C   UNL     1       4.659   5.731  -5.384  0.00  0.00    +0.038 A 
ENDBRANCH  12  13
ENDBRANCH   1  12
TORSDOF 4
ENDMDL
MODEL 8
REMARK VINA RESULT:      -8.3      1.441      7.950
REMARK  Name = 
REMARK  4 active torsions:
REMARK  status: ('A' for Active; 'I' for Inactive)
REMARK    1  A    between atoms: C_6  and  N_7
REMARK    2  A    between atoms: N_7  and  C_9
REMARK    3  A    between atoms: C_9  and  O_11
REMARK    4  A    between atoms: O_11  and  C_12
REMARK                            x       y       z     vdW  Elec       q    Type
REMARK                         _______ _______ _______ _____ _____    ______ ____
ROOT
ATOM      1  C   UNL     1       3.617   6.198  -7.867  0.00  0.00    +0.241 C 
ATOM      2  S   UNL     1       4.351   5.685  -6.515  0.00  0.00    +0.007 S 
ENDROOT
BRANCH   1   3
ATOM      3  N   UNL     1       4.057   5.829  -9.169  0.00  0.00    -0.251 N 
ATOM      4  C   UNL     1       3.403   4.746  -9.897  0.00  0.00    +0.121 C 
BRANCH   3   8
ATOM      5  C   UNL     1       8.374   5.113 -11.147  0.00  0.00    +0.031 C 
ATOM      6  C   UNL     1       7.418   6.154 -10.654  0.00  0.00    -0.021 A 
ATOM      7  C   UNL     1       6.380   5.818  -9.817  0.00  0.00    +0.011 A 
ATOM      8  C   UNL     1       5.184   6.492  -9.754  0.00  0.00    +0.054 A 
ATOM      9  C   UNL     1       4.982   7.517 -10.668  0.00  0.00    +0.015 A 
ATOM     10  C   UNL     1       6.036   7.951 -11.449  0.00  0.00    +0.001 A 
ATOM     11  C   UNL     1       7.263   7.304 -11.421  0.00  0.00    -0.004 A 
ENDBRANCH   3   8
ENDBRANCH   1   3
BRANCH   1  12
ATOM     12  O   UNL     1       2.354   6.777  -7.736  0.00  0.00    -0.434 OA
BRANCH  12  13
ATOM     13  C   UNL     1       1.410   6.060  -6.994  0.00  0.00    +0.147 A 
ATOM     14  C   UNL     1       1.058   6.442  -5.705  0.00  0.00    +0.038 A 
ATOM     15  C   UNL     1      -0.269   6.427  -5.298  0.00  0.00    +0.003 A 
ATOM     16  C   UNL     1      -1.254   5.862  -6.101  0.00  0.00    +0.000 A 
ATOM     17  C   UNL     1      -2.510   6.453  -6.065  0.00  0.00    +0.000 A 
ATOM     18  C   UNL     1      -2.813   7.494  -5.199  0.00  0.00    +0.000 A 
ATOM     19  C   UNL     1      -1.929   7.679  -4.145  0.00  0.00    +0.000 A 
ATOM     20  C   UNL     1      -0.807   5.147  -7.199  0.00  0.00    +0.003 A 
ATOM     21  C   UNL     1      -0.704   7.022  -4.136  0.00  0.00    +0.000 A 
ATOM     22  C   UNL     1       0.516   5.202  -7.622  0.00  0.00    +0.038 A 
ENDBRANCH  12  13
ENDBRANCH   1  12
TORSDOF 4
ENDMDL
MODEL 9
REMARK VINA RESULT:      -8.2      2.395      7.583
REMARK  Name = 
REMARK  4 active torsions:
REMARK  status: ('A' for Active; 'I' for Inactive)
REMARK    1  A    between atoms: C_6  and  N_7
REMARK    2  A    between atoms: N_7  and  C_9
REMARK    3  A    between atoms: C_9  and  O_11
REMARK    4  A    between atoms: O_11  and  C_12
REMARK                            x       y       z     vdW  Elec       q    Type
REMARK                         _______ _______ _______ _____ _____    ______ ____
ROOT
ATOM      1  C   UNL     1       2.022   6.328  -6.725  0.00  0.00    +0.241 C 
ATOM      2  S   UNL     1       3.318   6.887  -5.925  0.00  0.00    +0.007 S 
ENDROOT
BRANCH   1   3
ATOM      3  N   UNL     1       2.062   5.156  -7.531  0.00  0.00    -0.251 N 
ATOM      4  C   UNL     1       2.223   3.839  -6.923  0.00  0.00    +0.121 C 
BRANCH   3   8
ATOM      5  C   UNL     1      -0.493   7.016 -11.147  0.00  0.00    +0.031 C 
ATOM      6  C   UNL     1       0.647   6.110 -10.801  0.00  0.00    -0.021 A 
ATOM      7  C   UNL     1       0.789   5.609  -9.529  0.00  0.00    +0.011 A 
ATOM      8  C   UNL     1       1.992   5.270  -8.957  0.00  0.00    +0.054 A 
ATOM      9  C   UNL     1       3.143   5.549  -9.682  0.00  0.00    +0.015 A 
ATOM     10  C   UNL     1       3.036   5.952 -11.000  0.00  0.00    +0.001 A 
ATOM     11  C   UNL     1       1.799   6.196 -11.577  0.00  0.00    -0.004 A 
ENDBRANCH   3   8
ENDBRANCH   1   3
BRANCH   1  12
ATOM     12  O   UNL     1       0.775   6.850  -6.378  0.00  0.00    -0.434 OA
BRANCH  12  13
ATOM     13  C   UNL     1      -0.124   5.970  -5.767  0.00  0.00    +0.147 A 
ATOM     14  C   UNL     1      -0.002   5.621  -4.427  0.00  0.00    +0.038 A 
ATOM     15  C   UNL     1      -1.121   5.554  -3.608  0.00  0.00    +0.003 A 
ATOM     16  C   UNL     1      -2.401   5.654  -4.140  0.00  0.00    +0.000 A 
ATOM     17  C   UNL     1      -3.360   6.281  -3.357  0.00  0.00    +0.000 A 
ATOM     18  C   UNL     1      -3.098   6.703  -2.062  0.00  0.00    +0.000 A 
ATOM     19  C   UNL     1      -1.963   6.165  -1.470  0.00  0.00    +0.000 A 
ATOM     20  C   UNL     1      -2.491   5.610  -5.521  0.00  0.00    +0.003 A 
ATOM     21  C   UNL     1      -1.041   5.463  -2.237  0.00  0.00    +0.000 A 
ATOM     22  C   UNL     1      -1.368   5.720  -6.333  0.00  0.00    +0.038 A 
ENDBRANCH  12  13
ENDBRANCH   1  12
TORSDOF 4
ENDMDL
