MODEL 1
REMARK VINA RESULT:      -3.9      0.000      0.000
REMARK  Name = 
REMARK  3 active torsions:
REMARK  status: ('A' for Active; 'I' for Inactive)
REMARK    1  A    between atoms: C_2  and  C_4
REMARK    2  A    between atoms: C_4  and  C_5
REMARK    3  A    between atoms: C_5  and  C_6
REMARK                            x       y       z     vdW  Elec       q    Type
REMARK                         _______ _______ _______ _____ _____    ______ ____
ROOT
ATOM      1  C   UNL     1       7.564   5.693 -10.700  0.00  0.00    +0.117 C 
ENDROOT
BRANCH   1   3
ATOM      2  O   UNL     1       9.315   5.946 -12.343  0.00  0.00    -0.246 OA
ATOM      3  C   UNL     1       8.237   5.388 -11.996  0.00  0.00    +0.365 C 
ATOM      4  O   UNL     1       7.591   4.674 -13.005  0.00  0.00    -0.246 OA
ENDBRANCH   1   3
BRANCH   1   5
ATOM      5  C   UNL     1       7.522   7.202 -10.511  0.00  0.00    +0.047 C 
BRANCH   5   6
ATOM      6  C   UNL     1       6.442   7.851 -11.335  0.00  0.00    +0.183 C 
ATOM      7  O   UNL     1       5.170   7.655 -10.831  0.00  0.00    -0.220 OA
ENDBRANCH   5   6
ENDBRANCH   1   5
TORSDOF 3
ENDMDL
MODEL 2
REMARK VINA RESULT:      -3.9      1.329      1.690
REMARK  Name = 
REMARK  3 active torsions:
REMARK  status: ('A' for Active; 'I' for Inactive)
REMARK    1  A    between atoms: C_2  and  C_4
REMARK    2  A    between atoms: C_4  and  C_5
REMARK    3  A    between atoms: C_5  and  C_6
REMARK                            x       y       z     vdW  Elec       q    Type
REMARK                         _______ _______ _______ _____ _____    ______ ____
ROOT
ATOM      1  C   UNL     1       7.352   6.818 -11.781  0.00  0.00    +0.117 C 
ENDROOT
BRANCH   1   3
ATOM      2  O   UNL     1       9.511   5.897 -12.342  0.00  0.00    -0.246 OA
ATOM      3  C   UNL     1       8.261   5.741 -12.270  0.00  0.00    +0.365 C 
ATOM      4  O   UNL     1       7.769   4.605 -12.912  0.00  0.00    -0.246 OA
ENDBRANCH   1   3
BRANCH   1   5
ATOM      5  C   UNL     1       7.570   7.007 -10.288  0.00  0.00    +0.047 C 
BRANCH   5   6
ATOM      6  C   UNL     1       7.378   5.729  -9.517  0.00  0.00    +0.183 C 
ATOM      7  O   UNL     1       6.093   5.561  -9.036  0.00  0.00    -0.220 OA
ENDBRANCH   5   6
ENDBRANCH   1   5
TORSDOF 3
ENDMDL
MODEL 3
REMARK VINA RESULT:      -3.6      1.732      3.518
REMARK  Name = 
REMARK  3 active torsions:
REMARK  status: ('A' for Active; 'I' for Inactive)
REMARK    1  A    between atoms: C_2  and  C_4
REMARK    2  A    between atoms: C_4  and  C_5
REMARK    3  A    between atoms: C_5  and  C_6
REMARK                            x       y       z     vdW  Elec       q    Type
REMARK                         _______ _______ _______ _____ _____    ______ ____
ROOT
ATOM      1  C   UNL     1       7.480   6.228  -9.862  0.00  0.00    +0.117 C 
ENDROOT
BRANCH   1   3
ATOM      2  O   UNL     1       5.188   5.868 -10.527  0.00  0.00    -0.246 OA
ATOM      3  C   UNL     1       6.106   5.675  -9.683  0.00  0.00    +0.365 C 
ATOM      4  O   UNL     1       5.688   5.139  -8.466  0.00  0.00    -0.246 OA
ENDBRANCH   1   3
BRANCH   1   5
ATOM      5  C   UNL     1       7.677   6.591 -11.326  0.00  0.00    +0.047 C 
BRANCH   5   6
ATOM      6  C   UNL     1       8.545   5.596 -12.049  0.00  0.00    +0.183 C 
ATOM      7  O   UNL     1       7.828   4.617 -12.712  0.00  0.00    -0.220 OA
ENDBRANCH   5   6
ENDBRANCH   1   5
TORSDOF 3
ENDMDL
MODEL 4
REMARK VINA RESULT:      -3.6      1.748      2.019
REMARK  Name = 
REMARK  3 active torsions:
REMARK  status: ('A' for Active; 'I' for Inactive)
REMARK    1  A    between atoms: C_2  and  C_4
REMARK    2  A    between atoms: C_4  and  C_5
REMARK    3  A    between atoms: C_5  and  C_6
REMARK                            x       y       z     vdW  Elec       q    Type
REMARK                         _______ _______ _______ _____ _____    ______ ____
ROOT
ATOM      1  C   UNL     1       7.045   6.798 -12.262  0.00  0.00    +0.117 C 
ENDROOT
BRANCH   1   3
ATOM      2  O   UNL     1       7.904   4.578 -12.659  0.00  0.00    -0.246 OA
ATOM      3  C   UNL     1       6.933   5.382 -12.717  0.00  0.00    +0.365 C 
ATOM      4  O   UNL     1       5.842   4.937 -13.463  0.00  0.00    -0.246 OA
ENDBRANCH   1   3
BRANCH   1   5
ATOM      5  C   UNL     1       7.131   6.822 -10.744  0.00  0.00    +0.047 C 
BRANCH   5   6
ATOM      6  C   UNL     1       5.982   6.097 -10.095  0.00  0.00    +0.183 C 
ATOM      7  O   UNL     1       6.334   5.431  -8.936  0.00  0.00    -0.220 OA
ENDBRANCH   5   6
ENDBRANCH   1   5
TORSDOF 3
ENDMDL
MODEL 5
REMARK VINA RESULT:      -3.5     10.919     12.200
REMARK  Name = 
REMARK  3 active torsions:
REMARK  status: ('A' for Active; 'I' for Inactive)
REMARK    1  A    between atoms: C_2  and  C_4
REMARK    2  A    between atoms: C_4  and  C_5
REMARK    3  A    between atoms: C_5  and  C_6
REMARK                            x       y       z     vdW  Elec       q    Type
REMARK                         _______ _______ _______ _____ _____    ______ ____
ROOT
ATOM      1  C   UNL     1      -2.268   7.418  -4.655  0.00  0.00    +0.117 C 
ENDROOT
BRANCH   1   3
ATOM      2  O   UNL     1      -0.705   5.708  -5.332  0.00  0.00    -0.246 OA
ATOM      3  C   UNL     1      -1.854   6.218  -5.439  0.00  0.00    +0.365 C 
ATOM      4  O   UNL     1      -2.611   5.750  -6.513  0.00  0.00    -0.246 OA
ENDBRANCH   1   3
BRANCH   1   5
ATOM      5  C   UNL     1      -2.434   7.019  -3.197  0.00  0.00    +0.047 C 
BRANCH   5   6
ATOM      6  C   UNL     1      -3.339   5.828  -3.029  0.00  0.00    +0.183 C 
ATOM      7  O   UNL     1      -2.729   4.754  -2.409  0.00  0.00    -0.220 OA
ENDBRANCH   5   6
ENDBRANCH   1   5
TORSDOF 3
ENDMDL
MODEL 6
REMARK VINA RESULT:      -3.5     11.214     12.783
REMARK  Name = 
REMARK  3 active torsions:
REMARK  status: ('A' for Active; 'I' for Inactive)
REMARK    1  A    between atoms: C_2  and  C_4
REMARK    2  A    between atoms: C_4  and  C_5
REMARK    3  A    between atoms: C_5  and  C_6
REMARK                            x       y       z     vdW  Elec       q    Type
REMARK                         _______ _______ _______ _____ _____    ______ ____
ROOT
ATOM      1  C   UNL     1      -2.011   6.906  -3.685  0.00  0.00    +0.117 C 
ENDROOT
BRANCH   1   3
ATOM      2  O   UNL     1      -4.113   6.501  -2.571  0.00  0.00    -0.246 OA
ATOM      3  C   UNL     1      -3.038   6.037  -3.041  0.00  0.00    +0.365 C 
ATOM      4  O   UNL     1      -2.760   4.717  -2.689  0.00  0.00    -0.246 OA
ENDBRANCH   1   3
BRANCH   1   5
ATOM      5  C   UNL     1      -2.425   7.171  -5.125  0.00  0.00    +0.047 C 
BRANCH   5   6
ATOM      6  C   UNL     1      -2.298   5.946  -5.990  0.00  0.00    +0.183 C 
ATOM      7  O   UNL     1      -1.040   5.373  -5.955  0.00  0.00    -0.220 OA
ENDBRANCH   5   6
ENDBRANCH   1   5
TORSDOF 3
ENDMDL
MODEL 7
REMARK VINA RESULT:      -3.4     10.484     11.958
REMARK  Name = 
REMARK  3 active torsions:
REMARK  status: ('A' for Active; 'I' for Inactive)
REMARK    1  A    between atoms: C_2  and  C_4
REMARK    2  A    between atoms: C_4  and  C_5
REMARK    3  A    between atoms: C_5  and  C_6
REMARK                            x       y       z     vdW  Elec       q    Type
REMARK                         _______ _______ _______ _____ _____    ______ ____
ROOT
ATOM      1  C   UNL     1      -2.292   6.398  -4.309  0.00  0.00    +0.117 C 
ENDROOT
BRANCH   1   3
ATOM      2  O   UNL     1      -2.999   4.686  -2.761  0.00  0.00    -0.246 OA
ATOM      3  C   UNL     1      -2.054   5.331  -3.294  0.00  0.00    +0.365 C 
ATOM      4  O   UNL     1      -0.809   5.163  -2.688  0.00  0.00    -0.246 OA
ENDBRANCH   1   3
BRANCH   1   5
ATOM      5  C   UNL     1      -2.283   5.770  -5.694  0.00  0.00    +0.047 C 
BRANCH   5   6
ATOM      6  C   UNL     1      -0.887   5.564  -6.218  0.00  0.00    +0.183 C 
ATOM      7  O   UNL     1      -0.837   5.333  -7.580  0.00  0.00    -0.220 OA
ENDBRANCH   5   6
ENDBRANCH   1   5
TORSDOF 3
ENDMDL
MODEL 8
REMARK VINA RESULT:      -3.1     13.555     14.415
REMARK  Name = 
REMARK  3 active torsions:
REMARK  status: ('A' for Active; 'I' for Inactive)
REMARK    1  A    between atoms: C_2  and  C_4
REMARK    2  A    between atoms: C_4  and  C_5
REMARK    3  A    between atoms: C_5  and  C_6
REMARK                            x       y       z     vdW  Elec       q    Type
REMARK                         _______ _______ _______ _____ _____    ______ ____
ROOT
ATOM      1  C   UNL     1      -1.274   6.916  -1.455  0.00  0.00    +0.117 C 
ENDROOT
BRANCH   1   3
ATOM      2  O   UNL     1      -1.430   8.745   0.113  0.00  0.00    -0.246 OA
ATOM      3  C   UNL     1      -1.631   7.525  -0.140  0.00  0.00    +0.365 C 
ATOM      4  O   UNL     1      -1.962   6.739   0.963  0.00  0.00    -0.246 OA
ENDBRANCH   1   3
BRANCH   1   5
ATOM      5  C   UNL     1      -2.391   7.199  -2.447  0.00  0.00    +0.047 C 
BRANCH   5   6
ATOM      6  C   UNL     1      -3.313   6.022  -2.620  0.00  0.00    +0.183 C 
ATOM      7  O   UNL     1      -2.687   4.801  -2.453  0.00  0.00    -0.220 OA
ENDBRANCH   5   6
ENDBRANCH   1   5
TORSDOF 3
ENDMDL
MODEL 9
REMARK VINA RESULT:      -3.1     11.050     12.553
REMARK  Name = 
REMARK  3 active torsions:
REMARK  status: ('A' for Active; 'I' for Inactive)
REMARK    1  A    between atoms: C_2  and  C_4
REMARK    2  A    between atoms: C_4  and  C_5
REMARK    3  A    between atoms: C_5  and  C_6
REMARK                            x       y       z     vdW  Elec       q    Type
REMARK                         _______ _______ _______ _____ _____    ______ ____
ROOT
ATOM      1  C   UNL     1      -2.229   6.977  -3.263  0.00  0.00    +0.117 C 
ENDROOT
BRANCH   1   3
ATOM      2  O   UNL     1      -3.496   4.931  -3.451  0.00  0.00    -0.246 OA
ATOM      3  C   UNL     1      -2.610   5.596  -2.846  0.00  0.00    +0.365 C 
ATOM      4  O   UNL     1      -2.203   5.063  -1.624  0.00  0.00    -0.246 OA
ENDBRANCH   1   3
BRANCH   1   5
ATOM      5  C   UNL     1      -1.540   6.909  -4.617  0.00  0.00    +0.047 C 
BRANCH   5   6
ATOM      6  C   UNL     1      -0.327   6.018  -4.597  0.00  0.00    +0.183 C 
ATOM      7  O   UNL     1       0.773   6.596  -3.989  0.00  0.00    -0.220 OA
ENDBRANCH   5   6
ENDBRANCH   1   5
TORSDOF 3
ENDMDL
