MODEL 1
REMARK VINA RESULT:      -7.6      0.000      0.000
REMARK  Name = 
REMARK  6 active torsions:
REMARK  status: ('A' for Active; 'I' for Inactive)
REMARK    1  A    between atoms: C_4  and  C_5
REMARK    2  A    between atoms: C_8  and  O_9
REMARK    3  A    between atoms: O_9  and  C_10
REMARK    4  A    between atoms: C_10  and  C_11
REMARK    5  A    between atoms: C_14  and  C_15
REMARK    6  A    between atoms: C_19  and  C_20
REMARK                            x       y       z     vdW  Elec       q    Type
REMARK                         _______ _______ _______ _____ _____    ______ ____
ROOT
ATOM      1  C   UNL     1       1.991   6.309  -6.885  0.00  0.00    +0.025 A 
ATOM      2  C   UNL     1       1.528   6.494  -8.183  0.00  0.00    +0.015 A 
ATOM      3  C   UNL     1       2.395   6.420  -9.266  0.00  0.00    +0.102 A 
ATOM      4  C   UNL     1       3.746   6.280  -8.977  0.00  0.00    +0.148 A 
ATOM      5  C   UNL     1       4.192   5.775  -7.763  0.00  0.00    +0.038 A 
ATOM      6  C   UNL     1       3.215   5.659  -6.781  0.00  0.00    +0.005 A 
ENDROOT
BRANCH   1  11
ATOM      7  C   UNL     1      -1.866   7.920  -4.379  0.00  0.00    +0.053 C 
ATOM      8  C   UNL     1      -0.733   6.960  -4.585  0.00  0.00    +0.072 A 
ATOM      9  C   UNL     1      -0.468   5.925  -3.695  0.00  0.00    +0.124 A 
ATOM     10  S   UNL     1       1.044   5.386  -4.311  0.00  0.00    -0.060 S 
ATOM     11  C   UNL     1       1.074   6.346  -5.737  0.00  0.00    +0.111 A 
ATOM     12  N   UNL     1      -0.232   6.710  -5.791  0.00  0.00    -0.242 NA
BRANCH   9  13
ATOM     13  C   UNL     1      -1.327   5.390  -2.636  0.00  0.00    +0.395 C 
ATOM     14  O   UNL     1      -2.567   4.819  -2.905  0.00  0.00    -0.240 OA
ATOM     15  O   UNL     1      -0.819   5.104  -1.512  0.00  0.00    -0.240 OA
ENDBRANCH   9  13
ENDBRANCH   1  11
BRANCH   3  16
ATOM     16  C   UNL     1       1.904   6.321 -10.622  0.00  0.00    +0.103 C 
ATOM     17  N   UNL     1       1.808   6.160 -11.776  0.00  0.00    -0.191 NA
ENDBRANCH   3  16
BRANCH   4  18
ATOM     18  O   UNL     1       4.634   6.772  -9.939  0.00  0.00    -0.475 OA
BRANCH  18  19
ATOM     19  C   UNL     1       5.706   5.939 -10.347  0.00  0.00    +0.205 C 
BRANCH  19  20
ATOM     20  C   UNL     1       6.886   6.867 -10.604  0.00  0.00    +0.044 C 
ATOM     21  C   UNL     1       6.438   8.086 -11.374  0.00  0.00    +0.004 C 
ATOM     22  C   UNL     1       7.959   6.117 -11.352  0.00  0.00    +0.004 C 
ENDBRANCH  19  20
ENDBRANCH  18  19
ENDBRANCH   4  18
TORSDOF 6
ENDMDL
MODEL 2
REMARK VINA RESULT:      -7.6      2.985      8.588
REMARK  Name = 
REMARK  6 active torsions:
REMARK  status: ('A' for Active; 'I' for Inactive)
REMARK    1  A    between atoms: C_4  and  C_5
REMARK    2  A    between atoms: C_8  and  O_9
REMARK    3  A    between atoms: O_9  and  C_10
REMARK    4  A    between atoms: C_10  and  C_11
REMARK    5  A    between atoms: C_14  and  C_15
REMARK    6  A    between atoms: C_19  and  C_20
REMARK                            x       y       z     vdW  Elec       q    Type
REMARK                         _______ _______ _______ _____ _____    ______ ____
ROOT
ATOM      1  C   UNL     1       3.581   5.568  -8.175  0.00  0.00    +0.025 A 
ATOM      2  C   UNL     1       3.985   5.849  -6.875  0.00  0.00    +0.015 A 
ATOM      3  C   UNL     1       3.122   5.654  -5.803  0.00  0.00    +0.102 A 
ATOM      4  C   UNL     1       1.817   5.293  -6.108  0.00  0.00    +0.148 A 
ATOM      5  C   UNL     1       1.480   4.701  -7.319  0.00  0.00    +0.038 A 
ATOM      6  C   UNL     1       2.480   4.727  -8.284  0.00  0.00    +0.005 A 
ENDROOT
BRANCH   1  11
ATOM      7  C   UNL     1       7.763   6.887 -10.302  0.00  0.00    +0.053 C 
ATOM      8  C   UNL     1       6.424   6.214 -10.328  0.00  0.00    +0.072 A 
ATOM      9  C   UNL     1       5.926   5.597 -11.472  0.00  0.00    +0.124 A 
ATOM     10  S   UNL     1       4.318   5.277 -10.959  0.00  0.00    -0.060 S 
ATOM     11  C   UNL     1       4.499   5.732  -9.310  0.00  0.00    +0.111 A 
ATOM     12  N   UNL     1       5.853   5.735  -9.226  0.00  0.00    -0.242 NA
BRANCH   9  13
ATOM     13  C   UNL     1       6.645   5.221 -12.691  0.00  0.00    +0.395 C 
ATOM     14  O   UNL     1       7.868   4.556 -12.656  0.00  0.00    -0.240 OA
ATOM     15  O   UNL     1       6.016   5.163 -13.787  0.00  0.00    -0.240 OA
ENDBRANCH   9  13
ENDBRANCH   1  11
BRANCH   3  16
ATOM     16  C   UNL     1       3.599   5.660  -4.438  0.00  0.00    +0.103 C 
ATOM     17  N   UNL     1       3.862   5.373  -3.337  0.00  0.00    -0.191 NA
ENDBRANCH   3  16
BRANCH   4  18
ATOM     18  O   UNL     1       0.845   5.652  -5.170  0.00  0.00    -0.475 OA
BRANCH  18  19
ATOM     19  C   UNL     1       0.058   6.802  -5.430  0.00  0.00    +0.205 C 
BRANCH  19  20
ATOM     20  C   UNL     1      -1.385   6.394  -5.163  0.00  0.00    +0.044 C 
ATOM     21  C   UNL     1      -1.968   5.702  -6.372  0.00  0.00    +0.004 C 
ATOM     22  C   UNL     1      -2.191   7.613  -4.795  0.00  0.00    +0.004 C 
ENDBRANCH  19  20
ENDBRANCH  18  19
ENDBRANCH   4  18
TORSDOF 6
ENDMDL
MODEL 3
REMARK VINA RESULT:      -7.1      3.315      8.491
REMARK  Name = 
REMARK  6 active torsions:
REMARK  status: ('A' for Active; 'I' for Inactive)
REMARK    1  A    between atoms: C_4  and  C_5
REMARK    2  A    between atoms: C_8  and  O_9
REMARK    3  A    between atoms: O_9  and  C_10
REMARK    4  A    between atoms: C_10  and  C_11
REMARK    5  A    between atoms: C_14  and  C_15
REMARK    6  A    between atoms: C_19  and  C_20
REMARK                            x       y       z     vdW  Elec       q    Type
REMARK                         _______ _______ _______ _____ _____    ______ ____
ROOT
ATOM      1  C   UNL     1       1.055   6.408  -9.091  0.00  0.00    +0.025 A 
ATOM      2  C   UNL     1       2.006   6.886  -8.198  0.00  0.00    +0.015 A 
ATOM      3  C   UNL     1       1.781   6.844  -6.827  0.00  0.00    +0.102 A 
ATOM      4  C   UNL     1       0.524   6.425  -6.412  0.00  0.00    +0.148 A 
ATOM      5  C   UNL     1      -0.300   5.654  -7.222  0.00  0.00    +0.038 A 
ATOM      6  C   UNL     1       0.110   5.546  -8.545  0.00  0.00    +0.005 A 
ENDROOT
BRANCH   1  11
ATOM      7  C   UNL     1       3.714   5.671 -13.109  0.00  0.00    +0.053 C 
ATOM      8  C   UNL     1       2.421   5.998 -12.423  0.00  0.00    +0.072 A 
ATOM      9  C   UNL     1       1.260   6.290 -13.130  0.00  0.00    +0.124 A 
ATOM     10  S   UNL     1       0.255   6.823 -11.842  0.00  0.00    -0.060 S 
ATOM     11  C   UNL     1       1.301   6.411 -10.540  0.00  0.00    +0.111 A 
ATOM     12  N   UNL     1       2.151   5.578 -11.190  0.00  0.00    -0.242 NA
BRANCH   9  13
ATOM     13  C   UNL     1       0.973   6.060 -14.548  0.00  0.00    +0.395 C 
ATOM     14  O   UNL     1       1.488   6.876 -15.551  0.00  0.00    -0.240 OA
ATOM     15  O   UNL     1       0.557   4.923 -14.918  0.00  0.00    -0.240 OA
ENDBRANCH   9  13
ENDBRANCH   1  11
BRANCH   3  16
ATOM     16  C   UNL     1       2.850   7.061  -5.878  0.00  0.00    +0.103 C 
ATOM     17  N   UNL     1       3.845   7.385  -5.359  0.00  0.00    -0.191 NA
ENDBRANCH   3  16
BRANCH   4  18
ATOM     18  O   UNL     1       0.093   6.909  -5.174  0.00  0.00    -0.475 OA
BRANCH  18  19
ATOM     19  C   UNL     1      -0.744   6.079  -4.386  0.00  0.00    +0.205 C 
BRANCH  19  20
ATOM     20  C   UNL     1      -1.715   7.012  -3.675  0.00  0.00    +0.044 C 
ATOM     21  C   UNL     1      -3.033   6.315  -3.435  0.00  0.00    +0.004 C 
ATOM     22  C   UNL     1      -1.904   8.260  -4.499  0.00  0.00    +0.004 C 
ENDBRANCH  19  20
ENDBRANCH  18  19
ENDBRANCH   4  18
TORSDOF 6
ENDMDL
MODEL 4
REMARK VINA RESULT:      -7.1      3.183      4.463
REMARK  Name = 
REMARK  6 active torsions:
REMARK  status: ('A' for Active; 'I' for Inactive)
REMARK    1  A    between atoms: C_4  and  C_5
REMARK    2  A    between atoms: C_8  and  O_9
REMARK    3  A    between atoms: O_9  and  C_10
REMARK    4  A    between atoms: C_10  and  C_11
REMARK    5  A    between atoms: C_14  and  C_15
REMARK    6  A    between atoms: C_19  and  C_20
REMARK                            x       y       z     vdW  Elec       q    Type
REMARK                         _______ _______ _______ _____ _____    ______ ____
ROOT
ATOM      1  C   UNL     1       3.352   6.363  -6.510  0.00  0.00    +0.025 A 
ATOM      2  C   UNL     1       4.236   5.799  -7.423  0.00  0.00    +0.015 A 
ATOM      3  C   UNL     1       3.991   5.870  -8.789  0.00  0.00    +0.102 A 
ATOM      4  C   UNL     1       2.775   6.413  -9.179  0.00  0.00    +0.148 A 
ATOM      5  C   UNL     1       2.045   7.257  -8.352  0.00  0.00    +0.038 A 
ATOM      6  C   UNL     1       2.487   7.316  -7.036  0.00  0.00    +0.005 A 
ENDROOT
BRANCH   1  11
ATOM      7  C   UNL     1       3.925   8.327  -2.087  0.00  0.00    +0.053 C 
ATOM      8  C   UNL     1       3.791   7.145  -2.999  0.00  0.00    +0.072 A 
ATOM      9  C   UNL     1       3.853   5.837  -2.530  0.00  0.00    +0.124 A 
ATOM     10  S   UNL     1       3.910   4.990  -4.024  0.00  0.00    -0.060 S 
ATOM     11  C   UNL     1       3.622   6.328  -5.066  0.00  0.00    +0.111 A 
ATOM     12  N   UNL     1       3.148   7.219  -4.160  0.00  0.00    -0.242 NA
BRANCH   9  13
ATOM     13  C   UNL     1       3.751   5.356  -1.150  0.00  0.00    +0.395 C 
ATOM     14  O   UNL     1       2.606   5.546  -0.381  0.00  0.00    -0.240 OA
ATOM     15  O   UNL     1       4.544   4.456  -0.749  0.00  0.00    -0.240 OA
ENDBRANCH   9  13
ENDBRANCH   1  11
BRANCH   3  16
ATOM     16  C   UNL     1       5.017   5.554  -9.757  0.00  0.00    +0.103 C 
ATOM     17  N   UNL     1       5.903   5.610 -10.518  0.00  0.00    -0.191 NA
ENDBRANCH   3  16
BRANCH   4  18
ATOM     18  O   UNL     1       2.277   5.981 -10.412  0.00  0.00    -0.475 OA
BRANCH  18  19
ATOM     19  C   UNL     1       1.177   5.086 -10.411  0.00  0.00    +0.205 C 
BRANCH  19  20
ATOM     20  C   UNL     1       0.268   5.534 -11.548  0.00  0.00    +0.044 C 
ATOM     21  C   UNL     1       1.002   5.468 -12.866  0.00  0.00    +0.004 C 
ATOM     22  C   UNL     1      -0.226   6.931 -11.272  0.00  0.00    +0.004 C 
ENDBRANCH  19  20
ENDBRANCH  18  19
ENDBRANCH   4  18
TORSDOF 6
ENDMDL
MODEL 5
REMARK VINA RESULT:      -7.0      2.565      8.235
REMARK  Name = 
REMARK  6 active torsions:
REMARK  status: ('A' for Active; 'I' for Inactive)
REMARK    1  A    between atoms: C_4  and  C_5
REMARK    2  A    between atoms: C_8  and  O_9
REMARK    3  A    between atoms: O_9  and  C_10
REMARK    4  A    between atoms: C_10  and  C_11
REMARK    5  A    between atoms: C_14  and  C_15
REMARK    6  A    between atoms: C_19  and  C_20
REMARK                            x       y       z     vdW  Elec       q    Type
REMARK                         _______ _______ _______ _____ _____    ______ ____
ROOT
ATOM      1  C   UNL     1       3.099   5.630  -7.360  0.00  0.00    +0.025 A 
ATOM      2  C   UNL     1       3.499   6.496  -6.350  0.00  0.00    +0.015 A 
ATOM      3  C   UNL     1       2.821   6.538  -5.137  0.00  0.00    +0.102 A 
ATOM      4  C   UNL     1       1.666   5.774  -5.040  0.00  0.00    +0.148 A 
ATOM      5  C   UNL     1       1.431   4.685  -5.869  0.00  0.00    +0.038 A 
ATOM      6  C   UNL     1       2.298   4.571  -6.950  0.00  0.00    +0.005 A 
ENDROOT
BRANCH   1  11
ATOM      7  C   UNL     1       3.546   5.824 -12.210  0.00  0.00    +0.053 C 
ATOM      8  C   UNL     1       4.132   5.729 -10.833  0.00  0.00    +0.072 A 
ATOM      9  C   UNL     1       5.501   5.611 -10.616  0.00  0.00    +0.124 A 
ATOM     10  S   UNL     1       5.506   5.281  -8.930  0.00  0.00    -0.060 S 
ATOM     11  C   UNL     1       3.834   5.550  -8.631  0.00  0.00    +0.111 A 
ATOM     12  N   UNL     1       3.508   6.218  -9.766  0.00  0.00    -0.242 NA
BRANCH   9  13
ATOM     13  C   UNL     1       6.597   5.850 -11.558  0.00  0.00    +0.395 C 
ATOM     14  O   UNL     1       7.482   6.914 -11.412  0.00  0.00    -0.240 OA
ATOM     15  O   UNL     1       6.985   4.906 -12.307  0.00  0.00    -0.240 OA
ENDBRANCH   9  13
ENDBRANCH   1  11
BRANCH   3  16
ATOM     16  C   UNL     1       3.378   7.205  -3.982  0.00  0.00    +0.103 C 
ATOM     17  N   UNL     1       3.544   7.884  -3.046  0.00  0.00    -0.191 NA
ENDBRANCH   3  16
BRANCH   4  18
ATOM     18  O   UNL     1       0.707   6.224  -4.128  0.00  0.00    -0.475 OA
BRANCH  18  19
ATOM     19  C   UNL     1      -0.625   5.763  -4.277  0.00  0.00    +0.205 C 
BRANCH  19  20
ATOM     20  C   UNL     1      -1.296   6.723  -5.250  0.00  0.00    +0.044 C 
ATOM     21  C   UNL     1      -1.921   7.878  -4.504  0.00  0.00    +0.004 C 
ATOM     22  C   UNL     1      -2.328   5.979  -6.057  0.00  0.00    +0.004 C 
ENDBRANCH  19  20
ENDBRANCH  18  19
ENDBRANCH   4  18
TORSDOF 6
ENDMDL
MODEL 6
REMARK VINA RESULT:      -6.8      3.740      7.539
REMARK  Name = 
REMARK  6 active torsions:
REMARK  status: ('A' for Active; 'I' for Inactive)
REMARK    1  A    between atoms: C_4  and  C_5
REMARK    2  A    between atoms: C_8  and  O_9
REMARK    3  A    between atoms: O_9  and  C_10
REMARK    4  A    between atoms: C_10  and  C_11
REMARK    5  A    between atoms: C_14  and  C_15
REMARK    6  A    between atoms: C_19  and  C_20
REMARK                            x       y       z     vdW  Elec       q    Type
REMARK                         _______ _______ _______ _____ _____    ______ ____
ROOT
ATOM      1  C   UNL     1       0.708   5.970  -8.615  0.00  0.00    +0.025 A 
ATOM      2  C   UNL     1      -0.327   5.582  -7.772  0.00  0.00    +0.015 A 
ATOM      3  C   UNL     1      -0.248   5.795  -6.401  0.00  0.00    +0.102 A 
ATOM      4  C   UNL     1       0.954   6.292  -5.914  0.00  0.00    +0.148 A 
ATOM      5  C   UNL     1       1.849   6.979  -6.724  0.00  0.00    +0.038 A 
ATOM      6  C   UNL     1       1.580   6.914  -8.086  0.00  0.00    +0.005 A 
ENDROOT
BRANCH   1  11
ATOM      7  C   UNL     1       0.556   7.477 -13.247  0.00  0.00    +0.053 C 
ATOM      8  C   UNL     1       0.648   6.395 -12.214  0.00  0.00    +0.072 A 
ATOM      9  C   UNL     1       0.719   5.048 -12.555  0.00  0.00    +0.124 A 
ATOM     10  S   UNL     1       0.532   4.340 -11.000  0.00  0.00    -0.060 S 
ATOM     11  C   UNL     1       0.615   5.784 -10.070  0.00  0.00    +0.111 A 
ATOM     12  N   UNL     1       1.142   6.620 -11.000  0.00  0.00    -0.242 NA
BRANCH   9  13
ATOM     13  C   UNL     1       1.013   4.452 -13.860  0.00  0.00    +0.395 C 
ATOM     14  O   UNL     1       0.008   4.073 -14.745  0.00  0.00    -0.240 OA
ATOM     15  O   UNL     1       2.166   4.599 -14.361  0.00  0.00    -0.240 OA
ENDBRANCH   9  13
ENDBRANCH   1  11
BRANCH   3  16
ATOM     16  C   UNL     1      -1.408   5.670  -5.548  0.00  0.00    +0.103 C 
ATOM     17  N   UNL     1      -2.183   5.773  -4.679  0.00  0.00    -0.191 NA
ENDBRANCH   3  16
BRANCH   4  18
ATOM     18  O   UNL     1       1.257   5.973  -4.587  0.00  0.00    -0.475 OA
BRANCH  18  19
ATOM     19  C   UNL     1       2.406   6.565  -4.004  0.00  0.00    +0.205 C 
BRANCH  19  20
ATOM     20  C   UNL     1       3.217   5.418  -3.414  0.00  0.00    +0.044 C 
ATOM     21  C   UNL     1       4.067   5.911  -2.268  0.00  0.00    +0.004 C 
ATOM     22  C   UNL     1       4.068   4.799  -4.493  0.00  0.00    +0.004 C 
ENDBRANCH  19  20
ENDBRANCH  18  19
ENDBRANCH   4  18
TORSDOF 6
ENDMDL
MODEL 7
REMARK VINA RESULT:      -6.8      3.414      7.632
REMARK  Name = 
REMARK  6 active torsions:
REMARK  status: ('A' for Active; 'I' for Inactive)
REMARK    1  A    between atoms: C_4  and  C_5
REMARK    2  A    between atoms: C_8  and  O_9
REMARK    3  A    between atoms: O_9  and  C_10
REMARK    4  A    between atoms: C_10  and  C_11
REMARK    5  A    between atoms: C_14  and  C_15
REMARK    6  A    between atoms: C_19  and  C_20
REMARK                            x       y       z     vdW  Elec       q    Type
REMARK                         _______ _______ _______ _____ _____    ______ ____
ROOT
ATOM      1  C   UNL     1       1.383   6.269  -8.956  0.00  0.00    +0.025 A 
ATOM      2  C   UNL     1       0.287   5.779  -8.255  0.00  0.00    +0.015 A 
ATOM      3  C   UNL     1       0.185   5.953  -6.880  0.00  0.00    +0.102 A 
ATOM      4  C   UNL     1       1.278   6.520  -6.238  0.00  0.00    +0.148 A 
ATOM      5  C   UNL     1       2.209   7.297  -6.916  0.00  0.00    +0.038 A 
ATOM      6  C   UNL     1       2.110   7.257  -8.302  0.00  0.00    +0.005 A 
ENDROOT
BRANCH   1  11
ATOM      7  C   UNL     1       3.756   5.806 -13.188  0.00  0.00    +0.053 C 
ATOM      8  C   UNL     1       2.497   5.804 -12.373  0.00  0.00    +0.072 A 
ATOM      9  C   UNL     1       1.246   5.593 -12.943  0.00  0.00    +0.124 A 
ATOM     10  S   UNL     1       0.242   5.970 -11.599  0.00  0.00    -0.060 S 
ATOM     11  C   UNL     1       1.480   6.125 -10.415  0.00  0.00    +0.111 A 
ATOM     12  N   UNL     1       2.498   5.518 -11.075  0.00  0.00    -0.242 NA
BRANCH   9  13
ATOM     13  C   UNL     1       0.925   5.064 -14.271  0.00  0.00    +0.395 C 
ATOM     14  O   UNL     1       0.409   3.785 -14.454  0.00  0.00    -0.240 OA
ATOM     15  O   UNL     1       0.768   5.868 -15.235  0.00  0.00    -0.240 OA
ENDBRANCH   9  13
ENDBRANCH   1  11
BRANCH   3  16
ATOM     16  C   UNL     1      -1.056   5.715  -6.178  0.00  0.00    +0.103 C 
ATOM     17  N   UNL     1      -2.174   5.513  -5.906  0.00  0.00    -0.191 NA
ENDBRANCH   3  16
BRANCH   4  18
ATOM     18  O   UNL     1       1.444   6.181  -4.893  0.00  0.00    -0.475 OA
BRANCH  18  19
ATOM     19  C   UNL     1       2.633   6.594  -4.241  0.00  0.00    +0.205 C 
BRANCH  19  20
ATOM     20  C   UNL     1       3.359   5.317  -3.837  0.00  0.00    +0.044 C 
ATOM     21  C   UNL     1       3.813   5.402  -2.400  0.00  0.00    +0.004 C 
ATOM     22  C   UNL     1       4.526   5.090  -4.763  0.00  0.00    +0.004 C 
ENDBRANCH  19  20
ENDBRANCH  18  19
ENDBRANCH   4  18
TORSDOF 6
ENDMDL
MODEL 8
REMARK VINA RESULT:      -6.7      1.860      2.573
REMARK  Name = 
REMARK  6 active torsions:
REMARK  status: ('A' for Active; 'I' for Inactive)
REMARK    1  A    between atoms: C_4  and  C_5
REMARK    2  A    between atoms: C_8  and  O_9
REMARK    3  A    between atoms: O_9  and  C_10
REMARK    4  A    between atoms: C_10  and  C_11
REMARK    5  A    between atoms: C_14  and  C_15
REMARK    6  A    between atoms: C_19  and  C_20
REMARK                            x       y       z     vdW  Elec       q    Type
REMARK                         _______ _______ _______ _____ _____    ______ ____
ROOT
ATOM      1  C   UNL     1       2.886   6.176  -9.062  0.00  0.00    +0.025 A 
ATOM      2  C   UNL     1       2.452   6.137 -10.382  0.00  0.00    +0.015 A 
ATOM      3  C   UNL     1       3.362   6.072 -11.430  0.00  0.00    +0.102 A 
ATOM      4  C   UNL     1       4.707   6.175 -11.098  0.00  0.00    +0.148 A 
ATOM      5  C   UNL     1       5.175   5.888  -9.822  0.00  0.00    +0.038 A 
ATOM      6  C   UNL     1       4.189   5.738  -8.854  0.00  0.00    +0.005 A 
ENDROOT
BRANCH   1  11
ATOM      7  C   UNL     1      -1.388   5.275  -6.900  0.00  0.00    +0.053 C 
ATOM      8  C   UNL     1       0.040   5.730  -6.863  0.00  0.00    +0.072 A 
ATOM      9  C   UNL     1       0.642   6.188  -5.695  0.00  0.00    +0.124 A 
ATOM     10  S   UNL     1       2.118   6.789  -6.340  0.00  0.00    -0.060 S 
ATOM     11  C   UNL     1       1.930   6.204  -7.946  0.00  0.00    +0.111 A 
ATOM     12  N   UNL     1       0.940   5.299  -7.741  0.00  0.00    -0.242 NA
BRANCH   9  13
ATOM     13  C   UNL     1       0.176   6.048  -4.313  0.00  0.00    +0.395 C 
ATOM     14  O   UNL     1       0.891   5.329  -3.359  0.00  0.00    -0.240 OA
ATOM     15  O   UNL     1      -0.682   6.863  -3.864  0.00  0.00    -0.240 OA
ENDBRANCH   9  13
ENDBRANCH   1  11
BRANCH   3  16
ATOM     16  C   UNL     1       2.945   5.743 -12.774  0.00  0.00    +0.103 C 
ATOM     17  N   UNL     1       2.389   5.309 -13.706  0.00  0.00    -0.191 NA
ENDBRANCH   3  16
BRANCH   4  18
ATOM     18  O   UNL     1       5.547   6.683 -12.092  0.00  0.00    -0.475 OA
BRANCH  18  19
ATOM     19  C   UNL     1       6.856   7.084 -11.721  0.00  0.00    +0.205 C 
BRANCH  19  20
ATOM     20  C   UNL     1       7.795   6.447 -12.737  0.00  0.00    +0.044 C 
ATOM     21  C   UNL     1       7.021   5.572 -13.694  0.00  0.00    +0.004 C 
ATOM     22  C   UNL     1       8.853   5.655 -12.013  0.00  0.00    +0.004 C 
ENDBRANCH  19  20
ENDBRANCH  18  19
ENDBRANCH   4  18
TORSDOF 6
ENDMDL
MODEL 9
REMARK VINA RESULT:      -6.6      2.153      8.435
REMARK  Name = 
REMARK  6 active torsions:
REMARK  status: ('A' for Active; 'I' for Inactive)
REMARK    1  A    between atoms: C_4  and  C_5
REMARK    2  A    between atoms: C_8  and  O_9
REMARK    3  A    between atoms: O_9  and  C_10
REMARK    4  A    between atoms: C_10  and  C_11
REMARK    5  A    between atoms: C_14  and  C_15
REMARK    6  A    between atoms: C_19  and  C_20
REMARK                            x       y       z     vdW  Elec       q    Type
REMARK                         _______ _______ _______ _____ _____    ______ ____
ROOT
ATOM      1  C   UNL     1       0.713   5.796  -7.490  0.00  0.00    +0.025 A 
ATOM      2  C   UNL     1       1.051   5.793  -6.142  0.00  0.00    +0.015 A 
ATOM      3  C   UNL     1       0.072   5.696  -5.161  0.00  0.00    +0.102 A 
ATOM      4  C   UNL     1      -1.248   5.731  -5.590  0.00  0.00    +0.148 A 
ATOM      5  C   UNL     1      -1.609   5.407  -6.892  0.00  0.00    +0.038 A 
ATOM      6  C   UNL     1      -0.549   5.294  -7.784  0.00  0.00    +0.005 A 
ENDROOT
BRANCH   1  11
ATOM      7  C   UNL     1       2.326   6.260 -12.066  0.00  0.00    +0.053 C 
ATOM      8  C   UNL     1       2.557   6.170 -10.587  0.00  0.00    +0.072 A 
ATOM      9  C   UNL     1       3.833   6.200 -10.034  0.00  0.00    +0.124 A 
ATOM     10  S   UNL     1       3.458   5.797  -8.406  0.00  0.00    -0.060 S 
ATOM     11  C   UNL     1       1.745   5.859  -8.535  0.00  0.00    +0.111 A 
ATOM     12  N   UNL     1       1.632   6.536  -9.705  0.00  0.00    -0.242 NA
BRANCH   9  13
ATOM     13  C   UNL     1       5.092   6.605 -10.664  0.00  0.00    +0.395 C 
ATOM     14  O   UNL     1       5.862   5.722 -11.416  0.00  0.00    -0.240 OA
ATOM     15  O   UNL     1       5.325   7.835 -10.846  0.00  0.00    -0.240 OA
ENDBRANCH   9  13
ENDBRANCH   1  11
BRANCH   3  16
ATOM     16  C   UNL     1       0.406   5.403  -3.786  0.00  0.00    +0.103 C 
ATOM     17  N   UNL     1       0.970   5.209  -2.781  0.00  0.00    -0.191 NA
ENDBRANCH   3  16
BRANCH   4  18
ATOM     18  O   UNL     1      -2.182   6.208  -4.666  0.00  0.00    -0.475 OA
BRANCH  18  19
ATOM     19  C   UNL     1      -1.880   7.405  -3.969  0.00  0.00    +0.205 C 
BRANCH  19  20
ATOM     20  C   UNL     1      -2.623   7.319  -2.642  0.00  0.00    +0.044 C 
ATOM     21  C   UNL     1      -1.673   7.553  -1.491  0.00  0.00    +0.004 C 
ATOM     22  C   UNL     1      -3.291   5.973  -2.528  0.00  0.00    +0.004 C 
ENDBRANCH  19  20
ENDBRANCH  18  19
ENDBRANCH   4  18
TORSDOF 6
ENDMDL
