MODEL 1
REMARK VINA RESULT:      -7.3      0.000      0.000
REMARK  Name = 
REMARK  6 active torsions:
REMARK  status: ('A' for Active; 'I' for Inactive)
REMARK    1  A    between atoms: C_2  and  N_5
REMARK    2  A    between atoms: N_5  and  C_6
REMARK    3  A    between atoms: C_6  and  C_7
REMARK    4  A    between atoms: C_7  and  C_9
REMARK    5  A    between atoms: C_9  and  O_10
REMARK    6  A    between atoms: O_10  and  C_11
REMARK                            x       y       z     vdW  Elec       q    Type
REMARK                         _______ _______ _______ _____ _____    ______ ____
ROOT
ATOM      1  C   UNL     1       3.674   6.382  -9.592  0.00  0.00    +0.135 A 
ATOM      2  C   UNL     1       4.945   6.388 -10.099  0.00  0.00    +0.015 A 
ATOM      3  C   UNL     1       5.252   7.197 -11.317  0.00  0.00    +0.030 C 
ATOM      4  C   UNL     1       6.620   7.814 -11.053  0.00  0.00    +0.013 C 
ATOM      5  C   UNL     1       7.637   6.682 -11.092  0.00  0.00    +0.069 C 
ATOM      6  C   UNL     1       7.288   5.697 -10.049  0.00  0.00    +0.173 C 
ATOM      7  O   UNL     1       8.204   5.059  -9.488  0.00  0.00    -0.291 OA
ATOM      8  C   UNL     1       5.940   5.628  -9.504  0.00  0.00    +0.034 A 
ATOM      9  C   UNL     1       5.667   5.156  -8.240  0.00  0.00    +0.003 A 
ATOM     10  C   UNL     1       4.535   5.572  -7.551  0.00  0.00    +0.003 A 
ATOM     11  C   UNL     1       3.529   6.243  -8.218  0.00  0.00    +0.037 A 
ENDROOT
BRANCH   1  12
ATOM     12  O   UNL     1       2.583   6.647 -10.415  0.00  0.00    -0.473 OA
BRANCH  12  13
ATOM     13  C   UNL     1       1.757   5.564 -10.801  0.00  0.00    +0.239 C 
BRANCH  13  14
ATOM     14  C   UNL     1       0.270   6.139 -10.372  0.00  0.00    +0.213 C 
ATOM     15  O   UNL     1      -0.440   5.146 -11.281  0.00  0.00    -0.218 OA
BRANCH  14  16
ATOM     16  C   UNL     1       0.176   5.121  -9.074  0.00  0.00    +0.125 C 
BRANCH  16  17
ATOM     17  N   UNL     1      -0.582   5.914  -8.129  0.00  0.00    -0.218 NA
BRANCH  17  19
ATOM     18  C   UNL     1      -1.049   5.003  -7.000  0.00  0.00    +0.017 C 
ATOM     19  C   UNL     1      -0.977   5.193  -6.950  0.00  0.00    +0.060 C 
ATOM     20  C   UNL     1      -2.197   5.827  -6.350  0.00  0.00    +0.017 C 
ATOM     21  C   UNL     1       0.171   5.075  -5.989  0.00  0.00    +0.017 C 
ENDBRANCH  17  19
ENDBRANCH  16  17
ENDBRANCH  14  16
ENDBRANCH  13  14
ENDBRANCH  12  13
ENDBRANCH   1  12
TORSDOF 6
ENDMDL
MODEL 2
REMARK VINA RESULT:      -7.3      2.710      6.534
REMARK  Name = 
REMARK  6 active torsions:
REMARK  status: ('A' for Active; 'I' for Inactive)
REMARK    1  A    between atoms: C_2  and  N_5
REMARK    2  A    between atoms: N_5  and  C_6
REMARK    3  A    between atoms: C_6  and  C_7
REMARK    4  A    between atoms: C_7  and  C_9
REMARK    5  A    between atoms: C_9  and  O_10
REMARK    6  A    between atoms: O_10  and  C_11
REMARK                            x       y       z     vdW  Elec       q    Type
REMARK                         _______ _______ _______ _____ _____    ______ ____
ROOT
ATOM      1  C   UNL     1       1.130   4.994  -6.554  0.00  0.00    +0.135 A 
ATOM      2  C   UNL     1      -0.042   5.655  -6.305  0.00  0.00    +0.015 A 
ATOM      3  C   UNL     1      -1.238   5.387  -7.159  0.00  0.00    +0.030 C 
ATOM      4  C   UNL     1      -2.419   5.364  -6.197  0.00  0.00    +0.013 C 
ATOM      5  C   UNL     1      -2.624   6.790  -5.705  0.00  0.00    +0.069 C 
ATOM      6  C   UNL     1      -1.393   7.237  -5.023  0.00  0.00    +0.173 C 
ATOM      7  O   UNL     1      -1.485   8.039  -4.071  0.00  0.00    -0.291 OA
ATOM      8  C   UNL     1      -0.115   6.587  -5.283  0.00  0.00    +0.034 A 
ATOM      9  C   UNL     1       0.912   6.564  -4.367  0.00  0.00    +0.003 A 
ATOM     10  C   UNL     1       1.859   5.549  -4.382  0.00  0.00    +0.003 A 
ATOM     11  C   UNL     1       1.951   4.707  -5.472  0.00  0.00    +0.037 A 
ENDROOT
BRANCH   1  12
ATOM     12  O   UNL     1       1.411   4.507  -7.829  0.00  0.00    -0.473 OA
BRANCH  12  13
ATOM     13  C   UNL     1       2.758   4.220  -8.153  0.00  0.00    +0.239 C 
BRANCH  13  14
ATOM     14  C   UNL     1       3.206   5.625  -8.896  0.00  0.00    +0.213 C 
ATOM     15  O   UNL     1       4.385   4.955  -9.584  0.00  0.00    -0.218 OA
BRANCH  14  16
ATOM     16  C   UNL     1       2.207   5.344 -10.182  0.00  0.00    +0.125 C 
BRANCH  16  17
ATOM     17  N   UNL     1       1.431   6.565 -10.229  0.00  0.00    -0.218 NA
BRANCH  17  19
ATOM     18  C   UNL     1      -0.059   6.382 -10.492  0.00  0.00    +0.017 C 
ATOM     19  C   UNL     1       0.072   6.373 -10.655  0.00  0.00    +0.060 C 
ATOM     20  C   UNL     1      -0.123   4.958 -11.112  0.00  0.00    +0.017 C 
ATOM     21  C   UNL     1      -0.312   7.394 -11.687  0.00  0.00    +0.017 C 
ENDBRANCH  17  19
ENDBRANCH  16  17
ENDBRANCH  14  16
ENDBRANCH  13  14
ENDBRANCH  12  13
ENDBRANCH   1  12
TORSDOF 6
ENDMDL
MODEL 3
REMARK VINA RESULT:      -7.3      3.709      5.341
REMARK  Name = 
REMARK  6 active torsions:
REMARK  status: ('A' for Active; 'I' for Inactive)
REMARK    1  A    between atoms: C_2  and  N_5
REMARK    2  A    between atoms: N_5  and  C_6
REMARK    3  A    between atoms: C_6  and  C_7
REMARK    4  A    between atoms: C_7  and  C_9
REMARK    5  A    between atoms: C_9  and  O_10
REMARK    6  A    between atoms: O_10  and  C_11
REMARK                            x       y       z     vdW  Elec       q    Type
REMARK                         _______ _______ _______ _____ _____    ______ ____
ROOT
ATOM      1  C   UNL     1       2.692   6.939  -4.363  0.00  0.00    +0.135 A 
ATOM      2  C   UNL     1       2.740   6.688  -5.707  0.00  0.00    +0.015 A 
ATOM      3  C   UNL     1       1.540   6.961  -6.555  0.00  0.00    +0.030 C 
ATOM      4  C   UNL     1       2.090   7.560  -7.844  0.00  0.00    +0.013 C 
ATOM      5  C   UNL     1       2.820   6.446  -8.580  0.00  0.00    +0.069 C 
ATOM      6  C   UNL     1       3.911   5.947  -7.720  0.00  0.00    +0.173 C 
ATOM      7  O   UNL     1       4.957   5.521  -8.253  0.00  0.00    -0.291 OA
ATOM      8  C   UNL     1       3.886   6.159  -6.279  0.00  0.00    +0.034 A 
ATOM      9  C   UNL     1       5.026   6.213  -5.511  0.00  0.00    +0.003 A 
ATOM     10  C   UNL     1       5.049   6.916  -4.314  0.00  0.00    +0.003 A 
ATOM     11  C   UNL     1       3.866   7.337  -3.739  0.00  0.00    +0.037 A 
ENDROOT
BRANCH   1  12
ATOM     12  O   UNL     1       1.475   6.931  -3.685  0.00  0.00    -0.473 OA
BRANCH  12  13
ATOM     13  C   UNL     1       1.355   6.114  -2.536  0.00  0.00    +0.239 C 
BRANCH  13  14
ATOM     14  C   UNL     1       0.103   5.133  -2.980  0.00  0.00    +0.213 C 
ATOM     15  O   UNL     1      -0.152   4.709  -1.541  0.00  0.00    -0.218 OA
BRANCH  14  16
ATOM     16  C   UNL     1      -0.989   6.369  -2.881  0.00  0.00    +0.125 C 
BRANCH  16  17
ATOM     17  N   UNL     1      -2.067   5.881  -3.716  0.00  0.00    -0.218 NA
BRANCH  17  19
ATOM     18  C   UNL     1      -2.583   6.771  -4.840  0.00  0.00    +0.017 C 
ATOM     19  C   UNL     1      -2.377   6.740  -4.825  0.00  0.00    +0.060 C 
ATOM     20  C   UNL     1      -2.092   6.029  -6.115  0.00  0.00    +0.017 C 
ATOM     21  C   UNL     1      -1.662   8.054  -4.696  0.00  0.00    +0.017 C 
ENDBRANCH  17  19
ENDBRANCH  16  17
ENDBRANCH  14  16
ENDBRANCH  13  14
ENDBRANCH  12  13
ENDBRANCH   1  12
TORSDOF 6
ENDMDL
MODEL 4
REMARK VINA RESULT:      -7.2      2.907      7.277
REMARK  Name = 
REMARK  6 active torsions:
REMARK  status: ('A' for Active; 'I' for Inactive)
REMARK    1  A    between atoms: C_2  and  N_5
REMARK    2  A    between atoms: N_5  and  C_6
REMARK    3  A    between atoms: C_6  and  C_7
REMARK    4  A    between atoms: C_7  and  C_9
REMARK    5  A    between atoms: C_9  and  O_10
REMARK    6  A    between atoms: O_10  and  C_11
REMARK                            x       y       z     vdW  Elec       q    Type
REMARK                         _______ _______ _______ _____ _____    ______ ____
ROOT
ATOM      1  C   UNL     1       1.786   4.778  -7.553  0.00  0.00    +0.135 A 
ATOM      2  C   UNL     1       1.634   4.976  -6.208  0.00  0.00    +0.015 A 
ATOM      3  C   UNL     1       2.842   5.079  -5.334  0.00  0.00    +0.030 C 
ATOM      4  C   UNL     1       2.521   6.185  -4.337  0.00  0.00    +0.013 C 
ATOM      5  C   UNL     1       1.436   5.655  -3.411  0.00  0.00    +0.069 C 
ATOM      6  C   UNL     1       0.250   5.311  -4.222  0.00  0.00    +0.173 C 
ATOM      7  O   UNL     1      -0.885   5.438  -3.719  0.00  0.00    -0.291 OA
ATOM      8  C   UNL     1       0.368   5.056  -5.651  0.00  0.00    +0.034 A 
ATOM      9  C   UNL     1      -0.670   5.251  -6.533  0.00  0.00    +0.003 A 
ATOM     10  C   UNL     1      -0.427   5.525  -7.873  0.00  0.00    +0.003 A 
ATOM     11  C   UNL     1       0.835   5.334  -8.398  0.00  0.00    +0.037 A 
ENDROOT
BRANCH   1  12
ATOM     12  O   UNL     1       2.931   4.162  -8.053  0.00  0.00    -0.473 OA
BRANCH  12  13
ATOM     13  C   UNL     1       3.466   4.634  -9.275  0.00  0.00    +0.239 C 
BRANCH  13  14
ATOM     14  C   UNL     1       4.420   5.871  -8.740  0.00  0.00    +0.213 C 
ATOM     15  O   UNL     1       5.481   4.910  -8.227  0.00  0.00    -0.218 OA
BRANCH  14  16
ATOM     16  C   UNL     1       5.166   6.020 -10.207  0.00  0.00    +0.125 C 
BRANCH  16  17
ATOM     17  N   UNL     1       6.563   5.919  -9.841  0.00  0.00    -0.218 NA
BRANCH  17  19
ATOM     18  C   UNL     1       7.557   6.879 -10.485  0.00  0.00    +0.017 C 
ATOM     19  C   UNL     1       7.428   6.771 -10.611  0.00  0.00    +0.060 C 
ATOM     20  C   UNL     1       6.629   7.880 -11.230  0.00  0.00    +0.017 C 
ATOM     21  C   UNL     1       8.215   5.970 -11.607  0.00  0.00    +0.017 C 
ENDBRANCH  17  19
ENDBRANCH  16  17
ENDBRANCH  14  16
ENDBRANCH  13  14
ENDBRANCH  12  13
ENDBRANCH   1  12
TORSDOF 6
ENDMDL
MODEL 5
REMARK VINA RESULT:      -7.2      2.852      7.496
REMARK  Name = 
REMARK  6 active torsions:
REMARK  status: ('A' for Active; 'I' for Inactive)
REMARK    1  A    between atoms: C_2  and  N_5
REMARK    2  A    between atoms: N_5  and  C_6
REMARK    3  A    between atoms: C_6  and  C_7
REMARK    4  A    between atoms: C_7  and  C_9
REMARK    5  A    between atoms: C_9  and  O_10
REMARK    6  A    between atoms: O_10  and  C_11
REMARK                            x       y       z     vdW  Elec       q    Type
REMARK                         _______ _______ _______ _____ _____    ______ ____
ROOT
ATOM      1  C   UNL     1       1.984   5.441  -6.463  0.00  0.00    +0.135 A 
ATOM      2  C   UNL     1       0.684   5.834  -6.291  0.00  0.00    +0.015 A 
ATOM      3  C   UNL     1      -0.318   5.566  -7.366  0.00  0.00    +0.030 C 
ATOM      4  C   UNL     1      -1.586   5.146  -6.634  0.00  0.00    +0.013 C 
ATOM      5  C   UNL     1      -2.124   6.379  -5.923  0.00  0.00    +0.069 C 
ATOM      6  C   UNL     1      -1.100   6.862  -4.976  0.00  0.00    +0.173 C 
ATOM      7  O   UNL     1      -1.466   7.415  -3.917  0.00  0.00    -0.291 OA
ATOM      8  C   UNL     1       0.301   6.500  -5.138  0.00  0.00    +0.034 A 
ATOM      9  C   UNL     1       1.187   6.447  -4.086  0.00  0.00    +0.003 A 
ATOM     10  C   UNL     1       2.306   5.627  -4.135  0.00  0.00    +0.003 A 
ATOM     11  C   UNL     1       2.699   5.065  -5.334  0.00  0.00    +0.037 A 
ENDROOT
BRANCH   1  12
ATOM     12  O   UNL     1       2.515   5.293  -7.742  0.00  0.00    -0.473 OA
BRANCH  12  13
ATOM     13  C   UNL     1       3.505   6.211  -8.166  0.00  0.00    +0.239 C 
BRANCH  13  14
ATOM     14  C   UNL     1       4.790   5.199  -8.395  0.00  0.00    +0.213 C 
ATOM     15  O   UNL     1       3.939   4.197  -9.161  0.00  0.00    -0.218 OA
BRANCH  14  16
ATOM     16  C   UNL     1       5.242   5.977  -9.780  0.00  0.00    +0.125 C 
BRANCH  16  17
ATOM     17  N   UNL     1       6.687   5.934  -9.687  0.00  0.00    -0.218 NA
BRANCH  17  19
ATOM     18  C   UNL     1       7.466   6.975 -10.482  0.00  0.00    +0.017 C 
ATOM     19  C   UNL     1       7.354   6.833 -10.588  0.00  0.00    +0.060 C 
ATOM     20  C   UNL     1       6.346   7.707 -11.274  0.00  0.00    +0.017 C 
ATOM     21  C   UNL     1       8.236   6.077 -11.539  0.00  0.00    +0.017 C 
ENDBRANCH  17  19
ENDBRANCH  16  17
ENDBRANCH  14  16
ENDBRANCH  13  14
ENDBRANCH  12  13
ENDBRANCH   1  12
TORSDOF 6
ENDMDL
MODEL 6
REMARK VINA RESULT:      -7.1      2.941      6.848
REMARK  Name = 
REMARK  6 active torsions:
REMARK  status: ('A' for Active; 'I' for Inactive)
REMARK    1  A    between atoms: C_2  and  N_5
REMARK    2  A    between atoms: N_5  and  C_6
REMARK    3  A    between atoms: C_6  and  C_7
REMARK    4  A    between atoms: C_7  and  C_9
REMARK    5  A    between atoms: C_9  and  O_10
REMARK    6  A    between atoms: O_10  and  C_11
REMARK                            x       y       z     vdW  Elec       q    Type
REMARK                         _______ _______ _______ _____ _____    ______ ____
ROOT
ATOM      1  C   UNL     1       2.198   5.753 -11.044  0.00  0.00    +0.135 A 
ATOM      2  C   UNL     1       2.063   6.022  -9.709  0.00  0.00    +0.015 A 
ATOM      3  C   UNL     1       3.115   6.814  -9.004  0.00  0.00    +0.030 C 
ATOM      4  C   UNL     1       2.355   7.738  -8.062  0.00  0.00    +0.013 C 
ATOM      5  C   UNL     1       1.750   6.868  -6.970  0.00  0.00    +0.069 C 
ATOM      6  C   UNL     1       0.842   5.886  -7.597  0.00  0.00    +0.173 C 
ATOM      7  O   UNL     1      -0.166   5.504  -6.967  0.00  0.00    -0.291 OA
ATOM      8  C   UNL     1       0.970   5.542  -9.006  0.00  0.00    +0.034 A 
ATOM      9  C   UNL     1      -0.085   5.088  -9.764  0.00  0.00    +0.003 A 
ATOM     10  C   UNL     1      -0.108   5.271 -11.140  0.00  0.00    +0.003 A 
ATOM     11  C   UNL     1       1.040   5.659 -11.803  0.00  0.00    +0.037 A 
ENDROOT
BRANCH   1  12
ATOM     12  O   UNL     1       3.459   5.719 -11.635  0.00  0.00    -0.473 OA
BRANCH  12  13
ATOM     13  C   UNL     1       3.552   5.951 -13.027  0.00  0.00    +0.239 C 
BRANCH  13  14
ATOM     14  C   UNL     1       4.878   5.043 -13.407  0.00  0.00    +0.213 C 
ATOM     15  O   UNL     1       5.311   6.022 -14.489  0.00  0.00    -0.218 OA
BRANCH  14  16
ATOM     16  C   UNL     1       5.804   5.793 -12.263  0.00  0.00    +0.125 C 
BRANCH  16  17
ATOM     17  N   UNL     1       7.011   4.994 -12.286  0.00  0.00    -0.218 NA
BRANCH  17  19
ATOM     18  C   UNL     1       8.110   5.349 -11.293  0.00  0.00    +0.017 C 
ATOM     19  C   UNL     1       8.055   5.494 -11.434  0.00  0.00    +0.060 C 
ATOM     20  C   UNL     1       7.514   6.579 -10.551  0.00  0.00    +0.017 C 
ATOM     21  C   UNL     1       9.245   5.918 -12.245  0.00  0.00    +0.017 C 
ENDBRANCH  17  19
ENDBRANCH  16  17
ENDBRANCH  14  16
ENDBRANCH  13  14
ENDBRANCH  12  13
ENDBRANCH   1  12
TORSDOF 6
ENDMDL
MODEL 7
REMARK VINA RESULT:      -7.1      2.209      3.131
REMARK  Name = 
REMARK  6 active torsions:
REMARK  status: ('A' for Active; 'I' for Inactive)
REMARK    1  A    between atoms: C_2  and  N_5
REMARK    2  A    between atoms: N_5  and  C_6
REMARK    3  A    between atoms: C_6  and  C_7
REMARK    4  A    between atoms: C_7  and  C_9
REMARK    5  A    between atoms: C_9  and  O_10
REMARK    6  A    between atoms: O_10  and  C_11
REMARK                            x       y       z     vdW  Elec       q    Type
REMARK                         _______ _______ _______ _____ _____    ______ ____
ROOT
ATOM      1  C   UNL     1       3.987   5.225  -9.214  0.00  0.00    +0.135 A 
ATOM      2  C   UNL     1       5.152   5.859  -9.553  0.00  0.00    +0.015 A 
ATOM      3  C   UNL     1       6.407   5.551  -8.803  0.00  0.00    +0.030 C 
ATOM      4  C   UNL     1       7.503   5.509  -9.860  0.00  0.00    +0.013 C 
ATOM      5  C   UNL     1       7.705   6.935 -10.354  0.00  0.00    +0.069 C 
ATOM      6  C   UNL     1       6.434   7.420 -10.927  0.00  0.00    +0.173 C 
ATOM      7  O   UNL     1       6.468   8.231 -11.876  0.00  0.00    -0.291 OA
ATOM      8  C   UNL     1       5.165   6.801 -10.569  0.00  0.00    +0.034 A 
ATOM      9  C   UNL     1       4.066   6.814 -11.397  0.00  0.00    +0.003 A 
ATOM     10  C   UNL     1       3.096   5.823 -11.313  0.00  0.00    +0.003 A 
ATOM     11  C   UNL     1       3.072   4.971 -10.227  0.00  0.00    +0.037 A 
ENDROOT
BRANCH   1  12
ATOM     12  O   UNL     1       3.800   4.731  -7.925  0.00  0.00    -0.473 OA
BRANCH  12  13
ATOM     13  C   UNL     1       2.530   4.205  -7.588  0.00  0.00    +0.239 C 
BRANCH  13  14
ATOM     14  C   UNL     1       2.464   4.557  -5.977  0.00  0.00    +0.213 C 
ATOM     15  O   UNL     1       2.372   6.052  -6.246  0.00  0.00    -0.218 OA
BRANCH  14  16
ATOM     16  C   UNL     1       0.820   4.393  -5.939  0.00  0.00    +0.125 C 
BRANCH  16  17
ATOM     17  N   UNL     1       0.422   5.563  -5.183  0.00  0.00    -0.218 NA
BRANCH  17  19
ATOM     18  C   UNL     1      -1.092   5.737  -5.152  0.00  0.00    +0.017 C 
ATOM     19  C   UNL     1      -0.980   5.864  -5.276  0.00  0.00    +0.060 C 
ATOM     20  C   UNL     1      -1.493   5.484  -6.633  0.00  0.00    +0.017 C 
ATOM     21  C   UNL     1      -1.240   7.299  -4.917  0.00  0.00    +0.017 C 
ENDBRANCH  17  19
ENDBRANCH  16  17
ENDBRANCH  14  16
ENDBRANCH  13  14
ENDBRANCH  12  13
ENDBRANCH   1  12
TORSDOF 6
ENDMDL
MODEL 8
REMARK VINA RESULT:      -7.0      5.412      8.598
REMARK  Name = 
REMARK  6 active torsions:
REMARK  status: ('A' for Active; 'I' for Inactive)
REMARK    1  A    between atoms: C_2  and  N_5
REMARK    2  A    between atoms: N_5  and  C_6
REMARK    3  A    between atoms: C_6  and  C_7
REMARK    4  A    between atoms: C_7  and  C_9
REMARK    5  A    between atoms: C_9  and  O_10
REMARK    6  A    between atoms: O_10  and  C_11
REMARK                            x       y       z     vdW  Elec       q    Type
REMARK                         _______ _______ _______ _____ _____    ______ ____
ROOT
ATOM      1  C   UNL     1      -0.198   5.912  -2.839  0.00  0.00    +0.135 A 
ATOM      2  C   UNL     1      -0.359   5.820  -4.195  0.00  0.00    +0.015 A 
ATOM      3  C   UNL     1       0.835   5.627  -5.071  0.00  0.00    +0.030 C 
ATOM      4  C   UNL     1       0.391   4.634  -6.138  0.00  0.00    +0.013 C 
ATOM      5  C   UNL     1      -0.612   5.352  -7.030  0.00  0.00    +0.069 C 
ATOM      6  C   UNL     1      -1.754   5.786  -6.201  0.00  0.00    +0.173 C 
ATOM      7  O   UNL     1      -2.892   5.832  -6.714  0.00  0.00    -0.291 OA
ATOM      8  C   UNL     1      -1.621   5.932  -4.758  0.00  0.00    +0.034 A 
ATOM      9  C   UNL     1      -2.683   5.810  -3.892  0.00  0.00    +0.003 A 
ATOM     10  C   UNL     1      -2.489   5.424  -2.573  0.00  0.00    +0.003 A 
ATOM     11  C   UNL     1      -1.218   5.424  -2.034  0.00  0.00    +0.037 A 
ENDROOT
BRANCH   1  12
ATOM     12  O   UNL     1       1.009   6.350  -2.299  0.00  0.00    -0.473 OA
BRANCH  12  13
ATOM     13  C   UNL     1       1.691   5.492  -1.403  0.00  0.00    +0.239 C 
BRANCH  13  14
ATOM     14  C   UNL     1       2.602   6.582  -0.562  0.00  0.00    +0.213 C 
ATOM     15  O   UNL     1       3.732   5.580  -0.373  0.00  0.00    -0.218 OA
BRANCH  14  16
ATOM     16  C   UNL     1       3.278   7.186  -1.943  0.00  0.00    +0.125 C 
BRANCH  16  17
ATOM     17  N   UNL     1       4.306   6.207  -2.225  0.00  0.00    -0.218 NA
BRANCH  17  19
ATOM     18  C   UNL     1       4.863   6.149  -3.642  0.00  0.00    +0.017 C 
ATOM     19  C   UNL     1       4.657   6.117  -3.616  0.00  0.00    +0.060 C 
ATOM     20  C   UNL     1       4.080   7.284  -4.362  0.00  0.00    +0.017 C 
ATOM     21  C   UNL     1       4.255   4.786  -4.181  0.00  0.00    +0.017 C 
ENDBRANCH  17  19
ENDBRANCH  16  17
ENDBRANCH  14  16
ENDBRANCH  13  14
ENDBRANCH  12  13
ENDBRANCH   1  12
TORSDOF 6
ENDMDL
MODEL 9
REMARK VINA RESULT:      -6.8      2.792      4.633
REMARK  Name = 
REMARK  6 active torsions:
REMARK  status: ('A' for Active; 'I' for Inactive)
REMARK    1  A    between atoms: C_2  and  N_5
REMARK    2  A    between atoms: N_5  and  C_6
REMARK    3  A    between atoms: C_6  and  C_7
REMARK    4  A    between atoms: C_7  and  C_9
REMARK    5  A    between atoms: C_9  and  O_10
REMARK    6  A    between atoms: O_10  and  C_11
REMARK                            x       y       z     vdW  Elec       q    Type
REMARK                         _______ _______ _______ _____ _____    ______ ____
ROOT
ATOM      1  C   UNL     1       1.564   6.456  -8.860  0.00  0.00    +0.135 A 
ATOM      2  C   UNL     1       1.257   6.389 -10.192  0.00  0.00    +0.015 A 
ATOM      3  C   UNL     1      -0.161   6.548 -10.633  0.00  0.00    +0.030 C 
ATOM      4  C   UNL     1      -0.092   7.393 -11.900  0.00  0.00    +0.013 C 
ATOM      5  C   UNL     1       0.539   6.529 -12.982  0.00  0.00    +0.069 C 
ATOM      6  C   UNL     1       1.889   6.128 -12.538  0.00  0.00    +0.173 C 
ATOM      7  O   UNL     1       2.785   5.965 -13.393  0.00  0.00    -0.291 OA
ATOM      8  C   UNL     1       2.251   6.148 -11.127  0.00  0.00    +0.034 A 
ATOM      9  C   UNL     1       3.546   6.308 -10.689  0.00  0.00    +0.003 A 
ATOM     10  C   UNL     1       3.816   6.847  -9.438  0.00  0.00    +0.003 A 
ATOM     11  C   UNL     1       2.803   6.974  -8.509  0.00  0.00    +0.037 A 
ENDROOT
BRANCH   1  12
ATOM     12  O   UNL     1       0.607   6.145  -7.897  0.00  0.00    -0.473 OA
BRANCH  12  13
ATOM     13  C   UNL     1       0.890   6.459  -6.547  0.00  0.00    +0.239 C 
BRANCH  13  14
ATOM     14  C   UNL     1       0.136   5.211  -5.772  0.00  0.00    +0.213 C 
ATOM     15  O   UNL     1       1.452   4.679  -5.223  0.00  0.00    -0.218 OA
BRANCH  14  16
ATOM     16  C   UNL     1      -0.136   6.124  -4.422  0.00  0.00    +0.125 C 
BRANCH  16  17
ATOM     17  N   UNL     1      -0.529   7.394  -4.996  0.00  0.00    -0.218 NA
BRANCH  17  19
ATOM     18  C   UNL     1      -1.807   8.080  -4.528  0.00  0.00    +0.017 C 
ATOM     19  C   UNL     1      -1.804   7.870  -4.534  0.00  0.00    +0.060 C 
ATOM     20  C   UNL     1      -1.980   7.528  -3.085  0.00  0.00    +0.017 C 
ATOM     21  C   UNL     1      -2.912   7.359  -5.409  0.00  0.00    +0.017 C 
ENDBRANCH  17  19
ENDBRANCH  16  17
ENDBRANCH  14  16
ENDBRANCH  13  14
ENDBRANCH  12  13
ENDBRANCH   1  12
TORSDOF 6
ENDMDL
