MODEL 1
REMARK VINA RESULT:      -4.8      0.000      0.000
REMARK  Name = 
REMARK  3 active torsions:
REMARK  status: ('A' for Active; 'I' for Inactive)
REMARK    1  A    between atoms: C_2  and  O_4
REMARK    2  A    between atoms: O_4  and  C_5
REMARK    3  A    between atoms: C_5  and  C_7
REMARK                            x       y       z     vdW  Elec       q    Type
REMARK                         _______ _______ _______ _____ _____    ______ ____
ROOT
ATOM      1  C   UNL     1       6.641   5.767 -11.044  0.00  0.00    +0.378 C 
ATOM      2  F   UNL     1       7.262   7.117 -11.376  0.00  0.00    -0.194 F 
ENDROOT
BRANCH   1   3
ATOM      3  C   UNL     1       7.246   5.786  -9.501  0.00  0.00    +0.456 C 
ATOM      4  F   UNL     1       6.290   5.681  -8.596  0.00  0.00    -0.165 F 
ATOM      5  F   UNL     1       8.238   4.851  -9.450  0.00  0.00    -0.165 F 
ATOM      6  F   UNL     1       7.903   7.014  -9.483  0.00  0.00    -0.165 F 
ENDBRANCH   1   3
BRANCH   1   7
ATOM      7  O   UNL     1       7.859   5.046 -11.638  0.00  0.00    -0.264 OA
BRANCH   7   9
ATOM      8  F   UNL     1       7.900   5.527 -13.774  0.00  0.00    -0.166 F 
ATOM      9  C   UNL     1       8.361   5.860 -12.610  0.00  0.00    +0.452 C 
ATOM     10  F   UNL     1       9.708   6.064 -12.578  0.00  0.00    -0.166 F 
ENDBRANCH   7   9
ENDBRANCH   1   7
TORSDOF 3
ENDMDL
MODEL 2
REMARK VINA RESULT:      -4.6      1.119      3.600
REMARK  Name = 
REMARK  3 active torsions:
REMARK  status: ('A' for Active; 'I' for Inactive)
REMARK    1  A    between atoms: C_2  and  O_4
REMARK    2  A    between atoms: O_4  and  C_5
REMARK    3  A    between atoms: C_5  and  C_7
REMARK                            x       y       z     vdW  Elec       q    Type
REMARK                         _______ _______ _______ _____ _____    ______ ____
ROOT
ATOM      1  C   UNL     1       7.853   6.791 -11.065  0.00  0.00    +0.378 C 
ATOM      2  F   UNL     1       6.920   7.606 -11.951  0.00  0.00    -0.194 F 
ENDROOT
BRANCH   1   3
ATOM      3  C   UNL     1       8.308   5.809 -12.320  0.00  0.00    +0.456 C 
ATOM      4  F   UNL     1       7.866   4.575 -12.164  0.00  0.00    -0.165 F 
ATOM      5  F   UNL     1       7.948   6.444 -13.473  0.00  0.00    -0.165 F 
ATOM      6  F   UNL     1       9.695   5.921 -12.262  0.00  0.00    -0.165 F 
ENDBRANCH   1   3
BRANCH   1   7
ATOM      7  O   UNL     1       6.683   5.897 -10.633  0.00  0.00    -0.264 OA
BRANCH   7   9
ATOM      8  F   UNL     1       8.002   5.064  -9.097  0.00  0.00    -0.166 F 
ATOM      9  C   UNL     1       6.858   5.634  -9.307  0.00  0.00    +0.452 C 
ATOM     10  F   UNL     1       5.809   5.035  -8.675  0.00  0.00    -0.166 F 
ENDBRANCH   7   9
ENDBRANCH   1   7
TORSDOF 3
ENDMDL
MODEL 3
REMARK VINA RESULT:      -4.5     10.788     12.817
REMARK  Name = 
REMARK  3 active torsions:
REMARK  status: ('A' for Active; 'I' for Inactive)
REMARK    1  A    between atoms: C_2  and  O_4
REMARK    2  A    between atoms: O_4  and  C_5
REMARK    3  A    between atoms: C_5  and  C_7
REMARK                            x       y       z     vdW  Elec       q    Type
REMARK                         _______ _______ _______ _____ _____    ______ ____
ROOT
ATOM      1  C   UNL     1      -1.573   5.772  -4.444  0.00  0.00    +0.378 C 
ATOM      2  F   UNL     1      -1.952   7.210  -4.113  0.00  0.00    -0.194 F 
ENDROOT
BRANCH   1   3
ATOM      3  C   UNL     1      -2.195   5.884  -5.977  0.00  0.00    +0.456 C 
ATOM      4  F   UNL     1      -1.247   5.862  -6.895  0.00  0.00    -0.165 F 
ATOM      5  F   UNL     1      -3.167   4.933  -6.082  0.00  0.00    -0.165 F 
ATOM      6  F   UNL     1      -2.879   7.095  -5.904  0.00  0.00    -0.165 F 
ENDBRANCH   1   3
BRANCH   1   7
ATOM      7  O   UNL     1      -2.884   5.270  -3.822  0.00  0.00    -0.264 OA
BRANCH   7   9
ATOM      8  F   UNL     1      -2.665   5.310  -1.644  0.00  0.00    -0.166 F 
ATOM      9  C   UNL     1      -3.072   5.981  -2.674  0.00  0.00    +0.452 C 
ATOM     10  F   UNL     1      -4.299   6.552  -2.521  0.00  0.00    -0.166 F 
ENDBRANCH   7   9
ENDBRANCH   1   7
TORSDOF 3
ENDMDL
MODEL 4
REMARK VINA RESULT:      -4.4     10.159     11.768
REMARK  Name = 
REMARK  3 active torsions:
REMARK  status: ('A' for Active; 'I' for Inactive)
REMARK    1  A    between atoms: C_2  and  O_4
REMARK    2  A    between atoms: O_4  and  C_5
REMARK    3  A    between atoms: C_5  and  C_7
REMARK                            x       y       z     vdW  Elec       q    Type
REMARK                         _______ _______ _______ _____ _____    ______ ____
ROOT
ATOM      1  C   UNL     1      -2.406   7.385  -5.000  0.00  0.00    +0.378 C 
ATOM      2  F   UNL     1      -1.399   8.514  -4.823  0.00  0.00    -0.194 F 
ENDROOT
BRANCH   1   3
ATOM      3  C   UNL     1      -2.332   6.969  -3.397  0.00  0.00    +0.456 C 
ATOM      4  F   UNL     1      -1.468   5.995  -3.181  0.00  0.00    -0.165 F 
ATOM      5  F   UNL     1      -2.138   8.123  -2.695  0.00  0.00    -0.165 F 
ATOM      6  F   UNL     1      -3.655   6.611  -3.149  0.00  0.00    -0.165 F 
ENDBRANCH   1   3
BRANCH   1   7
ATOM      7  O   UNL     1      -1.281   6.430  -5.422  0.00  0.00    -0.264 OA
BRANCH   7   9
ATOM      8  F   UNL     1      -1.026   5.545  -7.408  0.00  0.00    -0.166 F 
ATOM      9  C   UNL     1      -1.803   5.604  -6.373  0.00  0.00    +0.452 C 
ATOM     10  F   UNL     1      -3.119   5.795  -6.670  0.00  0.00    -0.166 F 
ENDBRANCH   7   9
ENDBRANCH   1   7
TORSDOF 3
ENDMDL
MODEL 5
REMARK VINA RESULT:      -4.4     12.068     12.943
REMARK  Name = 
REMARK  3 active torsions:
REMARK  status: ('A' for Active; 'I' for Inactive)
REMARK    1  A    between atoms: C_2  and  O_4
REMARK    2  A    between atoms: O_4  and  C_5
REMARK    3  A    between atoms: C_5  and  C_7
REMARK                            x       y       z     vdW  Elec       q    Type
REMARK                         _______ _______ _______ _____ _____    ______ ____
ROOT
ATOM      1  C   UNL     1      -1.899   7.236  -2.590  0.00  0.00    +0.378 C 
ATOM      2  F   UNL     1      -0.691   6.466  -2.073  0.00  0.00    -0.194 F 
ENDROOT
BRANCH   1   3
ATOM      3  C   UNL     1      -2.873   5.896  -2.523  0.00  0.00    +0.456 C 
ATOM      4  F   UNL     1      -2.735   5.134  -3.592  0.00  0.00    -0.165 F 
ATOM      5  F   UNL     1      -2.648   5.300  -1.316  0.00  0.00    -0.165 F 
ATOM      6  F   UNL     1      -4.131   6.482  -2.409  0.00  0.00    -0.165 F 
ENDBRANCH   1   3
BRANCH   1   7
ATOM      7  O   UNL     1      -1.455   6.986  -4.037  0.00  0.00    -0.264 OA
BRANCH   7   9
ATOM      8  F   UNL     1      -1.994   9.108  -4.065  0.00  0.00    -0.166 F 
ATOM      9  C   UNL     1      -1.927   8.029  -4.778  0.00  0.00    +0.452 C 
ATOM     10  F   UNL     1      -3.042   7.777  -5.519  0.00  0.00    -0.166 F 
ENDBRANCH   7   9
ENDBRANCH   1   7
TORSDOF 3
ENDMDL
MODEL 6
REMARK VINA RESULT:      -4.3     10.936     12.651
REMARK  Name = 
REMARK  3 active torsions:
REMARK  status: ('A' for Active; 'I' for Inactive)
REMARK    1  A    between atoms: C_2  and  O_4
REMARK    2  A    between atoms: O_4  and  C_5
REMARK    3  A    between atoms: C_5  and  C_7
REMARK                            x       y       z     vdW  Elec       q    Type
REMARK                         _______ _______ _______ _____ _____    ______ ____
ROOT
ATOM      1  C   UNL     1      -2.093   5.627  -3.527  0.00  0.00    +0.378 C 
ATOM      2  F   UNL     1      -3.360   4.786  -3.615  0.00  0.00    -0.194 F 
ENDROOT
BRANCH   1   3
ATOM      3  C   UNL     1      -2.718   6.575  -2.320  0.00  0.00    +0.456 C 
ATOM      4  F   UNL     1      -2.447   6.090  -1.123  0.00  0.00    -0.165 F 
ATOM      5  F   UNL     1      -2.311   7.854  -2.566  0.00  0.00    -0.165 F 
ATOM      6  F   UNL     1      -4.075   6.559  -2.638  0.00  0.00    -0.165 F 
ENDBRANCH   1   3
BRANCH   1   7
ATOM      7  O   UNL     1      -2.598   6.531  -4.660  0.00  0.00    -0.264 OA
BRANCH   7   9
ATOM      8  F   UNL     1      -2.971   5.613  -6.613  0.00  0.00    -0.166 F 
ATOM      9  C   UNL     1      -2.051   6.056  -5.815  0.00  0.00    +0.452 C 
ATOM     10  F   UNL     1      -0.985   5.220  -5.670  0.00  0.00    -0.166 F 
ENDBRANCH   7   9
ENDBRANCH   1   7
TORSDOF 3
ENDMDL
MODEL 7
REMARK VINA RESULT:      -4.2      9.236     10.808
REMARK  Name = 
REMARK  3 active torsions:
REMARK  status: ('A' for Active; 'I' for Inactive)
REMARK    1  A    between atoms: C_2  and  O_4
REMARK    2  A    between atoms: O_4  and  C_5
REMARK    3  A    between atoms: C_5  and  C_7
REMARK                            x       y       z     vdW  Elec       q    Type
REMARK                         _______ _______ _______ _____ _____    ______ ____
ROOT
ATOM      1  C   UNL     1      -1.653   5.930  -5.163  0.00  0.00    +0.378 C 
ATOM      2  F   UNL     1      -2.751   5.846  -6.214  0.00  0.00    -0.194 F 
ENDROOT
BRANCH   1   3
ATOM      3  C   UNL     1      -2.157   7.423  -4.649  0.00  0.00    +0.456 C 
ATOM      4  F   UNL     1      -2.655   7.381  -3.427  0.00  0.00    -0.165 F 
ATOM      5  F   UNL     1      -1.121   8.287  -4.856  0.00  0.00    -0.165 F 
ATOM      6  F   UNL     1      -3.096   7.743  -5.627  0.00  0.00    -0.165 F 
ENDBRANCH   1   3
BRANCH   1   7
ATOM      7  O   UNL     1      -0.677   6.488  -6.207  0.00  0.00    -0.264 OA
BRANCH   7   9
ATOM      8  F   UNL     1      -0.650   5.147  -7.937  0.00  0.00    -0.166 F 
ATOM      9  C   UNL     1      -0.084   5.415  -6.804  0.00  0.00    +0.452 C 
ATOM     10  F   UNL     1       0.120   4.329  -6.008  0.00  0.00    -0.166 F 
ENDBRANCH   7   9
ENDBRANCH   1   7
TORSDOF 3
ENDMDL
MODEL 8
REMARK VINA RESULT:      -4.1     10.188     11.340
REMARK  Name = 
REMARK  3 active torsions:
REMARK  status: ('A' for Active; 'I' for Inactive)
REMARK    1  A    between atoms: C_2  and  O_4
REMARK    2  A    between atoms: O_4  and  C_5
REMARK    3  A    between atoms: C_5  and  C_7
REMARK                            x       y       z     vdW  Elec       q    Type
REMARK                         _______ _______ _______ _____ _____    ______ ____
ROOT
ATOM      1  C   UNL     1      -0.732   6.665  -5.275  0.00  0.00    +0.378 C 
ATOM      2  F   UNL     1      -0.942   8.140  -4.956  0.00  0.00    -0.194 F 
ENDROOT
BRANCH   1   3
ATOM      3  C   UNL     1      -2.355   6.405  -5.491  0.00  0.00    +0.456 C 
ATOM      4  F   UNL     1      -2.835   5.541  -4.616  0.00  0.00    -0.165 F 
ATOM      5  F   UNL     1      -2.953   7.631  -5.528  0.00  0.00    -0.165 F 
ATOM      6  F   UNL     1      -2.383   5.948  -6.806  0.00  0.00    -0.165 F 
ENDBRANCH   1   3
BRANCH   1   7
ATOM      7  O   UNL     1      -0.757   6.325  -3.778  0.00  0.00    -0.264 OA
BRANCH   7   9
ATOM      8  F   UNL     1       0.602   4.830  -4.623  0.00  0.00    -0.166 F 
ATOM      9  C   UNL     1       0.292   5.484  -3.549  0.00  0.00    +0.452 C 
ATOM     10  F   UNL     1       0.204   4.713  -2.429  0.00  0.00    -0.166 F 
ENDBRANCH   7   9
ENDBRANCH   1   7
TORSDOF 3
ENDMDL
MODEL 9
REMARK VINA RESULT:      -4.1      1.432      2.066
REMARK  Name = 
REMARK  3 active torsions:
REMARK  status: ('A' for Active; 'I' for Inactive)
REMARK    1  A    between atoms: C_2  and  O_4
REMARK    2  A    between atoms: O_4  and  C_5
REMARK    3  A    between atoms: C_5  and  C_7
REMARK                            x       y       z     vdW  Elec       q    Type
REMARK                         _______ _______ _______ _____ _____    ______ ____
ROOT
ATOM      1  C   UNL     1       6.485   6.615 -11.347  0.00  0.00    +0.378 C 
ATOM      2  F   UNL     1       6.558   8.125 -11.168  0.00  0.00    -0.194 F 
ENDROOT
BRANCH   1   3
ATOM      3  C   UNL     1       7.459   6.338 -10.035  0.00  0.00    +0.456 C 
ATOM      4  F   UNL     1       8.180   7.400  -9.725  0.00  0.00    -0.165 F 
ATOM      5  F   UNL     1       6.664   5.832  -9.048  0.00  0.00    -0.165 F 
ATOM      6  F   UNL     1       8.216   5.257 -10.482  0.00  0.00    -0.165 F 
ENDBRANCH   1   3
BRANCH   1   7
ATOM      7  O   UNL     1       7.648   6.664 -12.348  0.00  0.00    -0.264 OA
BRANCH   7   9
ATOM      8  F   UNL     1       6.598   7.375 -14.133  0.00  0.00    -0.166 F 
ATOM      9  C   UNL     1       7.131   6.339 -13.567  0.00  0.00    +0.452 C 
ATOM     10  F   UNL     1       6.356   5.219 -13.606  0.00  0.00    -0.166 F 
ENDBRANCH   7   9
ENDBRANCH   1   7
TORSDOF 3
ENDMDL
