MODEL 1
REMARK VINA RESULT:     -11.1      0.000      0.000
REMARK  Name = 
REMARK  6 active torsions:
REMARK  status: ('A' for Active; 'I' for Inactive)
REMARK    1  A    between atoms: N_4  and  C_5
REMARK    2  A    between atoms: C_7  and  N_8
REMARK    3  A    between atoms: C_9  and  C_11
REMARK    4  A    between atoms: C_16  and  N_17
REMARK    5  A    between atoms: C_22  and  C_23
REMARK    6  A    between atoms: C_32  and  C_33
REMARK                            x       y       z     vdW  Elec       q    Type
REMARK                         _______ _______ _______ _____ _____    ______ ____
ROOT
ATOM      1  C   UNL     1      -0.920   5.629  -5.108  0.00  0.00    +0.057 A 
ATOM      2  C   UNL     1      -0.772   5.365  -3.752  0.00  0.00    +0.021 A 
ATOM      3  C   UNL     1      -1.663   5.896  -2.829  0.00  0.00    +0.070 A 
ATOM      4  C   UNL     1      -2.758   6.627  -3.265  0.00  0.00    -0.006 A 
ATOM      5  C   UNL     1      -4.082   6.522  -2.585  0.00  0.00    +0.032 C 
ATOM      6  C   UNL     1      -2.600   7.265  -4.487  0.00  0.00    -0.003 A 
ATOM      7  C   UNL     1      -1.700   6.740  -5.404  0.00  0.00    +0.004 A 
ENDROOT
BRANCH   3   8
ATOM      8  N   UNL     1      -1.622   5.479  -1.479  0.00  0.00    -0.178 NA
ATOM      9  C   UNL     1      -1.086   6.245  -0.422  0.00  0.00    +0.241 A 
ATOM     10  N   UNL     1       0.059   6.959  -0.515  0.00  0.00    -0.212 NA
ATOM     11  C   UNL     1       0.401   7.735   0.540  0.00  0.00    +0.087 A 
ATOM     12  C   UNL     1      -0.605   8.132   1.412  0.00  0.00    +0.040 A 
ATOM     13  C   UNL     1      -1.684   7.278   1.602  0.00  0.00    +0.103 A 
ATOM     14  N   UNL     1      -1.757   6.227   0.754  0.00  0.00    -0.211 NA
BRANCH  11  15
ATOM     15  C   UNL     1       1.700   8.417   0.491  0.00  0.00    +0.037 A 
ATOM     16  C   UNL     1       2.724   7.975  -0.327  0.00  0.00    +0.100 A 
ATOM     17  N   UNL     1       3.744   8.794  -0.676  0.00  0.00    -0.242 NA
ATOM     18  C   UNL     1       3.537  10.132  -0.663  0.00  0.00    +0.099 A 
ATOM     19  C   UNL     1       2.680  10.626   0.314  0.00  0.00    +0.021 A 
ATOM     20  C   UNL     1       1.755   9.751   0.867  0.00  0.00    +0.005 A 
ENDBRANCH  11  15
ENDBRANCH   3   8
BRANCH   1  22
ATOM     21  N   UNL     1       1.089   4.276  -5.865  0.00  0.00    -0.175 NA
ATOM     22  C   UNL     1       0.068   5.229  -6.100  0.00  0.00    +0.269 C 
ATOM     23  O   UNL     1       0.286   6.060  -7.034  0.00  0.00    -0.268 OA
BRANCH  21  28
ATOM     24  C   UNL     1       4.211   5.336  -7.558  0.00  0.00    +0.067 A 
ATOM     25  C   UNL     1       4.690   6.123  -6.524  0.00  0.00    +0.022 A 
ATOM     26  C   UNL     1       4.327   5.869  -5.207  0.00  0.00    +0.074 A 
ATOM     27  C   UNL     1       3.257   5.014  -5.030  0.00  0.00    +0.021 A 
ATOM     28  C   UNL     1       2.479   4.554  -6.081  0.00  0.00    +0.075 A 
ATOM     29  C   UNL     1       3.003   4.701  -7.349  0.00  0.00    +0.034 A 
BRANCH  24  34
ATOM     30  C   UNL     1       7.719   5.654 -11.093  0.00  0.00    +0.054 C 
ATOM     31  C   UNL     1       6.400   5.612 -10.398  0.00  0.00    +0.079 A 
ATOM     32  N   UNL     1       5.223   5.302 -10.994  0.00  0.00    -0.228 NA
ATOM     33  C   UNL     1       4.299   5.232 -10.005  0.00  0.00    +0.182 A 
ATOM     34  N   UNL     1       4.877   5.355  -8.805  0.00  0.00    -0.287 N 
ATOM     35  C   UNL     1       6.168   5.655  -9.029  0.00  0.00    +0.096 A 
ENDBRANCH  24  34
BRANCH  26  36
ATOM     36  C   UNL     1       4.830   6.755  -4.112  0.00  0.00    +0.419 C 
ATOM     37  F   UNL     1       3.892   7.765  -3.914  0.00  0.00    -0.166 F 
ATOM     38  F   UNL     1       6.083   7.251  -4.376  0.00  0.00    -0.166 F 
ATOM     39  F   UNL     1       4.812   5.972  -2.961  0.00  0.00    -0.166 F 
ENDBRANCH  26  36
ENDBRANCH  21  28
ENDBRANCH   1  22
TORSDOF 6
ENDMDL
MODEL 2
REMARK VINA RESULT:     -10.9      2.744      3.393
REMARK  Name = 
REMARK  6 active torsions:
REMARK  status: ('A' for Active; 'I' for Inactive)
REMARK    1  A    between atoms: N_4  and  C_5
REMARK    2  A    between atoms: C_7  and  N_8
REMARK    3  A    between atoms: C_9  and  C_11
REMARK    4  A    between atoms: C_16  and  N_17
REMARK    5  A    between atoms: C_22  and  C_23
REMARK    6  A    between atoms: C_32  and  C_33
REMARK                            x       y       z     vdW  Elec       q    Type
REMARK                         _______ _______ _______ _____ _____    ______ ____
ROOT
ATOM      1  C   UNL     1       0.298   5.596  -5.198  0.00  0.00    +0.057 A 
ATOM      2  C   UNL     1       0.190   5.415  -3.825  0.00  0.00    +0.021 A 
ATOM      3  C   UNL     1      -1.019   5.635  -3.178  0.00  0.00    +0.070 A 
ATOM      4  C   UNL     1      -2.149   5.959  -3.914  0.00  0.00    -0.006 A 
ATOM      5  C   UNL     1      -3.494   5.434  -3.541  0.00  0.00    +0.032 C 
ATOM      6  C   UNL     1      -1.910   6.597  -5.123  0.00  0.00    -0.003 A 
ATOM      7  C   UNL     1      -0.696   6.385  -5.762  0.00  0.00    +0.004 A 
ENDROOT
BRANCH   3   8
ATOM      8  N   UNL     1      -1.176   5.274  -1.820  0.00  0.00    -0.178 NA
ATOM      9  C   UNL     1      -0.845   6.105  -0.729  0.00  0.00    +0.241 A 
ATOM     10  N   UNL     1       0.271   6.867  -0.674  0.00  0.00    -0.212 NA
ATOM     11  C   UNL     1       0.410   7.698   0.384  0.00  0.00    +0.087 A 
ATOM     12  C   UNL     1      -0.736   8.082   1.068  0.00  0.00    +0.040 A 
ATOM     13  C   UNL     1      -1.797   7.188   1.127  0.00  0.00    +0.103 A 
ATOM     14  N   UNL     1      -1.693   6.102   0.326  0.00  0.00    -0.211 NA
BRANCH  11  15
ATOM     15  C   UNL     1       1.673   8.438   0.508  0.00  0.00    +0.037 A 
ATOM     16  C   UNL     1       2.810   8.057  -0.181  0.00  0.00    +0.100 A 
ATOM     17  N   UNL     1       3.827   8.926  -0.387  0.00  0.00    -0.242 NA
ATOM     18  C   UNL     1       3.559  10.254  -0.382  0.00  0.00    +0.099 A 
ATOM     19  C   UNL     1       2.565  10.690   0.486  0.00  0.00    +0.021 A 
ATOM     20  C   UNL     1       1.619   9.765   0.907  0.00  0.00    +0.005 A 
ENDBRANCH  11  15
ENDBRANCH   3   8
BRANCH   1  22
ATOM     21  N   UNL     1       2.178   6.633  -6.552  0.00  0.00    -0.175 NA
ATOM     22  C   UNL     1       1.572   5.530  -5.903  0.00  0.00    +0.269 C 
ATOM     23  O   UNL     1       1.922   4.381  -6.311  0.00  0.00    -0.268 OA
BRANCH  21  28
ATOM     24  C   UNL     1       4.180   5.925  -9.589  0.00  0.00    +0.067 A 
ATOM     25  C   UNL     1       3.131   5.455 -10.362  0.00  0.00    +0.022 A 
ATOM     26  C   UNL     1       1.827   5.869 -10.123  0.00  0.00    +0.074 A 
ATOM     27  C   UNL     1       1.609   6.512  -8.919  0.00  0.00    +0.021 A 
ATOM     28  C   UNL     1       2.575   6.604  -7.930  0.00  0.00    +0.075 A 
ATOM     29  C   UNL     1       3.874   6.333  -8.306  0.00  0.00    +0.034 A 
BRANCH  24  34
ATOM     30  C   UNL     1       8.150   5.619 -12.599  0.00  0.00    +0.054 C 
ATOM     31  C   UNL     1       7.266   5.551 -11.399  0.00  0.00    +0.079 A 
ATOM     32  N   UNL     1       7.703   5.549 -10.116  0.00  0.00    -0.228 NA
ATOM     33  C   UNL     1       6.599   5.626  -9.334  0.00  0.00    +0.182 A 
ATOM     34  N   UNL     1       5.502   5.809 -10.077  0.00  0.00    -0.287 N 
ATOM     35  C   UNL     1       5.885   5.702 -11.361  0.00  0.00    +0.096 A 
ENDBRANCH  24  34
BRANCH  26  36
ATOM     36  C   UNL     1       0.707   5.320 -10.948  0.00  0.00    +0.419 C 
ATOM     37  F   UNL     1       0.471   4.013 -10.533  0.00  0.00    -0.166 F 
ATOM     38  F   UNL     1       0.964   5.401 -12.295  0.00  0.00    -0.166 F 
ATOM     39  F   UNL     1      -0.418   6.056 -10.588  0.00  0.00    -0.166 F 
ENDBRANCH  26  36
ENDBRANCH  21  28
ENDBRANCH   1  22
TORSDOF 6
ENDMDL
MODEL 3
REMARK VINA RESULT:     -10.7      4.120     11.851
REMARK  Name = 
REMARK  6 active torsions:
REMARK  status: ('A' for Active; 'I' for Inactive)
REMARK    1  A    between atoms: N_4  and  C_5
REMARK    2  A    between atoms: C_7  and  N_8
REMARK    3  A    between atoms: C_9  and  C_11
REMARK    4  A    between atoms: C_16  and  N_17
REMARK    5  A    between atoms: C_22  and  C_23
REMARK    6  A    between atoms: C_32  and  C_33
REMARK                            x       y       z     vdW  Elec       q    Type
REMARK                         _______ _______ _______ _____ _____    ______ ____
ROOT
ATOM      1  C   UNL     1       4.979   5.653 -10.703  0.00  0.00    +0.057 A 
ATOM      2  C   UNL     1       5.129   5.417 -12.064  0.00  0.00    +0.021 A 
ATOM      3  C   UNL     1       6.295   5.789 -12.721  0.00  0.00    +0.070 A 
ATOM      4  C   UNL     1       7.352   6.327 -12.002  0.00  0.00    -0.006 A 
ATOM      5  C   UNL     1       8.767   6.000 -12.343  0.00  0.00    +0.032 C 
ATOM      6  C   UNL     1       7.004   6.984 -10.831  0.00  0.00    -0.003 A 
ATOM      7  C   UNL     1       5.832   6.619 -10.182  0.00  0.00    +0.004 A 
ENDROOT
BRANCH   3   8
ATOM      8  N   UNL     1       6.521   5.383 -14.056  0.00  0.00    -0.178 NA
ATOM      9  C   UNL     1       6.180   6.148 -15.192  0.00  0.00    +0.241 A 
ATOM     10  N   UNL     1       5.025   6.839 -15.315  0.00  0.00    -0.212 NA
ATOM     11  C   UNL     1       4.874   7.617 -16.412  0.00  0.00    +0.087 A 
ATOM     12  C   UNL     1       6.019   8.041 -17.074  0.00  0.00    +0.040 A 
ATOM     13  C   UNL     1       7.132   7.210 -17.059  0.00  0.00    +0.103 A 
ATOM     14  N   UNL     1       7.064   6.153 -16.217  0.00  0.00    -0.211 NA
BRANCH  11  15
ATOM     15  C   UNL     1       3.576   8.274 -16.609  0.00  0.00    +0.037 A 
ATOM     16  C   UNL     1       2.414   7.771 -16.051  0.00  0.00    +0.100 A 
ATOM     17  N   UNL     1       1.321   8.553 -15.889  0.00  0.00    -0.242 NA
ATOM     18  C   UNL     1       1.489   9.894 -15.792  0.00  0.00    +0.099 A 
ATOM     19  C   UNL     1       2.519  10.453 -16.538  0.00  0.00    +0.021 A 
ATOM     20  C   UNL     1       3.565   9.625 -16.923  0.00  0.00    +0.005 A 
ENDBRANCH  11  15
ENDBRANCH   3   8
BRANCH   1  22
ATOM     21  N   UNL     1       2.785   6.444  -9.704  0.00  0.00    -0.175 NA
ATOM     22  C   UNL     1       3.725   5.427  -9.998  0.00  0.00    +0.269 C 
ATOM     23  O   UNL     1       3.681   4.396  -9.260  0.00  0.00    -0.268 OA
BRANCH  21  28
ATOM     24  C   UNL     1       0.770   6.155  -6.608  0.00  0.00    +0.067 A 
ATOM     25  C   UNL     1       1.837   6.163  -5.724  0.00  0.00    +0.022 A 
ATOM     26  C   UNL     1       3.035   6.782  -6.060  0.00  0.00    +0.074 A 
ATOM     27  C   UNL     1       3.196   7.104  -7.394  0.00  0.00    +0.021 A 
ATOM     28  C   UNL     1       2.306   6.702  -8.377  0.00  0.00    +0.075 A 
ATOM     29  C   UNL     1       1.072   6.257  -7.951  0.00  0.00    +0.034 A 
BRANCH  24  34
ATOM     30  C   UNL     1      -3.150   5.454  -3.598  0.00  0.00    +0.054 C 
ATOM     31  C   UNL     1      -2.252   5.448  -4.789  0.00  0.00    +0.079 A 
ATOM     32  N   UNL     1      -2.671   5.313  -6.071  0.00  0.00    -0.228 NA
ATOM     33  C   UNL     1      -1.580   5.503  -6.853  0.00  0.00    +0.182 A 
ATOM     34  N   UNL     1      -0.528   5.880  -6.118  0.00  0.00    -0.287 N 
ATOM     35  C   UNL     1      -0.906   5.790  -4.831  0.00  0.00    +0.096 A 
ENDBRANCH  24  34
BRANCH  26  36
ATOM     36  C   UNL     1       4.184   6.747  -5.104  0.00  0.00    +0.419 C 
ATOM     37  F   UNL     1       3.760   6.099  -3.947  0.00  0.00    -0.166 F 
ATOM     38  F   UNL     1       4.686   7.999  -4.845  0.00  0.00    -0.166 F 
ATOM     39  F   UNL     1       5.135   5.918  -5.693  0.00  0.00    -0.166 F 
ENDBRANCH  26  36
ENDBRANCH  21  28
ENDBRANCH   1  22
TORSDOF 6
ENDMDL
MODEL 4
REMARK VINA RESULT:     -10.3      2.674      3.563
REMARK  Name = 
REMARK  6 active torsions:
REMARK  status: ('A' for Active; 'I' for Inactive)
REMARK    1  A    between atoms: N_4  and  C_5
REMARK    2  A    between atoms: C_7  and  N_8
REMARK    3  A    between atoms: C_9  and  C_11
REMARK    4  A    between atoms: C_16  and  N_17
REMARK    5  A    between atoms: C_22  and  C_23
REMARK    6  A    between atoms: C_32  and  C_33
REMARK                            x       y       z     vdW  Elec       q    Type
REMARK                         _______ _______ _______ _____ _____    ______ ____
ROOT
ATOM      1  C   UNL     1       0.982   5.308  -5.414  0.00  0.00    +0.057 A 
ATOM      2  C   UNL     1       0.707   5.049  -4.077  0.00  0.00    +0.021 A 
ATOM      3  C   UNL     1      -0.347   5.688  -3.436  0.00  0.00    +0.070 A 
ATOM      4  C   UNL     1      -1.183   6.531  -4.154  0.00  0.00    -0.006 A 
ATOM      5  C   UNL     1      -2.649   6.583  -3.881  0.00  0.00    +0.032 C 
ATOM      6  C   UNL     1      -0.613   7.130  -5.267  0.00  0.00    -0.003 A 
ATOM      7  C   UNL     1       0.447   6.496  -5.899  0.00  0.00    +0.004 A 
ENDROOT
BRANCH   3   8
ATOM      8  N   UNL     1      -0.739   5.288  -2.139  0.00  0.00    -0.178 NA
ATOM      9  C   UNL     1      -0.607   6.086  -0.983  0.00  0.00    +0.241 A 
ATOM     10  N   UNL     1       0.479   6.843  -0.710  0.00  0.00    -0.212 NA
ATOM     11  C   UNL     1       0.428   7.644   0.380  0.00  0.00    +0.087 A 
ATOM     12  C   UNL     1      -0.821   8.010   0.863  0.00  0.00    +0.040 A 
ATOM     13  C   UNL     1      -1.874   7.117   0.707  0.00  0.00    +0.103 A 
ATOM     14  N   UNL     1      -1.628   6.054  -0.094  0.00  0.00    -0.211 NA
BRANCH  11  15
ATOM     15  C   UNL     1       1.647   8.376   0.746  0.00  0.00    +0.037 A 
ATOM     16  C   UNL     1       2.872   8.082   0.173  0.00  0.00    +0.100 A 
ATOM     17  N   UNL     1       3.887   8.978   0.195  0.00  0.00    -0.242 NA
ATOM     18  C   UNL     1       3.590  10.295   0.307  0.00  0.00    +0.099 A 
ATOM     19  C   UNL     1       2.483  10.625   1.080  0.00  0.00    +0.021 A 
ATOM     20  C   UNL     1       1.512   9.652   1.273  0.00  0.00    +0.005 A 
ENDBRANCH  11  15
ENDBRANCH   3   8
BRANCH   1  22
ATOM     21  N   UNL     1       3.081   5.587  -6.812  0.00  0.00    -0.175 NA
ATOM     22  C   UNL     1       2.162   4.787  -6.090  0.00  0.00    +0.269 C 
ATOM     23  O   UNL     1       2.126   3.558  -6.404  0.00  0.00    -0.268 OA
BRANCH  21  28
ATOM     24  C   UNL     1       2.944   5.612 -10.515  0.00  0.00    +0.067 A 
ATOM     25  C   UNL     1       4.272   5.948 -10.719  0.00  0.00    +0.022 A 
ATOM     26  C   UNL     1       5.242   5.629  -9.777  0.00  0.00    +0.074 A 
ATOM     27  C   UNL     1       4.773   5.248  -8.534  0.00  0.00    +0.021 A 
ATOM     28  C   UNL     1       3.436   5.327  -8.177  0.00  0.00    +0.075 A 
ATOM     29  C   UNL     1       2.529   5.478  -9.206  0.00  0.00    +0.034 A 
BRANCH  24  34
ATOM     30  C   UNL     1       0.815   6.473 -14.947  0.00  0.00    +0.054 C 
ATOM     31  C   UNL     1       1.038   6.048 -13.534  0.00  0.00    +0.079 A 
ATOM     32  N   UNL     1       0.304   5.113 -12.884  0.00  0.00    -0.228 NA
ATOM     33  C   UNL     1       0.908   4.913 -11.688  0.00  0.00    +0.182 A 
ATOM     34  N   UNL     1       2.062   5.587 -11.620  0.00  0.00    -0.287 N 
ATOM     35  C   UNL     1       2.129   6.347 -12.727  0.00  0.00    +0.096 A 
ENDBRANCH  24  34
BRANCH  26  36
ATOM     36  C   UNL     1       6.663   6.035 -10.003  0.00  0.00    +0.419 C 
ATOM     37  F   UNL     1       6.664   7.346 -10.472  0.00  0.00    -0.166 F 
ATOM     38  F   UNL     1       7.322   5.177 -10.850  0.00  0.00    -0.166 F 
ATOM     39  F   UNL     1       7.247   6.069  -8.740  0.00  0.00    -0.166 F 
ENDBRANCH  26  36
ENDBRANCH  21  28
ENDBRANCH   1  22
TORSDOF 6
ENDMDL
MODEL 5
REMARK VINA RESULT:     -10.0      3.207      5.467
REMARK  Name = 
REMARK  6 active torsions:
REMARK  status: ('A' for Active; 'I' for Inactive)
REMARK    1  A    between atoms: N_4  and  C_5
REMARK    2  A    between atoms: C_7  and  N_8
REMARK    3  A    between atoms: C_9  and  C_11
REMARK    4  A    between atoms: C_16  and  N_17
REMARK    5  A    between atoms: C_22  and  C_23
REMARK    6  A    between atoms: C_32  and  C_33
REMARK                            x       y       z     vdW  Elec       q    Type
REMARK                         _______ _______ _______ _____ _____    ______ ____
ROOT
ATOM      1  C   UNL     1       3.776   6.408  -3.152  0.00  0.00    +0.057 A 
ATOM      2  C   UNL     1       3.515   7.660  -2.610  0.00  0.00    +0.021 A 
ATOM      3  C   UNL     1       3.664   7.884  -1.247  0.00  0.00    +0.070 A 
ATOM      4  C   UNL     1       4.156   6.876  -0.431  0.00  0.00    -0.006 A 
ATOM      5  C   UNL     1       5.075   7.177   0.705  0.00  0.00    +0.032 C 
ATOM      6  C   UNL     1       3.926   5.582  -0.876  0.00  0.00    -0.003 A 
ATOM      7  C   UNL     1       3.765   5.363  -2.237  0.00  0.00    +0.004 A 
ENDROOT
BRANCH   3   8
ATOM      8  N   UNL     1       3.579   9.195  -0.727  0.00  0.00    -0.178 NA
ATOM      9  C   UNL     1       2.666   9.602   0.268  0.00  0.00    +0.241 A 
ATOM     10  N   UNL     1       1.370   9.217   0.305  0.00  0.00    -0.212 NA
ATOM     11  C   UNL     1       0.634   9.594   1.375  0.00  0.00    +0.087 A 
ATOM     12  C   UNL     1       1.304   9.912   2.550  0.00  0.00    +0.040 A 
ATOM     13  C   UNL     1       2.574  10.467   2.452  0.00  0.00    +0.103 A 
ATOM     14  N   UNL     1       3.127  10.451   1.217  0.00  0.00    -0.211 NA
BRANCH  11  15
ATOM     15  C   UNL     1      -0.801   9.280   1.362  0.00  0.00    +0.037 A 
ATOM     16  C   UNL     1      -1.264   8.005   1.089  0.00  0.00    +0.100 A 
ATOM     17  N   UNL     1      -2.508   7.620   1.456  0.00  0.00    -0.242 NA
ATOM     18  C   UNL     1      -3.106   8.255   2.493  0.00  0.00    +0.099 A 
ATOM     19  C   UNL     1      -2.830   9.608   2.644  0.00  0.00    +0.021 A 
ATOM     20  C   UNL     1      -1.659  10.098   2.082  0.00  0.00    +0.005 A 
ENDBRANCH  11  15
ENDBRANCH   3   8
BRANCH   1  22
ATOM     21  N   UNL     1       3.138   7.029  -5.529  0.00  0.00    -0.175 NA
ATOM     22  C   UNL     1       3.489   6.077  -4.541  0.00  0.00    +0.269 C 
ATOM     23  O   UNL     1       3.121   4.883  -4.763  0.00  0.00    -0.268 OA
BRANCH  21  28
ATOM     24  C   UNL     1       0.845   6.025  -8.261  0.00  0.00    +0.067 A 
ATOM     25  C   UNL     1      -0.223   5.678  -7.450  0.00  0.00    +0.022 A 
ATOM     26  C   UNL     1      -0.385   6.258  -6.198  0.00  0.00    +0.074 A 
ATOM     27  C   UNL     1       0.709   6.942  -5.703  0.00  0.00    +0.021 A 
ATOM     28  C   UNL     1       1.948   6.928  -6.322  0.00  0.00    +0.075 A 
ATOM     29  C   UNL     1       1.981   6.489  -7.630  0.00  0.00    +0.034 A 
BRANCH  24  34
ATOM     30  C   UNL     1       1.234   6.335 -13.227  0.00  0.00    +0.054 C 
ATOM     31  C   UNL     1       0.836   5.903 -11.855  0.00  0.00    +0.079 A 
ATOM     32  N   UNL     1       0.347   4.679 -11.543  0.00  0.00    -0.228 NA
ATOM     33  C   UNL     1       0.250   4.638 -10.192  0.00  0.00    +0.182 A 
ATOM     34  N   UNL     1       0.783   5.735  -9.644  0.00  0.00    -0.287 N 
ATOM     35  C   UNL     1       1.094   6.560 -10.658  0.00  0.00    +0.096 A 
ENDBRANCH  24  34
BRANCH  26  36
ATOM     36  C   UNL     1      -1.526   5.841  -5.325  0.00  0.00    +0.419 C 
ATOM     37  F   UNL     1      -2.289   6.972  -5.049  0.00  0.00    -0.166 F 
ATOM     38  F   UNL     1      -1.104   5.205  -4.183  0.00  0.00    -0.166 F 
ATOM     39  F   UNL     1      -2.319   5.015  -6.117  0.00  0.00    -0.166 F 
ENDBRANCH  26  36
ENDBRANCH  21  28
ENDBRANCH   1  22
TORSDOF 6
ENDMDL
MODEL 6
REMARK VINA RESULT:     -10.0      4.550     11.889
REMARK  Name = 
REMARK  6 active torsions:
REMARK  status: ('A' for Active; 'I' for Inactive)
REMARK    1  A    between atoms: N_4  and  C_5
REMARK    2  A    between atoms: C_7  and  N_8
REMARK    3  A    between atoms: C_9  and  C_11
REMARK    4  A    between atoms: C_16  and  N_17
REMARK    5  A    between atoms: C_22  and  C_23
REMARK    6  A    between atoms: C_32  and  C_33
REMARK                            x       y       z     vdW  Elec       q    Type
REMARK                         _______ _______ _______ _____ _____    ______ ____
ROOT
ATOM      1  C   UNL     1       5.967   5.409  -9.785  0.00  0.00    +0.057 A 
ATOM      2  C   UNL     1       5.850   5.108 -11.136  0.00  0.00    +0.021 A 
ATOM      3  C   UNL     1       6.768   5.605 -12.052  0.00  0.00    +0.070 A 
ATOM      4  C   UNL     1       7.858   6.340 -11.609  0.00  0.00    -0.006 A 
ATOM      5  C   UNL     1       9.197   6.206 -12.253  0.00  0.00    +0.032 C 
ATOM      6  C   UNL     1       7.675   7.014 -10.410  0.00  0.00    -0.003 A 
ATOM      7  C   UNL     1       6.748   6.522  -9.501  0.00  0.00    +0.004 A 
ENDROOT
BRANCH   3   8
ATOM      8  N   UNL     1       6.757   5.150 -13.390  0.00  0.00    -0.178 NA
ATOM      9  C   UNL     1       6.025   5.756 -14.433  0.00  0.00    +0.241 A 
ATOM     10  N   UNL     1       4.761   6.217 -14.298  0.00  0.00    -0.212 NA
ATOM     11  C   UNL     1       4.217   6.873 -15.349  0.00  0.00    +0.087 A 
ATOM     12  C   UNL     1       5.078   7.447 -16.277  0.00  0.00    +0.040 A 
ATOM     13  C   UNL     1       6.303   6.834 -16.504  0.00  0.00    +0.103 A 
ATOM     14  N   UNL     1       6.634   5.846 -15.640  0.00  0.00    -0.211 NA
BRANCH  11  15
ATOM     15  C   UNL     1       2.807   7.270 -15.250  0.00  0.00    +0.037 A 
ATOM     16  C   UNL     1       2.239   8.166 -16.139  0.00  0.00    +0.100 A 
ATOM     17  N   UNL     1       0.897   8.229 -16.306  0.00  0.00    -0.242 NA
ATOM     18  C   UNL     1       0.153   7.135 -16.016  0.00  0.00    +0.099 A 
ATOM     19  C   UNL     1       0.589   6.341 -14.962  0.00  0.00    +0.021 A 
ATOM     20  C   UNL     1       1.928   6.413 -14.605  0.00  0.00    +0.005 A 
ENDBRANCH  11  15
ENDBRANCH   3   8
BRANCH   1  22
ATOM     21  N   UNL     1       3.960   4.056  -9.021  0.00  0.00    -0.175 NA
ATOM     22  C   UNL     1       4.951   5.045  -8.807  0.00  0.00    +0.269 C 
ATOM     23  O   UNL     1       4.681   5.924  -7.932  0.00  0.00    -0.268 OA
BRANCH  21  28
ATOM     24  C   UNL     1       0.764   5.195  -7.532  0.00  0.00    +0.067 A 
ATOM     25  C   UNL     1       0.293   5.853  -8.657  0.00  0.00    +0.022 A 
ATOM     26  C   UNL     1       0.700   5.471  -9.929  0.00  0.00    +0.074 A 
ATOM     27  C   UNL     1       1.798   4.634  -9.986  0.00  0.00    +0.021 A 
ATOM     28  C   UNL     1       2.558   4.313  -8.872  0.00  0.00    +0.075 A 
ATOM     29  C   UNL     1       1.994   4.578  -7.641  0.00  0.00    +0.034 A 
BRANCH  24  34
ATOM     30  C   UNL     1      -2.818   5.962  -4.142  0.00  0.00    +0.054 C 
ATOM     31  C   UNL     1      -1.485   5.781  -4.787  0.00  0.00    +0.079 A 
ATOM     32  N   UNL     1      -0.357   5.406  -4.136  0.00  0.00    -0.228 NA
ATOM     33  C   UNL     1       0.589   5.215  -5.088  0.00  0.00    +0.182 A 
ATOM     34  N   UNL     1       0.062   5.327  -6.312  0.00  0.00    -0.287 N 
ATOM     35  C   UNL     1      -1.207   5.740  -6.148  0.00  0.00    +0.096 A 
ENDBRANCH  24  34
BRANCH  26  36
ATOM     36  C   UNL     1       0.205   6.220 -11.125  0.00  0.00    +0.419 C 
ATOM     37  F   UNL     1       1.269   6.956 -11.640  0.00  0.00    -0.166 F 
ATOM     38  F   UNL     1      -0.881   7.008 -10.835  0.00  0.00    -0.166 F 
ATOM     39  F   UNL     1      -0.096   5.248 -12.075  0.00  0.00    -0.166 F 
ENDBRANCH  26  36
ENDBRANCH  21  28
ENDBRANCH   1  22
TORSDOF 6
ENDMDL
MODEL 7
REMARK VINA RESULT:     -10.0      4.405     11.879
REMARK  Name = 
REMARK  6 active torsions:
REMARK  status: ('A' for Active; 'I' for Inactive)
REMARK    1  A    between atoms: N_4  and  C_5
REMARK    2  A    between atoms: C_7  and  N_8
REMARK    3  A    between atoms: C_9  and  C_11
REMARK    4  A    between atoms: C_16  and  N_17
REMARK    5  A    between atoms: C_22  and  C_23
REMARK    6  A    between atoms: C_32  and  C_33
REMARK                            x       y       z     vdW  Elec       q    Type
REMARK                         _______ _______ _______ _____ _____    ______ ____
ROOT
ATOM      1  C   UNL     1       5.019   5.735 -10.674  0.00  0.00    +0.057 A 
ATOM      2  C   UNL     1       5.181   5.485 -12.031  0.00  0.00    +0.021 A 
ATOM      3  C   UNL     1       6.359   5.836 -12.677  0.00  0.00    +0.070 A 
ATOM      4  C   UNL     1       7.415   6.367 -11.951  0.00  0.00    -0.006 A 
ATOM      5  C   UNL     1       8.829   6.019 -12.273  0.00  0.00    +0.032 C 
ATOM      6  C   UNL     1       7.061   7.039 -10.790  0.00  0.00    -0.003 A 
ATOM      7  C   UNL     1       5.878   6.694 -10.152  0.00  0.00    +0.004 A 
ENDROOT
BRANCH   3   8
ATOM      8  N   UNL     1       6.594   5.416 -14.006  0.00  0.00    -0.178 NA
ATOM      9  C   UNL     1       6.254   6.164 -15.153  0.00  0.00    +0.241 A 
ATOM     10  N   UNL     1       5.094   6.845 -15.291  0.00  0.00    -0.212 NA
ATOM     11  C   UNL     1       4.943   7.609 -16.398  0.00  0.00    +0.087 A 
ATOM     12  C   UNL     1       6.089   8.034 -17.059  0.00  0.00    +0.040 A 
ATOM     13  C   UNL     1       7.208   7.211 -17.028  0.00  0.00    +0.103 A 
ATOM     14  N   UNL     1       7.143   6.164 -16.174  0.00  0.00    -0.211 NA
BRANCH  11  15
ATOM     15  C   UNL     1       3.642   8.254 -16.609  0.00  0.00    +0.037 A 
ATOM     16  C   UNL     1       2.484   7.764 -16.031  0.00  0.00    +0.100 A 
ATOM     17  N   UNL     1       1.388   8.546 -15.889  0.00  0.00    -0.242 NA
ATOM     18  C   UNL     1       1.550   9.889 -15.834  0.00  0.00    +0.099 A 
ATOM     19  C   UNL     1       2.575  10.430 -16.601  0.00  0.00    +0.021 A 
ATOM     20  C   UNL     1       3.623   9.595 -16.965  0.00  0.00    +0.005 A 
ENDBRANCH  11  15
ENDBRANCH   3   8
BRANCH   1  22
ATOM     21  N   UNL     1       3.164   6.478  -9.110  0.00  0.00    -0.175 NA
ATOM     22  C   UNL     1       3.754   5.530  -9.981  0.00  0.00    +0.269 C 
ATOM     23  O   UNL     1       3.400   4.323  -9.814  0.00  0.00    -0.268 OA
BRANCH  21  28
ATOM     24  C   UNL     1       2.982   6.644  -5.412  0.00  0.00    +0.067 A 
ATOM     25  C   UNL     1       1.600   6.599  -5.321  0.00  0.00    +0.022 A 
ATOM     26  C   UNL     1       0.840   5.993  -6.313  0.00  0.00    +0.074 A 
ATOM     27  C   UNL     1       1.497   5.724  -7.499  0.00  0.00    +0.021 A 
ATOM     28  C   UNL     1       2.783   6.167  -7.763  0.00  0.00    +0.075 A 
ATOM     29  C   UNL     1       3.524   6.596  -6.681  0.00  0.00    +0.034 A 
BRANCH  24  34
ATOM     30  C   UNL     1       4.493   6.934  -0.664  0.00  0.00    +0.054 C 
ATOM     31  C   UNL     1       4.379   7.147  -2.136  0.00  0.00    +0.079 A 
ATOM     32  N   UNL     1       5.376   7.611  -2.929  0.00  0.00    -0.228 NA
ATOM     33  C   UNL     1       4.925   7.523  -4.204  0.00  0.00    +0.182 A 
ATOM     34  N   UNL     1       3.742   6.900  -4.247  0.00  0.00    -0.287 N 
ATOM     35  C   UNL     1       3.356   6.717  -2.973  0.00  0.00    +0.096 A 
ENDBRANCH  24  34
BRANCH  26  36
ATOM     36  C   UNL     1      -0.652   5.988  -6.210  0.00  0.00    +0.419 C 
ATOM     37  F   UNL     1      -1.012   5.047  -5.249  0.00  0.00    -0.166 F 
ATOM     38  F   UNL     1      -1.258   5.755  -7.420  0.00  0.00    -0.166 F 
ATOM     39  F   UNL     1      -0.995   7.233  -5.689  0.00  0.00    -0.166 F 
ENDBRANCH  26  36
ENDBRANCH  21  28
ENDBRANCH   1  22
TORSDOF 6
ENDMDL
MODEL 8
REMARK VINA RESULT:      -9.8      3.940     11.786
REMARK  Name = 
REMARK  6 active torsions:
REMARK  status: ('A' for Active; 'I' for Inactive)
REMARK    1  A    between atoms: N_4  and  C_5
REMARK    2  A    between atoms: C_7  and  N_8
REMARK    3  A    between atoms: C_9  and  C_11
REMARK    4  A    between atoms: C_16  and  N_17
REMARK    5  A    between atoms: C_22  and  C_23
REMARK    6  A    between atoms: C_32  and  C_33
REMARK                            x       y       z     vdW  Elec       q    Type
REMARK                         _______ _______ _______ _____ _____    ______ ____
ROOT
ATOM      1  C   UNL     1       4.974   5.668 -10.181  0.00  0.00    +0.057 A 
ATOM      2  C   UNL     1       5.117   5.362 -11.529  0.00  0.00    +0.021 A 
ATOM      3  C   UNL     1       6.271   5.718 -12.214  0.00  0.00    +0.070 A 
ATOM      4  C   UNL     1       7.325   6.311 -11.534  0.00  0.00    -0.006 A 
ATOM      5  C   UNL     1       8.742   5.990 -11.870  0.00  0.00    +0.032 C 
ATOM      6  C   UNL     1       6.974   7.024 -10.397  0.00  0.00    -0.003 A 
ATOM      7  C   UNL     1       5.814   6.674  -9.720  0.00  0.00    +0.004 A 
ENDROOT
BRANCH   3   8
ATOM      8  N   UNL     1       6.493   5.245 -13.528  0.00  0.00    -0.178 NA
ATOM      9  C   UNL     1       6.108   5.931 -14.699  0.00  0.00    +0.241 A 
ATOM     10  N   UNL     1       4.925   6.569 -14.843  0.00  0.00    -0.212 NA
ATOM     11  C   UNL     1       4.728   7.278 -15.979  0.00  0.00    +0.087 A 
ATOM     12  C   UNL     1       5.847   7.706 -16.683  0.00  0.00    +0.040 A 
ATOM     13  C   UNL     1       6.992   6.920 -16.639  0.00  0.00    +0.103 A 
ATOM     14  N   UNL     1       6.976   5.911 -15.738  0.00  0.00    -0.211 NA
BRANCH  11  15
ATOM     15  C   UNL     1       3.403   7.873 -16.192  0.00  0.00    +0.037 A 
ATOM     16  C   UNL     1       3.089   8.551 -17.357  0.00  0.00    +0.100 A 
ATOM     17  N   UNL     1       1.801   8.746 -17.726  0.00  0.00    -0.242 NA
ATOM     18  C   UNL     1       0.857   7.888 -17.270  0.00  0.00    +0.099 A 
ATOM     19  C   UNL     1       1.042   7.372 -15.993  0.00  0.00    +0.021 A 
ATOM     20  C   UNL     1       2.331   7.359 -15.479  0.00  0.00    +0.005 A 
ENDBRANCH  11  15
ENDBRANCH   3   8
BRANCH   1  22
ATOM     21  N   UNL     1       2.808   6.488  -9.143  0.00  0.00    -0.175 NA
ATOM     22  C   UNL     1       3.729   5.459  -9.455  0.00  0.00    +0.269 C 
ATOM     23  O   UNL     1       3.683   4.428  -8.716  0.00  0.00    -0.268 OA
BRANCH  21  28
ATOM     24  C   UNL     1       0.814   6.257  -6.029  0.00  0.00    +0.067 A 
ATOM     25  C   UNL     1       1.889   6.203  -5.157  0.00  0.00    +0.022 A 
ATOM     26  C   UNL     1       3.112   6.767  -5.498  0.00  0.00    +0.074 A 
ATOM     27  C   UNL     1       3.274   7.098  -6.830  0.00  0.00    +0.021 A 
ATOM     28  C   UNL     1       2.356   6.752  -7.809  0.00  0.00    +0.075 A 
ATOM     29  C   UNL     1       1.106   6.361  -7.374  0.00  0.00    +0.034 A 
BRANCH  24  34
ATOM     30  C   UNL     1      -3.120   5.786  -2.992  0.00  0.00    +0.054 C 
ATOM     31  C   UNL     1      -2.224   5.708  -4.183  0.00  0.00    +0.079 A 
ATOM     32  N   UNL     1      -2.649   5.536  -5.459  0.00  0.00    -0.228 NA
ATOM     33  C   UNL     1      -1.554   5.664  -6.248  0.00  0.00    +0.182 A 
ATOM     34  N   UNL     1      -0.491   6.039  -5.528  0.00  0.00    -0.287 N 
ATOM     35  C   UNL     1      -0.869   6.009  -4.238  0.00  0.00    +0.096 A 
ENDBRANCH  24  34
BRANCH  26  36
ATOM     36  C   UNL     1       4.269   6.664  -4.556  0.00  0.00    +0.419 C 
ATOM     37  F   UNL     1       5.079   7.779  -4.749  0.00  0.00    -0.166 F 
ATOM     38  F   UNL     1       4.959   5.486  -4.704  0.00  0.00    -0.166 F 
ATOM     39  F   UNL     1       3.724   6.790  -3.281  0.00  0.00    -0.166 F 
ENDBRANCH  26  36
ENDBRANCH  21  28
ENDBRANCH   1  22
TORSDOF 6
ENDMDL
MODEL 9
REMARK VINA RESULT:      -9.8      4.883     11.672
REMARK  Name = 
REMARK  6 active torsions:
REMARK  status: ('A' for Active; 'I' for Inactive)
REMARK    1  A    between atoms: N_4  and  C_5
REMARK    2  A    between atoms: C_7  and  N_8
REMARK    3  A    between atoms: C_9  and  C_11
REMARK    4  A    between atoms: C_16  and  N_17
REMARK    5  A    between atoms: C_22  and  C_23
REMARK    6  A    between atoms: C_32  and  C_33
REMARK                            x       y       z     vdW  Elec       q    Type
REMARK                         _______ _______ _______ _____ _____    ______ ____
ROOT
ATOM      1  C   UNL     1       3.313   5.669 -10.376  0.00  0.00    +0.057 A 
ATOM      2  C   UNL     1       3.455   5.446 -11.739  0.00  0.00    +0.021 A 
ATOM      3  C   UNL     1       4.489   6.045 -12.448  0.00  0.00    +0.070 A 
ATOM      4  C   UNL     1       5.436   6.806 -11.779  0.00  0.00    -0.006 A 
ATOM      5  C   UNL     1       6.874   6.780 -12.177  0.00  0.00    +0.032 C 
ATOM      6  C   UNL     1       5.003   7.395 -10.600  0.00  0.00    -0.003 A 
ATOM      7  C   UNL     1       3.962   6.801  -9.899  0.00  0.00    +0.004 A 
ENDROOT
BRANCH   3   8
ATOM      8  N   UNL     1       4.743   5.673 -13.788  0.00  0.00    -0.178 NA
ATOM      9  C   UNL     1       4.234   6.352 -14.915  0.00  0.00    +0.241 A 
ATOM     10  N   UNL     1       2.970   6.822 -15.005  0.00  0.00    -0.212 NA
ATOM     11  C   UNL     1       2.647   7.549 -16.099  0.00  0.00    +0.087 A 
ATOM     12  C   UNL     1       3.676   8.166 -16.800  0.00  0.00    +0.040 A 
ATOM     13  C   UNL     1       4.921   7.550 -16.817  0.00  0.00    +0.103 A 
ATOM     14  N   UNL     1       5.070   6.506 -15.969  0.00  0.00    -0.211 NA
BRANCH  11  15
ATOM     15  C   UNL     1       1.246   7.959 -16.257  0.00  0.00    +0.037 A 
ATOM     16  C   UNL     1       0.870   8.928 -17.170  0.00  0.00    +0.100 A 
ATOM     17  N   UNL     1      -0.410   9.025 -17.599  0.00  0.00    -0.242 NA
ATOM     18  C   UNL     1      -1.198   7.924 -17.550  0.00  0.00    +0.099 A 
ATOM     19  C   UNL     1      -0.986   7.047 -16.494  0.00  0.00    +0.021 A 
ATOM     20  C   UNL     1       0.254   7.070 -15.870  0.00  0.00    +0.005 A 
ENDBRANCH  11  15
ENDBRANCH   3   8
BRANCH   1  22
ATOM     21  N   UNL     1       1.283   6.039  -8.898  0.00  0.00    -0.175 NA
ATOM     22  C   UNL     1       2.164   5.194  -9.617  0.00  0.00    +0.269 C 
ATOM     23  O   UNL     1       2.209   3.985  -9.237  0.00  0.00    -0.268 OA
BRANCH  21  28
ATOM     24  C   UNL     1       1.479   6.421  -5.217  0.00  0.00    +0.067 A 
ATOM     25  C   UNL     1       0.120   6.586  -5.004  0.00  0.00    +0.022 A 
ATOM     26  C   UNL     1      -0.810   6.049  -5.885  0.00  0.00    +0.074 A 
ATOM     27  C   UNL     1      -0.314   5.626  -7.103  0.00  0.00    +0.021 A 
ATOM     28  C   UNL     1       0.992   5.858  -7.506  0.00  0.00    +0.075 A 
ATOM     29  C   UNL     1       1.886   6.228  -6.522  0.00  0.00    +0.034 A 
BRANCH  24  34
ATOM     30  C   UNL     1       3.615   6.360  -0.706  0.00  0.00    +0.054 C 
ATOM     31  C   UNL     1       3.283   6.709  -2.118  0.00  0.00    +0.079 A 
ATOM     32  N   UNL     1       4.125   7.330  -2.979  0.00  0.00    -0.228 NA
ATOM     33  C   UNL     1       3.507   7.332  -4.186  0.00  0.00    +0.182 A 
ATOM     34  N   UNL     1       2.375   6.622  -4.141  0.00  0.00    -0.287 N 
ATOM     35  C   UNL     1       2.184   6.281  -2.855  0.00  0.00    +0.096 A 
ENDBRANCH  24  34
BRANCH  26  36
ATOM     36  C   UNL     1      -2.271   6.271  -5.653  0.00  0.00    +0.419 C 
ATOM     37  F   UNL     1      -2.453   7.610  -5.320  0.00  0.00    -0.166 F 
ATOM     38  F   UNL     1      -2.782   5.423  -4.702  0.00  0.00    -0.166 F 
ATOM     39  F   UNL     1      -2.877   6.088  -6.893  0.00  0.00    -0.166 F 
ENDBRANCH  26  36
ENDBRANCH  21  28
ENDBRANCH   1  22
TORSDOF 6
ENDMDL
