MODEL 1
REMARK VINA RESULT:      -8.5      0.000      0.000
REMARK  Name = 
REMARK  4 active torsions:
REMARK  status: ('A' for Active; 'I' for Inactive)
REMARK    1  A    between atoms: C_2  and  O_4
REMARK    2  A    between atoms: O_4  and  C_5
REMARK    3  A    between atoms: C_5  and  C_6
REMARK    4  A    between atoms: C_6  and  C_8
REMARK                            x       y       z     vdW  Elec       q    Type
REMARK                         _______ _______ _______ _____ _____    ______ ____
ROOT
ATOM      1  C   UNL     1       3.179   6.280  -2.131  0.00  0.00    +0.178 C 
ATOM      2  C   UNL     1       2.660   6.012  -3.431  0.00  0.00    +0.031 C 
ATOM      3  C   UNL     1       3.707   6.830  -4.385  0.00  0.00    +0.006 C 
ATOM      4  C   UNL     1       3.266   5.818  -5.680  0.00  0.00    +0.004 C 
ATOM      5  C   UNL     1       2.116   6.946  -6.189  0.00  0.00    +0.038 C 
ATOM      6  C   UNL     1       0.809   6.323  -5.223  0.00  0.00    +0.153 C 
ATOM      7  O   UNL     1       1.275   4.858  -5.283  0.00  0.00    -0.223 OA
ATOM      8  C   UNL     1       1.689   6.168  -7.520  0.00  0.00    +0.036 C 
ATOM      9  C   UNL     1       2.716   5.218  -7.955  0.00  0.00    -0.038 C 
ATOM     10  C   UNL     1       2.289   4.548  -9.034  0.00  0.00    +0.034 C 
ATOM     11  C   UNL     1       1.322   5.147  -9.971  0.00  0.00    +0.195 C 
ATOM     12  C   UNL     1       1.210   6.602  -9.783  0.00  0.00    +0.038 C 
ATOM     13  O   UNL     1       0.884   4.516 -10.942  0.00  0.00    -0.287 OA
ATOM     14  C   UNL     1       4.182   5.513  -7.832  0.00  0.00    +0.022 C 
ATOM     15  C   UNL     1       0.320   5.647  -7.464  0.00  0.00    +0.009 C 
ATOM     16  C   UNL     1       1.631   7.168  -8.644  0.00  0.00    -0.020 C 
ATOM     17  C   UNL     1       4.379   6.463  -6.655  0.00  0.00    +0.004 C 
ATOM     18  C   UNL     1       4.870   5.816  -3.855  0.00  0.00    +0.046 C 
ATOM     19  C   UNL     1       2.917   4.558  -3.591  0.00  0.00    +0.003 C 
ATOM     20  C   UNL     1       1.495   6.684  -3.760  0.00  0.00    +0.035 C 
ATOM     21  C   UNL     1       4.832   6.404  -2.286  0.00  0.00    +0.194 C 
ATOM     22  O   UNL     1       4.721   7.908  -2.722  0.00  0.00    -0.465 OA
ATOM     23  C   UNL     1       3.851   8.389  -1.734  0.00  0.00    +0.196 C 
ATOM     24  C   UNL     1       3.650   9.835  -1.399  0.00  0.00    +0.094 C 
ATOM     25  N   UNL     1       2.933   7.523  -1.493  0.00  0.00    -0.235 NA
ENDROOT
BRANCH   1  26
ATOM     26  C   UNL     1       3.061   5.138  -1.167  0.00  0.00    +0.218 C 
ATOM     27  O   UNL     1       4.016   4.661  -0.571  0.00  0.00    -0.290 OA
BRANCH  26  28
ATOM     28  C   UNL     1       1.735   4.515  -0.897  0.00  0.00    +0.274 C 
BRANCH  28  29
ATOM     29  O   UNL     1       0.936   5.561  -0.343  0.00  0.00    -0.440 OA
BRANCH  29  31
ATOM     30  C   UNL     1      -0.910   6.871  -0.812  0.00  0.00    +0.121 C 
ATOM     31  C   UNL     1      -0.359   5.774  -0.829  0.00  0.00    +0.318 C 
ATOM     32  O   UNL     1      -0.715   4.939  -1.712  0.00  0.00    -0.250 OA
ENDBRANCH  29  31
ENDBRANCH  28  29
ENDBRANCH  26  28
ENDBRANCH   1  26
TORSDOF 4
ENDMDL
MODEL 2
REMARK VINA RESULT:      -8.2      3.173      8.389
REMARK  Name = 
REMARK  4 active torsions:
REMARK  status: ('A' for Active; 'I' for Inactive)
REMARK    1  A    between atoms: C_2  and  O_4
REMARK    2  A    between atoms: O_4  and  C_5
REMARK    3  A    between atoms: C_5  and  C_6
REMARK    4  A    between atoms: C_6  and  C_8
REMARK                            x       y       z     vdW  Elec       q    Type
REMARK                         _______ _______ _______ _____ _____    ______ ____
ROOT
ATOM      1  C   UNL     1       2.126   6.110 -11.098  0.00  0.00    +0.178 C 
ATOM      2  C   UNL     1       2.544   6.142  -9.735  0.00  0.00    +0.031 C 
ATOM      3  C   UNL     1       1.213   5.590  -8.963  0.00  0.00    +0.006 C 
ATOM      4  C   UNL     1       2.201   5.139  -7.653  0.00  0.00    +0.004 C 
ATOM      5  C   UNL     1       1.881   6.611  -6.887  0.00  0.00    +0.038 C 
ATOM      6  C   UNL     1       3.199   7.485  -7.613  0.00  0.00    +0.153 C 
ATOM      7  O   UNL     1       4.139   6.271  -7.705  0.00  0.00    -0.223 OA
ATOM      8  C   UNL     1       2.665   6.275  -5.534  0.00  0.00    +0.036 C 
ATOM      9  C   UNL     1       2.839   4.833  -5.342  0.00  0.00    -0.038 C 
ATOM     10  C   UNL     1       3.552   4.604  -4.231  0.00  0.00    +0.034 C 
ATOM     11  C   UNL     1       3.535   5.552  -3.103  0.00  0.00    +0.195 C 
ATOM     12  C   UNL     1       2.412   6.498  -3.204  0.00  0.00    +0.038 C 
ATOM     13  O   UNL     1       4.230   5.373  -2.095  0.00  0.00    -0.287 OA
ATOM     14  C   UNL     1       1.780   3.842  -5.727  0.00  0.00    +0.022 C 
ATOM     15  C   UNL     1       3.867   7.093  -5.351  0.00  0.00    +0.009 C 
ATOM     16  C   UNL     1       1.792   6.685  -4.377  0.00  0.00    -0.020 C 
ATOM     17  C   UNL     1       0.972   4.432  -6.879  0.00  0.00    +0.004 C 
ATOM     18  C   UNL     1       1.433   4.175  -9.747  0.00  0.00    +0.046 C 
ATOM     19  C   UNL     1       3.586   5.085  -9.690  0.00  0.00    +0.003 C 
ATOM     20  C   UNL     1       2.622   7.400  -9.163  0.00  0.00    +0.035 C 
ATOM     21  C   UNL     1       1.083   4.822 -11.253  0.00  0.00    +0.194 C 
ATOM     22  O   UNL     1      -0.125   5.682 -10.740  0.00  0.00    -0.465 OA
ATOM     23  C   UNL     1       0.039   6.832 -11.524  0.00  0.00    +0.196 C 
ATOM     24  C   UNL     1      -1.014   7.872 -11.753  0.00  0.00    +0.094 C 
ATOM     25  N   UNL     1       1.287   7.125 -11.624  0.00  0.00    -0.235 NA
ENDROOT
BRANCH   1  26
ATOM     26  C   UNL     1       3.203   5.732 -12.069  0.00  0.00    +0.218 C 
ATOM     27  O   UNL     1       3.039   4.927 -12.974  0.00  0.00    -0.290 OA
BRANCH  26  28
ATOM     28  C   UNL     1       4.561   6.337 -11.961  0.00  0.00    +0.274 C 
BRANCH  28  29
ATOM     29  O   UNL     1       5.451   5.351 -12.486  0.00  0.00    -0.440 OA
BRANCH  29  31
ATOM     30  C   UNL     1       7.201   5.698 -11.016  0.00  0.00    +0.121 C 
ATOM     31  C   UNL     1       6.807   5.387 -12.136  0.00  0.00    +0.318 C 
ATOM     32  O   UNL     1       7.533   4.623 -12.836  0.00  0.00    -0.250 OA
ENDBRANCH  29  31
ENDBRANCH  28  29
ENDBRANCH  26  28
ENDBRANCH   1  26
TORSDOF 4
ENDMDL
MODEL 3
REMARK VINA RESULT:      -8.1      1.792      2.178
REMARK  Name = 
REMARK  4 active torsions:
REMARK  status: ('A' for Active; 'I' for Inactive)
REMARK    1  A    between atoms: C_2  and  O_4
REMARK    2  A    between atoms: O_4  and  C_5
REMARK    3  A    between atoms: C_5  and  C_6
REMARK    4  A    between atoms: C_6  and  C_8
REMARK                            x       y       z     vdW  Elec       q    Type
REMARK                         _______ _______ _______ _____ _____    ______ ____
ROOT
ATOM      1  C   UNL     1       2.059   6.035  -3.409  0.00  0.00    +0.178 C 
ATOM      2  C   UNL     1       2.089   6.033  -4.835  0.00  0.00    +0.031 C 
ATOM      3  C   UNL     1       3.695   6.101  -5.137  0.00  0.00    +0.006 C 
ATOM      4  C   UNL     1       3.399   5.434  -6.674  0.00  0.00    +0.004 C 
ATOM      5  C   UNL     1       3.335   6.981  -7.349  0.00  0.00    +0.038 C 
ATOM      6  C   UNL     1       1.629   7.219  -7.097  0.00  0.00    +0.153 C 
ATOM      7  O   UNL     1       1.254   5.737  -7.263  0.00  0.00    -0.223 OA
ATOM      8  C   UNL     1       3.186   6.501  -8.867  0.00  0.00    +0.036 C 
ATOM      9  C   UNL     1       3.652   5.125  -9.057  0.00  0.00    -0.038 C 
ATOM     10  C   UNL     1       3.450   4.747 -10.327  0.00  0.00    +0.034 C 
ATOM     11  C   UNL     1       3.434   5.732 -11.423  0.00  0.00    +0.195 C 
ATOM     12  C   UNL     1       4.015   7.019 -11.008  0.00  0.00    +0.038 C 
ATOM     13  O   UNL     1       3.199   5.398 -12.592  0.00  0.00    -0.287 OA
ATOM     14  C   UNL     1       4.845   4.578  -8.330  0.00  0.00    +0.022 C 
ATOM     15  C   UNL     1       1.874   6.815  -9.441  0.00  0.00    +0.009 C 
ATOM     16  C   UNL     1       4.132   7.317  -9.707  0.00  0.00    -0.020 C 
ATOM     17  C   UNL     1       4.976   5.320  -7.005  0.00  0.00    +0.004 C 
ATOM     18  C   UNL     1       3.818   4.642  -4.415  0.00  0.00    +0.046 C 
ATOM     19  C   UNL     1       1.605   4.669  -5.168  0.00  0.00    +0.003 C 
ATOM     20  C   UNL     1       1.703   7.215  -5.442  0.00  0.00    +0.035 C 
ATOM     21  C   UNL     1       3.422   5.229  -2.896  0.00  0.00    +0.194 C 
ATOM     22  O   UNL     1       4.294   6.527  -3.035  0.00  0.00    -0.465 OA
ATOM     23  C   UNL     1       3.470   7.450  -2.379  0.00  0.00    +0.196 C 
ATOM     24  C   UNL     1       3.916   8.785  -1.866  0.00  0.00    +0.094 C 
ATOM     25  N   UNL     1       2.239   7.238  -2.681  0.00  0.00    -0.235 NA
ENDROOT
BRANCH   1  26
ATOM     26  C   UNL     1       0.977   5.189  -2.809  0.00  0.00    +0.218 C 
ATOM     27  O   UNL     1       1.174   4.382  -1.913  0.00  0.00    -0.290 OA
BRANCH  26  28
ATOM     28  C   UNL     1      -0.425   5.296  -3.305  0.00  0.00    +0.274 C 
BRANCH  28  29
ATOM     29  O   UNL     1      -1.223   5.469  -2.133  0.00  0.00    -0.440 OA
BRANCH  29  31
ATOM     30  C   UNL     1      -3.225   6.624  -2.152  0.00  0.00    +0.121 C 
ATOM     31  C   UNL     1      -2.615   5.564  -2.252  0.00  0.00    +0.318 C 
ATOM     32  O   UNL     1      -3.130   4.639  -2.945  0.00  0.00    -0.250 OA
ENDBRANCH  29  31
ENDBRANCH  28  29
ENDBRANCH  26  28
ENDBRANCH   1  26
TORSDOF 4
ENDMDL
MODEL 4
REMARK VINA RESULT:      -7.8      3.083      8.576
REMARK  Name = 
REMARK  4 active torsions:
REMARK  status: ('A' for Active; 'I' for Inactive)
REMARK    1  A    between atoms: C_2  and  O_4
REMARK    2  A    between atoms: O_4  and  C_5
REMARK    3  A    between atoms: C_5  and  C_6
REMARK    4  A    between atoms: C_6  and  C_8
REMARK                            x       y       z     vdW  Elec       q    Type
REMARK                         _______ _______ _______ _____ _____    ______ ____
ROOT
ATOM      1  C   UNL     1       1.892   6.176 -11.165  0.00  0.00    +0.178 C 
ATOM      2  C   UNL     1       2.362   6.188  -9.819  0.00  0.00    +0.031 C 
ATOM      3  C   UNL     1       1.093   5.543  -9.014  0.00  0.00    +0.006 C 
ATOM      4  C   UNL     1       2.154   5.105  -7.759  0.00  0.00    +0.004 C 
ATOM      5  C   UNL     1       1.791   6.533  -6.933  0.00  0.00    +0.038 C 
ATOM      6  C   UNL     1       3.033   7.496  -7.681  0.00  0.00    +0.153 C 
ATOM      7  O   UNL     1       4.029   6.337  -7.849  0.00  0.00    -0.223 OA
ATOM      8  C   UNL     1       2.645   6.197  -5.623  0.00  0.00    +0.036 C 
ATOM      9  C   UNL     1       2.900   4.760  -5.487  0.00  0.00    -0.038 C 
ATOM     10  C   UNL     1       3.668   4.534  -4.412  0.00  0.00    +0.034 C 
ATOM     11  C   UNL     1       3.648   5.445  -3.254  0.00  0.00    +0.195 C 
ATOM     12  C   UNL     1       2.475   6.334  -3.280  0.00  0.00    +0.038 C 
ATOM     13  O   UNL     1       4.391   5.271  -2.279  0.00  0.00    -0.287 OA
ATOM     14  C   UNL     1       1.878   3.728  -5.863  0.00  0.00    +0.022 C 
ATOM     15  C   UNL     1       3.811   7.070  -5.460  0.00  0.00    +0.009 C 
ATOM     16  C   UNL     1       1.800   6.525  -4.421  0.00  0.00    -0.020 C 
ATOM     17  C   UNL     1       0.996   4.310  -6.962  0.00  0.00    +0.004 C 
ATOM     18  C   UNL     1       1.353   4.167  -9.853  0.00  0.00    +0.046 C 
ATOM     19  C   UNL     1       3.457   5.185  -9.849  0.00  0.00    +0.003 C 
ATOM     20  C   UNL     1       2.398   7.430  -9.209  0.00  0.00    +0.035 C 
ATOM     21  C   UNL     1       0.910   4.841 -11.322  0.00  0.00    +0.194 C 
ATOM     22  O   UNL     1      -0.319   5.621 -10.735  0.00  0.00    -0.465 OA
ATOM     23  C   UNL     1      -0.244   6.801 -11.486  0.00  0.00    +0.196 C 
ATOM     24  C   UNL     1      -1.358   7.791 -11.640  0.00  0.00    +0.094 C 
ATOM     25  N   UNL     1       0.981   7.162 -11.624  0.00  0.00    -0.235 NA
ENDROOT
BRANCH   1  26
ATOM     26  C   UNL     1       2.946   5.886 -12.189  0.00  0.00    +0.218 C 
ATOM     27  O   UNL     1       4.087   6.320 -12.121  0.00  0.00    -0.290 OA
BRANCH  26  28
ATOM     28  C   UNL     1       2.633   5.036 -13.373  0.00  0.00    +0.274 C 
BRANCH  28  29
ATOM     29  O   UNL     1       2.364   5.957 -14.432  0.00  0.00    -0.440 OA
BRANCH  29  31
ATOM     30  C   UNL     1       0.673   7.165 -15.445  0.00  0.00    +0.121 C 
ATOM     31  C   UNL     1       1.044   6.152 -14.860  0.00  0.00    +0.318 C 
ATOM     32  O   UNL     1       0.412   5.075 -15.065  0.00  0.00    -0.250 OA
ENDBRANCH  29  31
ENDBRANCH  28  29
ENDBRANCH  26  28
ENDBRANCH   1  26
TORSDOF 4
ENDMDL
MODEL 5
REMARK VINA RESULT:      -7.5      1.722      3.721
REMARK  Name = 
REMARK  4 active torsions:
REMARK  status: ('A' for Active; 'I' for Inactive)
REMARK    1  A    between atoms: C_2  and  O_4
REMARK    2  A    between atoms: O_4  and  C_5
REMARK    3  A    between atoms: C_5  and  C_6
REMARK    4  A    between atoms: C_6  and  C_8
REMARK                            x       y       z     vdW  Elec       q    Type
REMARK                         _______ _______ _______ _____ _____    ______ ____
ROOT
ATOM      1  C   UNL     1       3.531   6.016  -2.031  0.00  0.00    +0.178 C 
ATOM      2  C   UNL     1       3.512   6.069  -3.456  0.00  0.00    +0.031 C 
ATOM      3  C   UNL     1       2.123   5.276  -3.801  0.00  0.00    +0.006 C 
ATOM      4  C   UNL     1       2.082   6.073  -5.304  0.00  0.00    +0.004 C 
ATOM      5  C   UNL     1       2.863   4.766  -6.035  0.00  0.00    +0.038 C 
ATOM      6  C   UNL     1       4.482   5.337  -5.749  0.00  0.00    +0.153 C 
ATOM      7  O   UNL     1       4.124   6.830  -5.848  0.00  0.00    -0.223 OA
ATOM      8  C   UNL     1       2.779   5.329  -7.530  0.00  0.00    +0.036 C 
ATOM      9  C   UNL     1       1.727   6.337  -7.679  0.00  0.00    -0.038 C 
ATOM     10  C   UNL     1       1.736   6.823  -8.929  0.00  0.00    +0.034 C 
ATOM     11  C   UNL     1       2.215   6.010 -10.061  0.00  0.00    +0.195 C 
ATOM     12  C   UNL     1       2.298   4.583  -9.710  0.00  0.00    +0.038 C 
ATOM     13  O   UNL     1       2.273   6.468 -11.209  0.00  0.00    -0.287 OA
ATOM     14  C   UNL     1       0.412   6.233  -6.963  0.00  0.00    +0.022 C 
ATOM     15  C   UNL     1       4.089   5.687  -8.081  0.00  0.00    +0.009 C 
ATOM     16  C   UNL     1       2.326   4.206  -8.425  0.00  0.00    -0.020 C 
ATOM     17  C   UNL     1       0.635   5.456  -5.671  0.00  0.00    +0.004 C 
ATOM     18  C   UNL     1       1.331   6.475  -3.028  0.00  0.00    +0.046 C 
ATOM     19  C   UNL     1       3.306   7.515  -3.725  0.00  0.00    +0.003 C 
ATOM     20  C   UNL     1       4.407   5.231  -4.097  0.00  0.00    +0.035 C 
ATOM     21  C   UNL     1       1.947   6.071  -1.523  0.00  0.00    +0.194 C 
ATOM     22  O   UNL     1       1.781   4.524  -1.734  0.00  0.00    -0.465 OA
ATOM     23  C   UNL     1       2.937   4.061  -1.092  0.00  0.00    +0.196 C 
ATOM     24  C   UNL     1       3.162   2.650  -0.642  0.00  0.00    +0.094 C 
ATOM     25  N   UNL     1       3.929   4.835  -1.354  0.00  0.00    -0.235 NA
ENDROOT
BRANCH   1  26
ATOM     26  C   UNL     1       4.092   7.240  -1.372  0.00  0.00    +0.218 C 
ATOM     27  O   UNL     1       5.242   7.622  -1.531  0.00  0.00    -0.290 OA
BRANCH  26  28
ATOM     28  C   UNL     1       3.244   8.059  -0.460  0.00  0.00    +0.274 C 
BRANCH  28  29
ATOM     29  O   UNL     1       3.552   9.416  -0.783  0.00  0.00    -0.440 OA
BRANCH  29  31
ATOM     30  C   UNL     1       2.189  10.505   0.734  0.00  0.00    +0.121 C 
ATOM     31  C   UNL     1       3.260  10.429   0.139  0.00  0.00    +0.318 C 
ATOM     32  O   UNL     1       4.286  10.932   0.684  0.00  0.00    -0.250 OA
ENDBRANCH  29  31
ENDBRANCH  28  29
ENDBRANCH  26  28
ENDBRANCH   1  26
TORSDOF 4
ENDMDL
MODEL 6
REMARK VINA RESULT:      -7.4      2.574      3.969
REMARK  Name = 
REMARK  4 active torsions:
REMARK  status: ('A' for Active; 'I' for Inactive)
REMARK    1  A    between atoms: C_2  and  O_4
REMARK    2  A    between atoms: O_4  and  C_5
REMARK    3  A    between atoms: C_5  and  C_6
REMARK    4  A    between atoms: C_6  and  C_8
REMARK                            x       y       z     vdW  Elec       q    Type
REMARK                         _______ _______ _______ _____ _____    ______ ____
ROOT
ATOM      1  C   UNL     1       0.200   5.573  -4.319  0.00  0.00    +0.178 C 
ATOM      2  C   UNL     1       1.150   5.389  -5.366  0.00  0.00    +0.031 C 
ATOM      3  C   UNL     1       0.589   6.413  -6.511  0.00  0.00    +0.006 C 
ATOM      4  C   UNL     1       2.149   6.456  -7.189  0.00  0.00    +0.004 C 
ATOM      5  C   UNL     1       1.731   5.224  -8.266  0.00  0.00    +0.038 C 
ATOM      6  C   UNL     1       2.192   3.908  -7.225  0.00  0.00    +0.153 C 
ATOM      7  O   UNL     1       3.338   4.668  -6.537  0.00  0.00    -0.223 OA
ATOM      8  C   UNL     1       3.103   5.239  -9.087  0.00  0.00    +0.036 C 
ATOM      9  C   UNL     1       3.824   6.506  -8.930  0.00  0.00    -0.038 C 
ATOM     10  C   UNL     1       4.992   6.448  -9.584  0.00  0.00    +0.034 C 
ATOM     11  C   UNL     1       5.165   5.585 -10.765  0.00  0.00    +0.195 C 
ATOM     12  C   UNL     1       3.872   5.141 -11.310  0.00  0.00    +0.038 C 
ATOM     13  O   UNL     1       6.255   5.488 -11.344  0.00  0.00    -0.287 OA
ATOM     14  C   UNL     1       3.114   7.825  -8.851  0.00  0.00    +0.022 C 
ATOM     15  C   UNL     1       3.899   4.024  -8.895  0.00  0.00    +0.009 C 
ATOM     16  C   UNL     1       2.767   5.201 -10.554  0.00  0.00    -0.020 C 
ATOM     17  C   UNL     1       1.727   7.584  -8.265  0.00  0.00    +0.004 C 
ATOM     18  C   UNL     1       0.897   7.631  -5.470  0.00  0.00    +0.046 C 
ATOM     19  C   UNL     1       2.389   5.966  -4.786  0.00  0.00    +0.003 C 
ATOM     20  C   UNL     1       1.044   4.200  -6.067  0.00  0.00    +0.035 C 
ATOM     21  C   UNL     1      -0.292   7.161  -4.386  0.00  0.00    +0.194 C 
ATOM     22  O   UNL     1      -1.349   6.832  -5.499  0.00  0.00    -0.465 OA
ATOM     23  C   UNL     1      -1.959   5.704  -4.935  0.00  0.00    +0.196 C 
ATOM     24  C   UNL     1      -3.285   5.147  -5.353  0.00  0.00    +0.094 C 
ATOM     25  N   UNL     1      -1.075   4.955  -4.379  0.00  0.00    -0.235 NA
ENDROOT
BRANCH   1  26
ATOM     26  C   UNL     1       0.777   5.503  -2.938  0.00  0.00    +0.218 C 
ATOM     27  O   UNL     1       1.580   4.651  -2.587  0.00  0.00    -0.290 OA
BRANCH  26  28
ATOM     28  C   UNL     1       0.374   6.497  -1.903  0.00  0.00    +0.274 C 
BRANCH  28  29
ATOM     29  O   UNL     1      -0.503   5.787  -1.026  0.00  0.00    -0.440 OA
BRANCH  29  31
ATOM     30  C   UNL     1      -2.391   7.104  -1.234  0.00  0.00    +0.121 C 
ATOM     31  C   UNL     1      -1.885   5.992  -1.116  0.00  0.00    +0.318 C 
ATOM     32  O   UNL     1      -2.520   4.995  -1.567  0.00  0.00    -0.250 OA
ENDBRANCH  29  31
ENDBRANCH  28  29
ENDBRANCH  26  28
ENDBRANCH   1  26
TORSDOF 4
ENDMDL
MODEL 7
REMARK VINA RESULT:      -7.4      3.773      8.447
REMARK  Name = 
REMARK  4 active torsions:
REMARK  status: ('A' for Active; 'I' for Inactive)
REMARK    1  A    between atoms: C_2  and  O_4
REMARK    2  A    between atoms: O_4  and  C_5
REMARK    3  A    between atoms: C_5  and  C_6
REMARK    4  A    between atoms: C_6  and  C_8
REMARK                            x       y       z     vdW  Elec       q    Type
REMARK                         _______ _______ _______ _____ _____    ______ ____
ROOT
ATOM      1  C   UNL     1       4.401   5.595 -11.022  0.00  0.00    +0.178 C 
ATOM      2  C   UNL     1       3.486   5.380  -9.950  0.00  0.00    +0.031 C 
ATOM      3  C   UNL     1       3.996   6.479  -8.850  0.00  0.00    +0.006 C 
ATOM      4  C   UNL     1       2.450   6.436  -8.141  0.00  0.00    +0.004 C 
ATOM      5  C   UNL     1       2.973   5.271  -7.035  0.00  0.00    +0.038 C 
ATOM      6  C   UNL     1       2.585   3.893  -8.024  0.00  0.00    +0.153 C 
ATOM      7  O   UNL     1       1.376   4.549  -8.711  0.00  0.00    -0.223 OA
ATOM      8  C   UNL     1       1.619   5.219  -6.185  0.00  0.00    +0.036 C 
ATOM      9  C   UNL     1       0.809   6.426  -6.367  0.00  0.00    -0.038 C 
ATOM     10  C   UNL     1      -0.340   6.310  -5.688  0.00  0.00    +0.034 C 
ATOM     11  C   UNL     1      -0.430   5.476  -4.476  0.00  0.00    +0.195 C 
ATOM     12  C   UNL     1       0.901   5.141  -3.945  0.00  0.00    +0.038 C 
ATOM     13  O   UNL     1      -1.500   5.323  -3.871  0.00  0.00    -0.287 OA
ATOM     14  C   UNL     1       1.423   7.789  -6.503  0.00  0.00    +0.022 C 
ATOM     15  C   UNL     1       0.906   3.946  -6.322  0.00  0.00    +0.009 C 
ATOM     16  C   UNL     1       1.985   5.252  -4.725  0.00  0.00    -0.020 C 
ATOM     17  C   UNL     1       2.813   7.625  -7.110  0.00  0.00    +0.004 C 
ATOM     18  C   UNL     1       3.584   7.637  -9.923  0.00  0.00    +0.046 C 
ATOM     19  C   UNL     1       2.199   5.851 -10.521  0.00  0.00    +0.003 C 
ATOM     20  C   UNL     1       3.688   4.225  -9.214  0.00  0.00    +0.035 C 
ATOM     21  C   UNL     1       4.782   7.215 -11.016  0.00  0.00    +0.194 C 
ATOM     22  O   UNL     1       5.880   6.997  -9.916  0.00  0.00    -0.465 OA
ATOM     23  C   UNL     1       6.557   5.895 -10.456  0.00  0.00    +0.196 C 
ATOM     24  C   UNL     1       7.926   5.446 -10.049  0.00  0.00    +0.094 C 
ATOM     25  N   UNL     1       5.717   5.069 -10.970  0.00  0.00    -0.235 NA
ENDROOT
BRANCH   1  26
ATOM     26  C   UNL     1       3.804   5.440 -12.388  0.00  0.00    +0.218 C 
ATOM     27  O   UNL     1       2.735   5.936 -12.714  0.00  0.00    -0.290 OA
BRANCH  26  28
ATOM     28  C   UNL     1       4.508   4.643 -13.432  0.00  0.00    +0.274 C 
BRANCH  28  29
ATOM     29  O   UNL     1       5.050   5.607 -14.336  0.00  0.00    -0.440 OA
BRANCH  29  31
ATOM     30  C   UNL     1       6.842   7.052 -14.120  0.00  0.00    +0.121 C 
ATOM     31  C   UNL     1       6.416   5.913 -14.283  0.00  0.00    +0.318 C 
ATOM     32  O   UNL     1       7.140   4.944 -13.911  0.00  0.00    -0.250 OA
ENDBRANCH  29  31
ENDBRANCH  28  29
ENDBRANCH  26  28
ENDBRANCH   1  26
TORSDOF 4
ENDMDL
MODEL 8
REMARK VINA RESULT:      -7.3      3.618      8.213
REMARK  Name = 
REMARK  4 active torsions:
REMARK  status: ('A' for Active; 'I' for Inactive)
REMARK    1  A    between atoms: C_2  and  O_4
REMARK    2  A    between atoms: O_4  and  C_5
REMARK    3  A    between atoms: C_5  and  C_6
REMARK    4  A    between atoms: C_6  and  C_8
REMARK                            x       y       z     vdW  Elec       q    Type
REMARK                         _______ _______ _______ _____ _____    ______ ____
ROOT
ATOM      1  C   UNL     1       4.687   5.488 -11.264  0.00  0.00    +0.178 C 
ATOM      2  C   UNL     1       3.771   5.280 -10.191  0.00  0.00    +0.031 C 
ATOM      3  C   UNL     1       4.174   6.490  -9.167  0.00  0.00    +0.006 C 
ATOM      4  C   UNL     1       2.623   6.379  -8.478  0.00  0.00    +0.004 C 
ATOM      5  C   UNL     1       3.212   5.341  -7.283  0.00  0.00    +0.038 C 
ATOM      6  C   UNL     1       2.949   3.869  -8.175  0.00  0.00    +0.153 C 
ATOM      7  O   UNL     1       1.706   4.379  -8.924  0.00  0.00    -0.223 OA
ATOM      8  C   UNL     1       1.850   5.245  -6.450  0.00  0.00    +0.036 C 
ATOM      9  C   UNL     1       0.954   6.370  -6.731  0.00  0.00    -0.038 C 
ATOM     10  C   UNL     1      -0.196   6.214  -6.060  0.00  0.00    +0.034 C 
ATOM     11  C   UNL     1      -0.245   5.464  -4.792  0.00  0.00    +0.195 C 
ATOM     12  C   UNL     1       1.098   5.272  -4.220  0.00  0.00    +0.038 C 
ATOM     13  O   UNL     1      -1.311   5.273  -4.192  0.00  0.00    -0.287 OA
ATOM     14  C   UNL     1       1.466   7.762  -6.956  0.00  0.00    +0.022 C 
ATOM     15  C   UNL     1       1.238   3.914  -6.504  0.00  0.00    +0.009 C 
ATOM     16  C   UNL     1       2.184   5.410  -4.992  0.00  0.00    -0.020 C 
ATOM     17  C   UNL     1       2.874   7.664  -7.532  0.00  0.00    +0.004 C 
ATOM     18  C   UNL     1       3.696   7.534 -10.327  0.00  0.00    +0.046 C 
ATOM     19  C   UNL     1       2.462   5.608 -10.813  0.00  0.00    +0.003 C 
ATOM     20  C   UNL     1       4.045   4.200  -9.371  0.00  0.00    +0.035 C 
ATOM     21  C   UNL     1       4.943   7.129 -11.371  0.00  0.00    +0.194 C 
ATOM     22  O   UNL     1       6.034   7.075 -10.243  0.00  0.00    -0.465 OA
ATOM     23  C   UNL     1       6.802   5.993 -10.693  0.00  0.00    +0.196 C 
ATOM     24  C   UNL     1       8.194   5.681 -10.236  0.00  0.00    +0.094 C 
ATOM     25  N   UNL     1       6.037   5.070 -11.156  0.00  0.00    -0.235 NA
ENDROOT
BRANCH   1  26
ATOM     26  C   UNL     1       4.129   5.190 -12.623  0.00  0.00    +0.218 C 
ATOM     27  O   UNL     1       4.376   4.165 -13.241  0.00  0.00    -0.290 OA
BRANCH  26  28
ATOM     28  C   UNL     1       3.231   6.169 -13.299  0.00  0.00    +0.274 C 
BRANCH  28  29
ATOM     29  O   UNL     1       2.564   5.422 -14.317  0.00  0.00    -0.440 OA
BRANCH  29  31
ATOM     30  C   UNL     1       0.617   4.183 -14.177  0.00  0.00    +0.121 C 
ATOM     31  C   UNL     1       1.172   5.274 -14.266  0.00  0.00    +0.318 C 
ATOM     32  O   UNL     1       0.568   6.292 -13.817  0.00  0.00    -0.250 OA
ENDBRANCH  29  31
ENDBRANCH  28  29
ENDBRANCH  26  28
ENDBRANCH   1  26
TORSDOF 4
ENDMDL
MODEL 9
REMARK VINA RESULT:      -7.2      2.155      3.792
REMARK  Name = 
REMARK  4 active torsions:
REMARK  status: ('A' for Active; 'I' for Inactive)
REMARK    1  A    between atoms: C_2  and  O_4
REMARK    2  A    between atoms: O_4  and  C_5
REMARK    3  A    between atoms: C_5  and  C_6
REMARK    4  A    between atoms: C_6  and  C_8
REMARK                            x       y       z     vdW  Elec       q    Type
REMARK                         _______ _______ _______ _____ _____    ______ ____
ROOT
ATOM      1  C   UNL     1       0.564   5.457  -3.432  0.00  0.00    +0.178 C 
ATOM      2  C   UNL     1       1.299   5.274  -4.640  0.00  0.00    +0.031 C 
ATOM      3  C   UNL     1       0.608   6.382  -5.624  0.00  0.00    +0.006 C 
ATOM      4  C   UNL     1       2.023   6.375  -6.570  0.00  0.00    +0.004 C 
ATOM      5  C   UNL     1       1.345   5.221  -7.601  0.00  0.00    +0.038 C 
ATOM      6  C   UNL     1       1.903   3.833  -6.712  0.00  0.00    +0.153 C 
ATOM      7  O   UNL     1       3.197   4.496  -6.212  0.00  0.00    -0.223 OA
ATOM      8  C   UNL     1       2.549   5.204  -8.655  0.00  0.00    +0.036 C 
ATOM      9  C   UNL     1       3.362   6.421  -8.580  0.00  0.00    -0.038 C 
ATOM     10  C   UNL     1       4.390   6.334  -9.435  0.00  0.00    +0.034 C 
ATOM     11  C   UNL     1       4.297   5.522 -10.661  0.00  0.00    +0.195 C 
ATOM     12  C   UNL     1       2.903   5.175 -10.981  0.00  0.00    +0.038 C 
ATOM     13  O   UNL     1       5.259   5.396 -11.431  0.00  0.00    -0.287 OA
ATOM     14  C   UNL     1       2.759   7.771  -8.324  0.00  0.00    +0.022 C 
ATOM     15  C   UNL     1       3.291   3.940  -8.656  0.00  0.00    +0.009 C 
ATOM     16  C   UNL     1       1.956   5.256 -10.037  0.00  0.00    -0.020 C 
ATOM     17  C   UNL     1       1.486   7.576  -7.507  0.00  0.00    +0.004 C 
ATOM     18  C   UNL     1       1.170   7.529  -4.609  0.00  0.00    +0.046 C 
ATOM     19  C   UNL     1       2.655   5.756  -4.270  0.00  0.00    +0.003 C 
ATOM     20  C   UNL     1       0.999   4.129  -5.356  0.00  0.00    +0.035 C 
ATOM     21  C   UNL     1       0.165   7.071  -3.348  0.00  0.00    +0.194 C 
ATOM     22  O   UNL     1      -1.091   6.853  -4.264  0.00  0.00    -0.465 OA
ATOM     23  C   UNL     1      -1.658   5.732  -3.644  0.00  0.00    +0.196 C 
ATOM     24  C   UNL     1      -3.069   5.268  -3.838  0.00  0.00    +0.094 C 
ATOM     25  N   UNL     1      -0.737   4.911  -3.286  0.00  0.00    -0.235 NA
ENDROOT
BRANCH   1  26
ATOM     26  C   UNL     1       1.371   5.289  -2.181  0.00  0.00    +0.218 C 
ATOM     27  O   UNL     1       1.754   4.204  -1.768  0.00  0.00    -0.290 OA
BRANCH  26  28
ATOM     28  C   UNL     1       1.744   6.476  -1.361  0.00  0.00    +0.274 C 
BRANCH  28  29
ATOM     29  O   UNL     1       2.663   5.982  -0.385  0.00  0.00    -0.440 OA
BRANCH  29  31
ATOM     30  C   UNL     1       4.426   7.216  -1.229  0.00  0.00    +0.121 C 
ATOM     31  C   UNL     1       3.982   6.451  -0.378  0.00  0.00    +0.318 C 
ATOM     32  O   UNL     1       4.513   6.461   0.771  0.00  0.00    -0.250 OA
ENDBRANCH  29  31
ENDBRANCH  28  29
ENDBRANCH  26  28
ENDBRANCH   1  26
TORSDOF 4
ENDMDL
