MODEL 1
REMARK VINA RESULT:      -9.7      0.000      0.000
REMARK  Name = 
REMARK  10 active torsions:
REMARK  status: ('A' for Active; 'I' for Inactive)
REMARK    1  A    between atoms: S_2  and  C_5
REMARK    2  A    between atoms: C_5  and  C_6
REMARK    3  A    between atoms: C_6  and  N_7
REMARK    4  A    between atoms: N_7  and  C_8
REMARK    5  A    between atoms: C_8  and  C_9
REMARK    6  A    between atoms: C_12  and  C_13
REMARK    7  A    between atoms: N_21  and  C_22
REMARK    8  A    between atoms: C_25  and  O_26
REMARK    9  A    between atoms: O_26  and  C_27
REMARK   10  A    between atoms: C_27  and  C_28
REMARK                            x       y       z     vdW  Elec       q    Type
REMARK                         _______ _______ _______ _____ _____    ______ ____
ROOT
ATOM      1  C   UNL     1       3.655   7.790  -2.538  0.00  0.00    +0.035 A 
ATOM      2  C   UNL     1       2.680   7.143  -3.289  0.00  0.00    +0.007 A 
ATOM      3  C   UNL     1       3.091   6.215  -4.239  0.00  0.00    +0.051 A 
ATOM      4  C   UNL     1       4.435   5.999  -4.517  0.00  0.00    +0.086 A 
ATOM      5  N   UNL     1       4.793   4.926  -5.232  0.00  0.00    -0.224 NA
ATOM      6  C   UNL     1       3.850   3.976  -5.440  0.00  0.00    +0.200 A 
ATOM      7  N   UNL     1       2.535   4.302  -5.418  0.00  0.00    -0.207 NA
ATOM      8  C   UNL     1       5.344   6.955  -4.076  0.00  0.00    +0.019 A 
ATOM      9  C   UNL     1       2.092   5.405  -4.766  0.00  0.00    +0.155 A 
ATOM     10  N   UNL     1       0.885   6.044  -5.202  0.00  0.00    -0.194 NA
ATOM     11  C   UNL     1       4.927   7.805  -3.059  0.00  0.00    +0.005 A 
ENDROOT
BRANCH  10  12
ATOM     12  C   UNL     1       0.882   6.530  -6.550  0.00  0.00    +0.073 A 
ATOM     13  C   UNL     1       0.222   5.870  -7.573  0.00  0.00    +0.031 A 
ATOM     14  C   UNL     1       0.624   5.967  -8.900  0.00  0.00    +0.093 A 
ATOM     15 CL   UNL     1       0.067   4.695  -9.985  0.00  0.00    -0.079 Cl
ATOM     16  C   UNL     1       1.830   6.597  -9.181  0.00  0.00    +0.150 A 
ATOM     17  C   UNL     1       2.272   7.515  -8.238  0.00  0.00    +0.039 A 
ATOM     18  C   UNL     1       1.772   7.521  -6.943  0.00  0.00    +0.020 A 
BRANCH  16  19
ATOM     19  O   UNL     1       2.704   6.113 -10.157  0.00  0.00    -0.470 OA
BRANCH  19  20
ATOM     20  C   UNL     1       3.791   5.253  -9.846  0.00  0.00    +0.232 C 
BRANCH  20  21
ATOM     21  C   UNL     1       5.017   6.112  -9.832  0.00  0.00    +0.023 A 
ATOM     22  C   UNL     1       5.158   7.221 -10.640  0.00  0.00    +0.029 A 
ATOM     23  C   UNL     1       6.391   7.629 -11.135  0.00  0.00    +0.140 A 
ATOM     24  F   UNL     1       6.520   8.207 -12.364  0.00  0.00    -0.204 F 
ATOM     25  C   UNL     1       7.500   6.911 -10.704  0.00  0.00    +0.030 A 
ATOM     26  C   UNL     1       7.436   6.050  -9.618  0.00  0.00    +0.002 A 
ATOM     27  C   UNL     1       6.172   5.608  -9.263  0.00  0.00    -0.001 A 
ENDBRANCH  20  21
ENDBRANCH  19  20
ENDBRANCH  16  19
ENDBRANCH  10  12
BRANCH   1  30
ATOM     28  C   UNL     1       2.407   7.970   0.773  0.00  0.00    +0.140 A 
ATOM     29  O   UNL     1       2.296   8.215  -0.501  0.00  0.00    -0.456 OA
ATOM     30  C   UNL     1       3.434   8.132  -1.126  0.00  0.00    +0.145 A 
ATOM     31  C   UNL     1       4.395   8.097  -0.124  0.00  0.00    +0.040 A 
ATOM     32  C   UNL     1       3.742   7.681   1.029  0.00  0.00    +0.038 A 
BRANCH  28  33
ATOM     33  C   UNL     1       1.348   8.063   1.823  0.00  0.00    +0.153 C 
BRANCH  33  34
ATOM     34  N   UNL     1       0.377   6.988   1.634  0.00  0.00    -0.208 NA
BRANCH  34  35
ATOM     35  C   UNL     1      -0.666   7.512   0.794  0.00  0.00    +0.114 C 
BRANCH  35  36
ATOM     36  C   UNL     1      -1.656   6.484   0.335  0.00  0.00    +0.170 C 
BRANCH  36  38
ATOM     37  C   UNL     1       0.220   5.206  -1.416  0.00  0.00    +0.176 C 
ATOM     38  S   UNL     1      -1.391   5.934  -1.319  0.00  0.00    -0.007 S 
ATOM     39  O   UNL     1      -2.472   4.993  -1.756  0.00  0.00    -0.173 OA
ATOM     40  O   UNL     1      -1.391   7.119  -2.258  0.00  0.00    -0.173 OA
ENDBRANCH  36  38
ENDBRANCH  35  36
ENDBRANCH  34  35
ENDBRANCH  33  34
ENDBRANCH  28  33
ENDBRANCH   1  30
TORSDOF 10
ENDMDL
MODEL 2
REMARK VINA RESULT:      -9.0      2.653      4.175
REMARK  Name = 
REMARK  10 active torsions:
REMARK  status: ('A' for Active; 'I' for Inactive)
REMARK    1  A    between atoms: S_2  and  C_5
REMARK    2  A    between atoms: C_5  and  C_6
REMARK    3  A    between atoms: C_6  and  N_7
REMARK    4  A    between atoms: N_7  and  C_8
REMARK    5  A    between atoms: C_8  and  C_9
REMARK    6  A    between atoms: C_12  and  C_13
REMARK    7  A    between atoms: N_21  and  C_22
REMARK    8  A    between atoms: C_25  and  O_26
REMARK    9  A    between atoms: O_26  and  C_27
REMARK   10  A    between atoms: C_27  and  C_28
REMARK                            x       y       z     vdW  Elec       q    Type
REMARK                         _______ _______ _______ _____ _____    ______ ____
ROOT
ATOM      1  C   UNL     1       0.062   6.443  -5.793  0.00  0.00    +0.035 A 
ATOM      2  C   UNL     1       0.023   5.666  -6.945  0.00  0.00    +0.007 A 
ATOM      3  C   UNL     1       1.224   5.370  -7.579  0.00  0.00    +0.051 A 
ATOM      4  C   UNL     1       2.430   5.910  -7.149  0.00  0.00    +0.086 A 
ATOM      5  N   UNL     1       3.578   5.400  -7.610  0.00  0.00    -0.224 NA
ATOM      6  C   UNL     1       3.511   4.227  -8.282  0.00  0.00    +0.200 A 
ATOM      7  N   UNL     1       2.369   3.867  -8.916  0.00  0.00    -0.207 NA
ATOM      8  C   UNL     1       2.375   7.004  -6.292  0.00  0.00    +0.019 A 
ATOM      9  C   UNL     1       1.167   4.380  -8.553  0.00  0.00    +0.155 A 
ATOM     10  N   UNL     1       0.116   4.467  -9.523  0.00  0.00    -0.194 NA
ATOM     11  C   UNL     1       1.186   7.212  -5.605  0.00  0.00    +0.005 A 
ENDROOT
BRANCH  10  12
ATOM     12  C   UNL     1       0.391   5.266 -10.680  0.00  0.00    +0.073 A 
ATOM     13  C   UNL     1       0.283   4.767 -11.967  0.00  0.00    +0.031 A 
ATOM     14  C   UNL     1       1.029   5.273 -13.024  0.00  0.00    +0.093 A 
ATOM     15 CL   UNL     1       1.204   4.231 -14.434  0.00  0.00    -0.079 Cl
ATOM     16  C   UNL     1       2.040   6.184 -12.744  0.00  0.00    +0.150 A 
ATOM     17  C   UNL     1       1.902   6.904 -11.565  0.00  0.00    +0.039 A 
ATOM     18  C   UNL     1       1.049   6.482 -10.555  0.00  0.00    +0.020 A 
BRANCH  16  19
ATOM     19  O   UNL     1       3.268   6.148 -13.409  0.00  0.00    -0.470 OA
BRANCH  19  20
ATOM     20  C   UNL     1       4.281   5.206 -13.084  0.00  0.00    +0.232 C 
BRANCH  20  21
ATOM     21  C   UNL     1       5.357   5.969 -12.377  0.00  0.00    +0.023 A 
ATOM     22  C   UNL     1       6.539   6.330 -12.990  0.00  0.00    +0.029 A 
ATOM     23  C   UNL     1       7.738   6.425 -12.294  0.00  0.00    +0.140 A 
ATOM     24  F   UNL     1       8.934   6.110 -12.871  0.00  0.00    -0.204 F 
ATOM     25  C   UNL     1       7.677   6.221 -10.922  0.00  0.00    +0.030 A 
ATOM     26  C   UNL     1       6.471   6.232 -10.235  0.00  0.00    +0.002 A 
ATOM     27  C   UNL     1       5.333   6.021 -10.995  0.00  0.00    -0.001 A 
ENDBRANCH  20  21
ENDBRANCH  19  20
ENDBRANCH  16  19
ENDBRANCH  10  12
BRANCH   1  30
ATOM     28  C   UNL     1      -1.500   6.377  -2.613  0.00  0.00    +0.140 A 
ATOM     29  O   UNL     1      -0.558   5.995  -3.429  0.00  0.00    -0.456 OA
ATOM     30  C   UNL     1      -0.863   6.206  -4.676  0.00  0.00    +0.145 A 
ATOM     31  C   UNL     1      -2.221   6.498  -4.672  0.00  0.00    +0.040 A 
ATOM     32  C   UNL     1      -2.529   6.907  -3.381  0.00  0.00    +0.038 A 
BRANCH  28  33
ATOM     33  C   UNL     1      -1.554   6.209  -1.129  0.00  0.00    +0.153 C 
BRANCH  33  34
ATOM     34  N   UNL     1      -0.727   7.231  -0.492  0.00  0.00    -0.208 NA
BRANCH  34  35
ATOM     35  C   UNL     1       0.441   6.564   0.016  0.00  0.00    +0.114 C 
BRANCH  35  36
ATOM     36  C   UNL     1       1.707   6.912  -0.707  0.00  0.00    +0.170 C 
BRANCH  36  38
ATOM     37  C   UNL     1       2.984   5.440  -2.810  0.00  0.00    +0.176 C 
ATOM     38  S   UNL     1       2.727   5.517  -1.059  0.00  0.00    -0.007 S 
ATOM     39  O   UNL     1       4.013   5.581  -0.294  0.00  0.00    -0.173 OA
ATOM     40  O   UNL     1       2.009   4.246  -0.668  0.00  0.00    -0.173 OA
ENDBRANCH  36  38
ENDBRANCH  35  36
ENDBRANCH  34  35
ENDBRANCH  33  34
ENDBRANCH  28  33
ENDBRANCH   1  30
TORSDOF 10
ENDMDL
MODEL 3
REMARK VINA RESULT:      -8.9      4.548     10.541
REMARK  Name = 
REMARK  10 active torsions:
REMARK  status: ('A' for Active; 'I' for Inactive)
REMARK    1  A    between atoms: S_2  and  C_5
REMARK    2  A    between atoms: C_5  and  C_6
REMARK    3  A    between atoms: C_6  and  N_7
REMARK    4  A    between atoms: N_7  and  C_8
REMARK    5  A    between atoms: C_8  and  C_9
REMARK    6  A    between atoms: C_12  and  C_13
REMARK    7  A    between atoms: N_21  and  C_22
REMARK    8  A    between atoms: C_25  and  O_26
REMARK    9  A    between atoms: O_26  and  C_27
REMARK   10  A    between atoms: C_27  and  C_28
REMARK                            x       y       z     vdW  Elec       q    Type
REMARK                         _______ _______ _______ _____ _____    ______ ____
ROOT
ATOM      1  C   UNL     1       1.909   6.278  -5.921  0.00  0.00    +0.035 A 
ATOM      2  C   UNL     1       2.751   6.010  -4.848  0.00  0.00    +0.007 A 
ATOM      3  C   UNL     1       2.187   5.897  -3.582  0.00  0.00    +0.051 A 
ATOM      4  C   UNL     1       0.838   6.141  -3.358  0.00  0.00    +0.086 A 
ATOM      5  N   UNL     1       0.287   5.768  -2.197  0.00  0.00    -0.224 NA
ATOM      6  C   UNL     1       1.016   4.952  -1.399  0.00  0.00    +0.200 A 
ATOM      7  N   UNL     1       2.369   4.947  -1.479  0.00  0.00    -0.207 NA
ATOM      8  C   UNL     1       0.135   6.821  -4.348  0.00  0.00    +0.019 A 
ATOM      9  C   UNL     1       3.011   5.364  -2.598  0.00  0.00    +0.155 A 
ATOM     10  N   UNL     1       4.339   5.894  -2.491  0.00  0.00    -0.194 NA
ATOM     11  C   UNL     1       0.687   6.833  -5.623  0.00  0.00    +0.005 A 
ENDROOT
BRANCH  10  12
ATOM     12  C   UNL     1       4.490   7.055  -1.666  0.00  0.00    +0.073 A 
ATOM     13  C   UNL     1       4.972   6.985  -0.369  0.00  0.00    +0.031 A 
ATOM     14  C   UNL     1       4.630   7.917   0.602  0.00  0.00    +0.093 A 
ATOM     15 CL   UNL     1       4.853   7.425   2.279  0.00  0.00    -0.079 Cl
ATOM     16  C   UNL     1       3.634   8.841   0.310  0.00  0.00    +0.150 A 
ATOM     17  C   UNL     1       3.431   9.112  -1.037  0.00  0.00    +0.039 A 
ATOM     18  C   UNL     1       3.894   8.257  -2.026  0.00  0.00    +0.020 A 
BRANCH  16  19
ATOM     19  O   UNL     1       2.680   9.220   1.257  0.00  0.00    -0.470 OA
BRANCH  19  20
ATOM     20  C   UNL     1       1.590  10.074   0.939  0.00  0.00    +0.232 C 
BRANCH  20  21
ATOM     21  C   UNL     1       0.356   9.384   1.429  0.00  0.00    +0.023 A 
ATOM     22  C   UNL     1      -0.000   8.116   1.018  0.00  0.00    +0.029 A 
ATOM     23  C   UNL     1      -1.327   7.718   0.901  0.00  0.00    +0.140 A 
ATOM     24  F   UNL     1      -1.735   6.840  -0.062  0.00  0.00    -0.204 F 
ATOM     25  C   UNL     1      -2.288   8.636   1.304  0.00  0.00    +0.030 A 
ATOM     26  C   UNL     1      -1.960   9.751   2.062  0.00  0.00    +0.002 A 
ATOM     27  C   UNL     1      -0.632  10.141   2.033  0.00  0.00    -0.001 A 
ENDBRANCH  20  21
ENDBRANCH  19  20
ENDBRANCH  16  19
ENDBRANCH  10  12
BRANCH   1  30
ATOM     28  C   UNL     1       3.206   5.522  -9.130  0.00  0.00    +0.140 A 
ATOM     29  O   UNL     1       2.561   6.311  -8.318  0.00  0.00    -0.456 OA
ATOM     30  C   UNL     1       2.148   5.696  -7.249  0.00  0.00    +0.145 A 
ATOM     31  C   UNL     1       2.307   4.345  -7.524  0.00  0.00    +0.040 A 
ATOM     32  C   UNL     1       3.243   4.261  -8.547  0.00  0.00    +0.038 A 
BRANCH  28  33
ATOM     33  C   UNL     1       3.741   5.839 -10.489  0.00  0.00    +0.153 C 
BRANCH  33  34
ATOM     34  N   UNL     1       4.671   6.962 -10.398  0.00  0.00    -0.208 NA
BRANCH  34  35
ATOM     35  C   UNL     1       5.940   6.492 -10.885  0.00  0.00    +0.114 C 
BRANCH  35  36
ATOM     36  C   UNL     1       6.255   6.923 -12.285  0.00  0.00    +0.170 C 
BRANCH  36  38
ATOM     37  C   UNL     1       6.887   6.242 -14.998  0.00  0.00    +0.176 C 
ATOM     38  S   UNL     1       6.573   5.581 -13.385  0.00  0.00    -0.007 S 
ATOM     39  O   UNL     1       7.698   4.727 -12.886  0.00  0.00    -0.173 OA
ATOM     40  O   UNL     1       5.340   4.713 -13.502  0.00  0.00    -0.173 OA
ENDBRANCH  36  38
ENDBRANCH  35  36
ENDBRANCH  34  35
ENDBRANCH  33  34
ENDBRANCH  28  33
ENDBRANCH   1  30
TORSDOF 10
ENDMDL
MODEL 4
REMARK VINA RESULT:      -8.8      3.784      5.145
REMARK  Name = 
REMARK  10 active torsions:
REMARK  status: ('A' for Active; 'I' for Inactive)
REMARK    1  A    between atoms: S_2  and  C_5
REMARK    2  A    between atoms: C_5  and  C_6
REMARK    3  A    between atoms: C_6  and  N_7
REMARK    4  A    between atoms: N_7  and  C_8
REMARK    5  A    between atoms: C_8  and  C_9
REMARK    6  A    between atoms: C_12  and  C_13
REMARK    7  A    between atoms: N_21  and  C_22
REMARK    8  A    between atoms: C_25  and  O_26
REMARK    9  A    between atoms: O_26  and  C_27
REMARK   10  A    between atoms: C_27  and  C_28
REMARK                            x       y       z     vdW  Elec       q    Type
REMARK                         _______ _______ _______ _____ _____    ______ ____
ROOT
ATOM      1  C   UNL     1       3.315   7.065  -1.912  0.00  0.00    +0.035 A 
ATOM      2  C   UNL     1       2.876   7.240  -3.219  0.00  0.00    +0.007 A 
ATOM      3  C   UNL     1       1.800   6.476  -3.658  0.00  0.00    +0.051 A 
ATOM      4  C   UNL     1       1.233   5.487  -2.864  0.00  0.00    +0.086 A 
ATOM      5  N   UNL     1       0.051   4.965  -3.211  0.00  0.00    -0.224 NA
ATOM      6  C   UNL     1      -0.646   5.599  -4.184  0.00  0.00    +0.200 A 
ATOM      7  N   UNL     1      -0.001   6.352  -5.107  0.00  0.00    -0.207 NA
ATOM      8  C   UNL     1       1.962   5.049  -1.764  0.00  0.00    +0.019 A 
ATOM      9  C   UNL     1       1.227   6.873  -4.861  0.00  0.00    +0.155 A 
ATOM     10  N   UNL     1       2.110   7.142  -5.957  0.00  0.00    -0.194 NA
ATOM     11  C   UNL     1       2.969   5.885  -1.297  0.00  0.00    +0.005 A 
ENDROOT
BRANCH  10  12
ATOM     12  C   UNL     1       2.472   6.016  -6.766  0.00  0.00    +0.073 A 
ATOM     13  C   UNL     1       3.790   5.646  -6.974  0.00  0.00    +0.031 A 
ATOM     14  C   UNL     1       4.200   4.971  -8.117  0.00  0.00    +0.093 A 
ATOM     15 CL   UNL     1       5.918   5.048  -8.502  0.00  0.00    -0.079 Cl
ATOM     16  C   UNL     1       3.293   4.824  -9.160  0.00  0.00    +0.150 A 
ATOM     17  C   UNL     1       1.951   4.877  -8.811  0.00  0.00    +0.039 A 
ATOM     18  C   UNL     1       1.537   5.422  -7.604  0.00  0.00    +0.020 A 
BRANCH  16  19
ATOM     19  O   UNL     1       3.680   4.952 -10.496  0.00  0.00    -0.470 OA
BRANCH  19  20
ATOM     20  C   UNL     1       3.590   6.182 -11.200  0.00  0.00    +0.232 C 
BRANCH  20  21
ATOM     21  C   UNL     1       4.983   6.531 -11.621  0.00  0.00    +0.023 A 
ATOM     22  C   UNL     1       5.812   5.635 -12.264  0.00  0.00    +0.029 A 
ATOM     23  C   UNL     1       7.192   5.646 -12.096  0.00  0.00    +0.140 A 
ATOM     24  F   UNL     1       7.930   4.497 -12.118  0.00  0.00    -0.204 F 
ATOM     25  C   UNL     1       7.712   6.664 -11.309  0.00  0.00    +0.030 A 
ATOM     26  C   UNL     1       6.961   7.779 -10.965  0.00  0.00    +0.002 A 
ATOM     27  C   UNL     1       5.586   7.642 -11.061  0.00  0.00    -0.001 A 
ENDBRANCH  20  21
ENDBRANCH  19  20
ENDBRANCH  16  19
ENDBRANCH  10  12
BRANCH   1  30
ATOM     28  C   UNL     1       3.695  10.190  -0.288  0.00  0.00    +0.140 A 
ATOM     29  O   UNL     1       3.683   9.461  -1.367  0.00  0.00    -0.456 OA
ATOM     30  C   UNL     1       3.815   8.192  -1.112  0.00  0.00    +0.145 A 
ATOM     31  C   UNL     1       4.215   8.129   0.216  0.00  0.00    +0.040 A 
ATOM     32  C   UNL     1       3.834   9.332   0.796  0.00  0.00    +0.038 A 
BRANCH  28  33
ATOM     33  C   UNL     1       3.666  11.681  -0.185  0.00  0.00    +0.153 C 
BRANCH  33  34
ATOM     34  N   UNL     1       4.680  12.124   0.769  0.00  0.00    -0.208 NA
BRANCH  34  35
ATOM     35  C   UNL     1       5.269  13.318   0.226  0.00  0.00    +0.114 C 
BRANCH  35  36
ATOM     36  C   UNL     1       4.748  13.694  -1.129  0.00  0.00    +0.170 C 
BRANCH  36  38
ATOM     37  C   UNL     1       5.650  16.287  -1.959  0.00  0.00    +0.176 C 
ATOM     38  S   UNL     1       5.925  14.545  -2.129  0.00  0.00    -0.007 S 
ATOM     39  O   UNL     1       7.325  14.149  -1.773  0.00  0.00    -0.173 OA
ATOM     40  O   UNL     1       5.697  14.209  -3.586  0.00  0.00    -0.173 OA
ENDBRANCH  36  38
ENDBRANCH  35  36
ENDBRANCH  34  35
ENDBRANCH  33  34
ENDBRANCH  28  33
ENDBRANCH   1  30
TORSDOF 10
ENDMDL
MODEL 5
REMARK VINA RESULT:      -8.8      4.743     10.739
REMARK  Name = 
REMARK  10 active torsions:
REMARK  status: ('A' for Active; 'I' for Inactive)
REMARK    1  A    between atoms: S_2  and  C_5
REMARK    2  A    between atoms: C_5  and  C_6
REMARK    3  A    between atoms: C_6  and  N_7
REMARK    4  A    between atoms: N_7  and  C_8
REMARK    5  A    between atoms: C_8  and  C_9
REMARK    6  A    between atoms: C_12  and  C_13
REMARK    7  A    between atoms: N_21  and  C_22
REMARK    8  A    between atoms: C_25  and  O_26
REMARK    9  A    between atoms: O_26  and  C_27
REMARK   10  A    between atoms: C_27  and  C_28
REMARK                            x       y       z     vdW  Elec       q    Type
REMARK                         _______ _______ _______ _____ _____    ______ ____
ROOT
ATOM      1  C   UNL     1       4.933   6.083  -9.201  0.00  0.00    +0.035 A 
ATOM      2  C   UNL     1       4.883   5.565  -7.912  0.00  0.00    +0.007 A 
ATOM      3  C   UNL     1       3.636   5.381  -7.325  0.00  0.00    +0.051 A 
ATOM      4  C   UNL     1       2.466   5.794  -7.950  0.00  0.00    +0.086 A 
ATOM      5  N   UNL     1       1.287   5.367  -7.483  0.00  0.00    -0.224 NA
ATOM      6  C   UNL     1       1.306   4.361  -6.577  0.00  0.00    +0.200 A 
ATOM      7  N   UNL     1       2.396   4.165  -5.795  0.00  0.00    -0.207 NA
ATOM      8  C   UNL     1       2.584   6.686  -9.011  0.00  0.00    +0.019 A 
ATOM      9  C   UNL     1       3.620   4.617  -6.164  0.00  0.00    +0.155 A 
ATOM     10  N   UNL     1       4.590   4.926  -5.156  0.00  0.00    -0.194 NA
ATOM     11  C   UNL     1       3.824   6.772  -9.632  0.00  0.00    +0.005 A 
ENDROOT
BRANCH  10  12
ATOM     12  C   UNL     1       4.220   5.942  -4.216  0.00  0.00    +0.073 A 
ATOM     13  C   UNL     1       4.700   5.961  -2.918  0.00  0.00    +0.031 A 
ATOM     14  C   UNL     1       3.991   6.540  -1.872  0.00  0.00    +0.093 A 
ATOM     15 CL   UNL     1       4.433   6.029  -0.244  0.00  0.00    -0.079 Cl
ATOM     16  C   UNL     1       2.685   6.951  -2.106  0.00  0.00    +0.150 A 
ATOM     17  C   UNL     1       2.365   7.240  -3.425  0.00  0.00    +0.039 A 
ATOM     18  C   UNL     1       3.147   6.785  -4.477  0.00  0.00    +0.020 A 
BRANCH  16  19
ATOM     19  O   UNL     1       1.675   6.767  -1.159  0.00  0.00    -0.470 OA
BRANCH  19  20
ATOM     20  C   UNL     1       0.997   5.529  -0.999  0.00  0.00    +0.232 C 
BRANCH  20  21
ATOM     21  C   UNL     1      -0.332   5.685  -1.670  0.00  0.00    +0.023 A 
ATOM     22  C   UNL     1      -0.575   5.238  -2.952  0.00  0.00    +0.029 A 
ATOM     23  C   UNL     1      -1.465   5.879  -3.806  0.00  0.00    +0.140 A 
ATOM     24  F   UNL     1      -1.258   5.934  -5.154  0.00  0.00    -0.204 F 
ATOM     25  C   UNL     1      -2.170   6.952  -3.276  0.00  0.00    +0.030 A 
ATOM     26  C   UNL     1      -2.228   7.184  -1.909  0.00  0.00    +0.002 A 
ATOM     27  C   UNL     1      -1.235   6.592  -1.146  0.00  0.00    -0.001 A 
ENDBRANCH  20  21
ENDBRANCH  19  20
ENDBRANCH  16  19
ENDBRANCH  10  12
BRANCH   1  30
ATOM     28  C   UNL     1       6.970   5.708 -12.075  0.00  0.00    +0.140 A 
ATOM     29  O   UNL     1       5.827   5.578 -11.463  0.00  0.00    -0.456 OA
ATOM     30  C   UNL     1       5.945   5.639 -10.169  0.00  0.00    +0.145 A 
ATOM     31  C   UNL     1       7.307   5.528  -9.923  0.00  0.00    +0.040 A 
ATOM     32  C   UNL     1       7.947   5.887 -11.103  0.00  0.00    +0.038 A 
BRANCH  28  33
ATOM     33  C   UNL     1       7.247   5.595 -13.539  0.00  0.00    +0.153 C 
BRANCH  33  34
ATOM     34  N   UNL     1       6.736   6.780 -14.225  0.00  0.00    -0.208 NA
BRANCH  34  35
ATOM     35  C   UNL     1       6.855   6.527 -15.636  0.00  0.00    +0.114 C 
BRANCH  35  36
ATOM     36  C   UNL     1       6.439   7.679 -16.500  0.00  0.00    +0.170 C 
BRANCH  36  38
ATOM     37  C   UNL     1       4.131   9.322 -16.947  0.00  0.00    +0.176 C 
ATOM     38  S   UNL     1       4.730   7.655 -16.937  0.00  0.00    -0.007 S 
ATOM     39  O   UNL     1       4.517   6.962 -18.248  0.00  0.00    -0.173 OA
ATOM     40  O   UNL     1       3.942   6.915 -15.880  0.00  0.00    -0.173 OA
ENDBRANCH  36  38
ENDBRANCH  35  36
ENDBRANCH  34  35
ENDBRANCH  33  34
ENDBRANCH  28  33
ENDBRANCH   1  30
TORSDOF 10
ENDMDL
MODEL 6
REMARK VINA RESULT:      -8.7      4.785     10.947
REMARK  Name = 
REMARK  10 active torsions:
REMARK  status: ('A' for Active; 'I' for Inactive)
REMARK    1  A    between atoms: S_2  and  C_5
REMARK    2  A    between atoms: C_5  and  C_6
REMARK    3  A    between atoms: C_6  and  N_7
REMARK    4  A    between atoms: N_7  and  C_8
REMARK    5  A    between atoms: C_8  and  C_9
REMARK    6  A    between atoms: C_12  and  C_13
REMARK    7  A    between atoms: N_21  and  C_22
REMARK    8  A    between atoms: C_25  and  O_26
REMARK    9  A    between atoms: O_26  and  C_27
REMARK   10  A    between atoms: C_27  and  C_28
REMARK                            x       y       z     vdW  Elec       q    Type
REMARK                         _______ _______ _______ _____ _____    ______ ____
ROOT
ATOM      1  C   UNL     1       1.250   4.964  -9.254  0.00  0.00    +0.035 A 
ATOM      2  C   UNL     1       0.831   5.750  -8.186  0.00  0.00    +0.007 A 
ATOM      3  C   UNL     1       1.624   5.786  -7.045  0.00  0.00    +0.051 A 
ATOM      4  C   UNL     1       2.754   4.987  -6.914  0.00  0.00    +0.086 A 
ATOM      5  N   UNL     1       3.626   5.239  -5.932  0.00  0.00    -0.224 NA
ATOM      6  C   UNL     1       3.488   6.410  -5.266  0.00  0.00    +0.200 A 
ATOM      7  N   UNL     1       2.281   7.023  -5.203  0.00  0.00    -0.207 NA
ATOM      8  C   UNL     1       2.890   3.917  -7.793  0.00  0.00    +0.019 A 
ATOM      9  C   UNL     1       1.317   6.781  -6.125  0.00  0.00    +0.155 A 
ATOM     10  N   UNL     1      -0.060   6.943  -5.763  0.00  0.00    -0.194 NA
ATOM     11  C   UNL     1       2.149   3.964  -8.968  0.00  0.00    +0.005 A 
ENDROOT
BRANCH  10  12
ATOM     12  C   UNL     1      -0.530   6.123  -4.687  0.00  0.00    +0.073 A 
ATOM     13  C   UNL     1      -1.845   6.151  -4.254  0.00  0.00    +0.031 A 
ATOM     14  C   UNL     1      -2.205   5.834  -2.950  0.00  0.00    +0.093 A 
ATOM     15 CL   UNL     1      -3.774   6.421  -2.402  0.00  0.00    -0.079 Cl
ATOM     16  C   UNL     1      -1.197   5.661  -2.010  0.00  0.00    +0.150 A 
ATOM     17  C   UNL     1       0.046   5.300  -2.509  0.00  0.00    +0.039 A 
ATOM     18  C   UNL     1       0.370   5.481  -3.846  0.00  0.00    +0.020 A 
BRANCH  16  19
ATOM     19  O   UNL     1      -1.321   6.135  -0.702  0.00  0.00    -0.470 OA
BRANCH  19  20
ATOM     20  C   UNL     1      -0.231   6.709   0.006  0.00  0.00    +0.232 C 
BRANCH  20  21
ATOM     21  C   UNL     1      -0.827   7.533   1.104  0.00  0.00    +0.023 A 
ATOM     22  C   UNL     1      -1.958   7.148   1.792  0.00  0.00    +0.029 A 
ATOM     23  C   UNL     1      -2.871   8.068   2.296  0.00  0.00    +0.140 A 
ATOM     24  F   UNL     1      -4.208   7.801   2.351  0.00  0.00    -0.204 F 
ATOM     25  C   UNL     1      -2.544   9.409   2.149  0.00  0.00    +0.030 A 
ATOM     26  C   UNL     1      -1.262   9.816   1.808  0.00  0.00    +0.002 A 
ATOM     27  C   UNL     1      -0.457   8.861   1.211  0.00  0.00    -0.001 A 
ENDBRANCH  20  21
ENDBRANCH  19  20
ENDBRANCH  16  19
ENDBRANCH  10  12
BRANCH   1  30
ATOM     28  C   UNL     1       1.660   5.753 -12.683  0.00  0.00    +0.140 A 
ATOM     29  O   UNL     1       1.859   6.013 -11.422  0.00  0.00    -0.456 OA
ATOM     30  C   UNL     1       1.030   5.379 -10.646  0.00  0.00    +0.145 A 
ATOM     31  C   UNL     1       0.047   4.884 -11.493  0.00  0.00    +0.040 A 
ATOM     32  C   UNL     1       0.608   4.849 -12.763  0.00  0.00    +0.038 A 
BRANCH  28  33
ATOM     33  C   UNL     1       2.343   6.360 -13.866  0.00  0.00    +0.153 C 
BRANCH  33  34
ATOM     34  N   UNL     1       3.084   5.326 -14.585  0.00  0.00    -0.208 NA
BRANCH  34  35
ATOM     35  C   UNL     1       4.180   4.936 -13.740  0.00  0.00    +0.114 C 
BRANCH  35  36
ATOM     36  C   UNL     1       5.351   5.871 -13.788  0.00  0.00    +0.170 C 
BRANCH  36  38
ATOM     37  C   UNL     1       5.383   5.550 -10.938  0.00  0.00    +0.176 C 
ATOM     38  S   UNL     1       6.399   5.766 -12.373  0.00  0.00    -0.007 S 
ATOM     39  O   UNL     1       7.410   4.672 -12.528  0.00  0.00    -0.173 OA
ATOM     40  O   UNL     1       7.142   7.070 -12.189  0.00  0.00    -0.173 OA
ENDBRANCH  36  38
ENDBRANCH  35  36
ENDBRANCH  34  35
ENDBRANCH  33  34
ENDBRANCH  28  33
ENDBRANCH   1  30
TORSDOF 10
ENDMDL
MODEL 7
REMARK VINA RESULT:      -8.7      4.582     10.673
REMARK  Name = 
REMARK  10 active torsions:
REMARK  status: ('A' for Active; 'I' for Inactive)
REMARK    1  A    between atoms: S_2  and  C_5
REMARK    2  A    between atoms: C_5  and  C_6
REMARK    3  A    between atoms: C_6  and  N_7
REMARK    4  A    between atoms: N_7  and  C_8
REMARK    5  A    between atoms: C_8  and  C_9
REMARK    6  A    between atoms: C_12  and  C_13
REMARK    7  A    between atoms: N_21  and  C_22
REMARK    8  A    between atoms: C_25  and  O_26
REMARK    9  A    between atoms: O_26  and  C_27
REMARK   10  A    between atoms: C_27  and  C_28
REMARK                            x       y       z     vdW  Elec       q    Type
REMARK                         _______ _______ _______ _____ _____    ______ ____
ROOT
ATOM      1  C   UNL     1       4.138   6.216  -8.575  0.00  0.00    +0.035 A 
ATOM      2  C   UNL     1       3.758   5.610  -7.383  0.00  0.00    +0.007 A 
ATOM      3  C   UNL     1       2.401   5.520  -7.095  0.00  0.00    +0.051 A 
ATOM      4  C   UNL     1       1.440   6.104  -7.911  0.00  0.00    +0.086 A 
ATOM      5  N   UNL     1       0.153   5.774  -7.748  0.00  0.00    -0.224 NA
ATOM      6  C   UNL     1      -0.119   4.706  -6.961  0.00  0.00    +0.200 A 
ATOM      7  N   UNL     1       0.749   4.334  -5.990  0.00  0.00    -0.207 NA
ATOM      8  C   UNL     1       1.869   7.056  -8.830  0.00  0.00    +0.019 A 
ATOM      9  C   UNL     1       2.060   4.676  -6.044  0.00  0.00    +0.155 A 
ATOM     10  N   UNL     1       2.807   4.801  -4.828  0.00  0.00    -0.194 NA
ATOM     11  C   UNL     1       3.218   7.053  -9.162  0.00  0.00    +0.005 A 
ENDROOT
BRANCH  10  12
ATOM     12  C   UNL     1       2.331   5.777  -3.894  0.00  0.00    +0.073 A 
ATOM     13  C   UNL     1       3.139   6.792  -3.407  0.00  0.00    +0.031 A 
ATOM     14  C   UNL     1       2.928   7.378  -2.165  0.00  0.00    +0.093 A 
ATOM     15 CL   UNL     1       4.296   8.232  -1.456  0.00  0.00    -0.079 Cl
ATOM     16  C   UNL     1       1.991   6.805  -1.314  0.00  0.00    +0.150 A 
ATOM     17  C   UNL     1       0.994   6.055  -1.923  0.00  0.00    +0.039 A 
ATOM     18  C   UNL     1       1.133   5.582  -3.219  0.00  0.00    +0.020 A 
BRANCH  16  19
ATOM     19  O   UNL     1       2.213   6.701   0.061  0.00  0.00    -0.470 OA
BRANCH  19  20
ATOM     20  C   UNL     1       1.399   7.368   1.016  0.00  0.00    +0.232 C 
BRANCH  20  21
ATOM     21  C   UNL     1       2.129   8.619   1.392  0.00  0.00    +0.023 A 
ATOM     22  C   UNL     1       1.874   9.837   0.797  0.00  0.00    +0.029 A 
ATOM     23  C   UNL     1       2.863  10.797   0.616  0.00  0.00    +0.140 A 
ATOM     24  F   UNL     1       2.873  11.627  -0.467  0.00  0.00    -0.204 F 
ATOM     25  C   UNL     1       4.113  10.507   1.146  0.00  0.00    +0.030 A 
ATOM     26  C   UNL     1       4.299   9.481   2.061  0.00  0.00    +0.002 A 
ATOM     27  C   UNL     1       3.314   8.508   2.096  0.00  0.00    -0.001 A 
ENDBRANCH  20  21
ENDBRANCH  19  20
ENDBRANCH  16  19
ENDBRANCH  10  12
BRANCH   1  30
ATOM     28  C   UNL     1       6.882   5.959 -10.801  0.00  0.00    +0.140 A 
ATOM     29  O   UNL     1       5.601   6.032 -10.575  0.00  0.00    -0.456 OA
ATOM     30  C   UNL     1       5.295   5.739  -9.345  0.00  0.00    +0.145 A 
ATOM     31  C   UNL     1       6.443   5.169  -8.812  0.00  0.00    +0.040 A 
ATOM     32  C   UNL     1       7.497   5.595  -9.610  0.00  0.00    +0.038 A 
BRANCH  28  33
ATOM     33  C   UNL     1       7.596   6.128 -12.103  0.00  0.00    +0.153 C 
BRANCH  33  34
ATOM     34  N   UNL     1       7.332   4.973 -12.958  0.00  0.00    -0.208 NA
BRANCH  34  35
ATOM     35  C   UNL     1       7.061   5.483 -14.275  0.00  0.00    +0.114 C 
BRANCH  35  36
ATOM     36  C   UNL     1       6.327   6.791 -14.284  0.00  0.00    +0.170 C 
BRANCH  36  38
ATOM     37  C   UNL     1       6.881   6.616 -17.092  0.00  0.00    +0.176 C 
ATOM     38  S   UNL     1       5.767   7.278 -15.884  0.00  0.00    -0.007 S 
ATOM     39  O   UNL     1       4.350   6.849 -16.115  0.00  0.00    -0.173 OA
ATOM     40  O   UNL     1       5.830   8.783 -16.012  0.00  0.00    -0.173 OA
ENDBRANCH  36  38
ENDBRANCH  35  36
ENDBRANCH  34  35
ENDBRANCH  33  34
ENDBRANCH  28  33
ENDBRANCH   1  30
TORSDOF 10
ENDMDL
MODEL 8
REMARK VINA RESULT:      -8.6      2.251      3.049
REMARK  Name = 
REMARK  10 active torsions:
REMARK  status: ('A' for Active; 'I' for Inactive)
REMARK    1  A    between atoms: S_2  and  C_5
REMARK    2  A    between atoms: C_5  and  C_6
REMARK    3  A    between atoms: C_6  and  N_7
REMARK    4  A    between atoms: N_7  and  C_8
REMARK    5  A    between atoms: C_8  and  C_9
REMARK    6  A    between atoms: C_12  and  C_13
REMARK    7  A    between atoms: N_21  and  C_22
REMARK    8  A    between atoms: C_25  and  O_26
REMARK    9  A    between atoms: O_26  and  C_27
REMARK   10  A    between atoms: C_27  and  C_28
REMARK                            x       y       z     vdW  Elec       q    Type
REMARK                         _______ _______ _______ _____ _____    ______ ____
ROOT
ATOM      1  C   UNL     1       3.395   6.677  -2.354  0.00  0.00    +0.035 A 
ATOM      2  C   UNL     1       2.960   7.132  -3.593  0.00  0.00    +0.007 A 
ATOM      3  C   UNL     1       1.827   6.546  -4.148  0.00  0.00    +0.051 A 
ATOM      4  C   UNL     1       1.194   5.466  -3.546  0.00  0.00    +0.086 A 
ATOM      5  N   UNL     1      -0.026   5.107  -3.961  0.00  0.00    -0.224 NA
ATOM      6  C   UNL     1      -0.681   5.965  -4.778  0.00  0.00    +0.200 A 
ATOM      7  N   UNL     1       0.011   6.834  -5.553  0.00  0.00    -0.207 NA
ATOM      8  C   UNL     1       1.897   4.772  -2.567  0.00  0.00    +0.019 A 
ATOM      9  C   UNL     1       1.276   7.208  -5.239  0.00  0.00    +0.155 A 
ATOM     10  N   UNL     1       2.169   7.619  -6.282  0.00  0.00    -0.194 NA
ATOM     11  C   UNL     1       2.967   5.428  -1.970  0.00  0.00    +0.005 A 
ENDROOT
BRANCH  10  12
ATOM     12  C   UNL     1       2.439   6.648  -7.300  0.00  0.00    +0.073 A 
ATOM     13  C   UNL     1       3.564   5.842  -7.273  0.00  0.00    +0.031 A 
ATOM     14  C   UNL     1       4.136   5.326  -8.430  0.00  0.00    +0.093 A 
ATOM     15 CL   UNL     1       5.812   4.797  -8.311  0.00  0.00    -0.079 Cl
ATOM     16  C   UNL     1       3.670   5.781  -9.657  0.00  0.00    +0.150 A 
ATOM     17  C   UNL     1       2.376   6.284  -9.669  0.00  0.00    +0.039 A 
ATOM     18  C   UNL     1       1.739   6.672  -8.499  0.00  0.00    +0.020 A 
BRANCH  16  19
ATOM     19  O   UNL     1       4.534   6.032 -10.726  0.00  0.00    -0.470 OA
BRANCH  19  20
ATOM     20  C   UNL     1       5.053   7.327 -10.996  0.00  0.00    +0.232 C 
BRANCH  20  21
ATOM     21  C   UNL     1       6.363   7.120 -11.689  0.00  0.00    +0.023 A 
ATOM     22  C   UNL     1       6.473   7.031 -13.061  0.00  0.00    +0.029 A 
ATOM     23  C   UNL     1       7.437   6.244 -13.680  0.00  0.00    +0.140 A 
ATOM     24  F   UNL     1       7.197   5.607 -14.864  0.00  0.00    -0.204 F 
ATOM     25  C   UNL     1       8.350   5.611 -12.847  0.00  0.00    +0.030 A 
ATOM     26  C   UNL     1       8.498   5.975 -11.516  0.00  0.00    +0.002 A 
ATOM     27  C   UNL     1       7.439   6.664 -10.949  0.00  0.00    -0.001 A 
ENDBRANCH  20  21
ENDBRANCH  19  20
ENDBRANCH  16  19
ENDBRANCH  10  12
BRANCH   1  30
ATOM     28  C   UNL     1       3.887   9.140   0.145  0.00  0.00    +0.140 A 
ATOM     29  O   UNL     1       3.600   8.800  -1.080  0.00  0.00    -0.456 OA
ATOM     30  C   UNL     1       3.983   7.590  -1.364  0.00  0.00    +0.145 A 
ATOM     31  C   UNL     1       4.824   7.222  -0.323  0.00  0.00    +0.040 A 
ATOM     32  C   UNL     1       4.509   8.053   0.746  0.00  0.00    +0.038 A 
BRANCH  28  33
ATOM     33  C   UNL     1       3.693  10.469   0.799  0.00  0.00    +0.153 C 
BRANCH  33  34
ATOM     34  N   UNL     1       2.269  10.793   0.833  0.00  0.00    -0.208 NA
BRANCH  34  35
ATOM     35  C   UNL     1       1.633   9.787   1.640  0.00  0.00    +0.114 C 
BRANCH  35  36
ATOM     36  C   UNL     1       0.135   9.811   1.579  0.00  0.00    +0.170 C 
BRANCH  36  38
ATOM     37  C   UNL     1       0.725   7.250   0.432  0.00  0.00    +0.176 C 
ATOM     38  S   UNL     1      -0.576   8.293   1.029  0.00  0.00    -0.007 S 
ATOM     39  O   UNL     1      -1.377   7.645   2.116  0.00  0.00    -0.173 OA
ATOM     40  O   UNL     1      -1.497   8.555  -0.142  0.00  0.00    -0.173 OA
ENDBRANCH  36  38
ENDBRANCH  35  36
ENDBRANCH  34  35
ENDBRANCH  33  34
ENDBRANCH  28  33
ENDBRANCH   1  30
TORSDOF 10
ENDMDL
MODEL 9
REMARK VINA RESULT:      -8.5      5.410     11.142
REMARK  Name = 
REMARK  10 active torsions:
REMARK  status: ('A' for Active; 'I' for Inactive)
REMARK    1  A    between atoms: S_2  and  C_5
REMARK    2  A    between atoms: C_5  and  C_6
REMARK    3  A    between atoms: C_6  and  N_7
REMARK    4  A    between atoms: N_7  and  C_8
REMARK    5  A    between atoms: C_8  and  C_9
REMARK    6  A    between atoms: C_12  and  C_13
REMARK    7  A    between atoms: N_21  and  C_22
REMARK    8  A    between atoms: C_25  and  O_26
REMARK    9  A    between atoms: O_26  and  C_27
REMARK   10  A    between atoms: C_27  and  C_28
REMARK                            x       y       z     vdW  Elec       q    Type
REMARK                         _______ _______ _______ _____ _____    ______ ____
ROOT
ATOM      1  C   UNL     1       0.684   7.684 -12.919  0.00  0.00    +0.035 A 
ATOM      2  C   UNL     1       1.672   7.028 -12.194  0.00  0.00    +0.007 A 
ATOM      3  C   UNL     1       1.279   6.175 -11.169  0.00  0.00    +0.051 A 
ATOM      4  C   UNL     1      -0.053   6.047 -10.795  0.00  0.00    +0.086 A 
ATOM      5  N   UNL     1      -0.416   5.035  -9.998  0.00  0.00    -0.224 NA
ATOM      6  C   UNL     1       0.489   4.049  -9.796  0.00  0.00    +0.200 A 
ATOM      7  N   UNL     1       1.814   4.301  -9.920  0.00  0.00    -0.207 NA
ATOM      8  C   UNL     1      -0.940   7.025 -11.232  0.00  0.00    +0.019 A 
ATOM      9  C   UNL     1       2.269   5.342 -10.661  0.00  0.00    +0.155 A 
ATOM     10  N   UNL     1       3.532   5.938 -10.339  0.00  0.00    -0.194 NA
ATOM     11  C   UNL     1      -0.549   7.796 -12.320  0.00  0.00    +0.005 A 
ENDROOT
BRANCH  10  12
ATOM     12  C   UNL     1       3.649   6.495  -9.024  0.00  0.00    +0.073 A 
ATOM     13  C   UNL     1       4.363   5.870  -8.016  0.00  0.00    +0.031 A 
ATOM     14  C   UNL     1       4.062   6.050  -6.671  0.00  0.00    +0.093 A 
ATOM     15 CL   UNL     1       4.659   4.820  -5.559  0.00  0.00    -0.079 Cl
ATOM     16  C   UNL     1       2.899   6.734  -6.339  0.00  0.00    +0.150 A 
ATOM     17  C   UNL     1       2.416   7.614  -7.298  0.00  0.00    +0.039 A 
ATOM     18  C   UNL     1       2.819   7.534  -8.624  0.00  0.00    +0.020 A 
BRANCH  16  19
ATOM     19  O   UNL     1       2.086   6.332  -5.277  0.00  0.00    -0.470 OA
BRANCH  19  20
ATOM     20  C   UNL     1       1.028   5.398  -5.441  0.00  0.00    +0.232 C 
BRANCH  20  21
ATOM     21  C   UNL     1      -0.209   6.201  -5.696  0.00  0.00    +0.023 A 
ATOM     22  C   UNL     1      -0.502   7.357  -5.003  0.00  0.00    +0.029 A 
ATOM     23  C   UNL     1      -1.806   7.746  -4.723  0.00  0.00    +0.140 A 
ATOM     24  F   UNL     1      -2.132   8.404  -3.573  0.00  0.00    -0.204 F 
ATOM     25  C   UNL     1      -2.817   6.955  -5.254  0.00  0.00    +0.030 A 
ATOM     26  C   UNL     1      -2.567   6.023  -6.251  0.00  0.00    +0.002 A 
ATOM     27  C   UNL     1      -1.252   5.610  -6.386  0.00  0.00    -0.001 A 
ENDBRANCH  20  21
ENDBRANCH  19  20
ENDBRANCH  16  19
ENDBRANCH  10  12
BRANCH   1  30
ATOM     28  C   UNL     1       1.880   7.854 -16.249  0.00  0.00    +0.140 A 
ATOM     29  O   UNL     1       1.917   8.235 -15.004  0.00  0.00    -0.456 OA
ATOM     30  C   UNL     1       0.827   7.938 -14.359  0.00  0.00    +0.145 A 
ATOM     31  C   UNL     1      -0.087   7.578 -15.340  0.00  0.00    +0.040 A 
ATOM     32  C   UNL     1       0.657   7.228 -16.459  0.00  0.00    +0.038 A 
BRANCH  28  33
ATOM     33  C   UNL     1       2.895   8.104 -17.317  0.00  0.00    +0.153 C 
BRANCH  33  34
ATOM     34  N   UNL     1       4.172   8.461 -16.703  0.00  0.00    -0.208 NA
BRANCH  34  35
ATOM     35  C   UNL     1       4.941   7.249 -16.610  0.00  0.00    +0.114 C 
BRANCH  35  36
ATOM     36  C   UNL     1       6.144   7.357 -15.722  0.00  0.00    +0.170 C 
BRANCH  36  38
ATOM     37  C   UNL     1       4.360   5.825 -14.081  0.00  0.00    +0.176 C 
ATOM     38  S   UNL     1       6.032   6.383 -14.256  0.00  0.00    -0.007 S 
ATOM     39  O   UNL     1       7.013   5.251 -14.281  0.00  0.00    -0.173 OA
ATOM     40  O   UNL     1       6.334   7.241 -13.047  0.00  0.00    -0.173 OA
ENDBRANCH  36  38
ENDBRANCH  35  36
ENDBRANCH  34  35
ENDBRANCH  33  34
ENDBRANCH  28  33
ENDBRANCH   1  30
TORSDOF 10
ENDMDL
