MODEL 1
REMARK VINA RESULT:      -8.1      0.000      0.000
REMARK  Name = 
REMARK  6 active torsions:
REMARK  status: ('A' for Active; 'I' for Inactive)
REMARK    1  A    between atoms: C_2  and  C_4
REMARK    2  A    between atoms: C_7  and  C_8
REMARK    3  A    between atoms: N_10  and  CA_11
REMARK    4  A    between atoms: CA_11  and  CB_12
REMARK    5  A    between atoms: CA_11  and  C_19
REMARK    6  A    between atoms: CB_12  and  CG_13
REMARK                            x       y       z     vdW  Elec       q    Type
REMARK                         _______ _______ _______ _____ _____    ______ ____
ROOT
ATOM      1  C   UNK A   0       3.918   5.697  -8.670  0.00  0.00    +0.241 C 
ATOM      2  N   PHE A   1       2.745   6.070  -8.154  0.00  0.00    -0.195 NA
ATOM      3  O   UNK A   0       4.649   5.610  -7.689  0.00  0.00    -0.273 OA
ENDROOT
BRANCH   1   7
ATOM      4  C   UNK A   0       6.421   6.718 -11.576  0.00  0.00    +0.000 C 
ATOM      5  C   UNK A   0       7.124   5.798 -10.426  0.00  0.00    +0.000 C 
ATOM      6  C   UNK A   0       6.123   5.640  -9.348  0.00  0.00    +0.009 C 
ATOM      7  C   UNK A   0       4.757   6.416  -9.817  0.00  0.00    +0.078 C 
ATOM      8  C   UNK A   0       4.427   5.304 -10.973  0.00  0.00    +0.009 C 
ATOM      9  C   UNK A   0       5.445   5.498 -12.055  0.00  0.00    +0.000 C 
BRANCH   4  11
ATOM     10  C   UNK A   0       6.976   5.592 -13.709  0.00  0.00    +0.000 C 
ATOM     11  C   UNK A   0       7.575   6.365 -12.671  0.00  0.00    +0.000 C 
ATOM     12  C   UNK A   0       8.742   5.793 -11.973  0.00  0.00    +0.000 C 
ENDBRANCH   4  11
ENDBRANCH   1   7
BRANCH   2  13
ATOM     13  CA  PHE A   1       1.711   4.895  -7.949  0.00  0.00    +0.202 C 
BRANCH  13  14
ATOM     14  C   PHE A   1       1.338   5.013  -6.397  0.00  0.00    +0.385 C 
ATOM     15  OXT PHE A   1       1.611   5.763  -5.423  0.00  0.00    -0.244 OA
ATOM     16  O   PHE A   1       1.191   3.808  -5.982  0.00  0.00    -0.244 OA
ENDBRANCH  13  14
BRANCH  13  17
ATOM     17  CB  PHE A   1       0.439   5.783  -8.519  0.00  0.00    +0.060 C 
BRANCH  17  18
ATOM     18  CG  PHE A   1       0.270   5.642  -9.933  0.00  0.00    -0.020 A 
ATOM     19  CD2 PHE A   1       0.608   4.540 -10.716  0.00  0.00    -0.004 A 
ATOM     20  CE2 PHE A   1       0.294   4.588 -12.074  0.00  0.00    -0.000 A 
ATOM     21  CZ  PHE A   1       0.717   5.740 -12.707  0.00  0.00    -0.000 A 
ATOM     22  CE1 PHE A   1       0.735   6.907 -11.958  0.00  0.00    -0.000 A 
ATOM     23  CD1 PHE A   1       0.331   6.845 -10.640  0.00  0.00    -0.004 A 
ENDBRANCH  17  18
ENDBRANCH  13  17
ENDBRANCH   2  13
TORSDOF 6
ENDMDL
MODEL 2
REMARK VINA RESULT:      -8.1      3.386      8.408
REMARK  Name = 
REMARK  6 active torsions:
REMARK  status: ('A' for Active; 'I' for Inactive)
REMARK    1  A    between atoms: C_2  and  C_4
REMARK    2  A    between atoms: C_7  and  C_8
REMARK    3  A    between atoms: N_10  and  CA_11
REMARK    4  A    between atoms: CA_11  and  CB_12
REMARK    5  A    between atoms: CA_11  and  C_19
REMARK    6  A    between atoms: CB_12  and  CG_13
REMARK                            x       y       z     vdW  Elec       q    Type
REMARK                         _______ _______ _______ _____ _____    ______ ____
ROOT
ATOM      1  C   UNK A   0       1.130   5.523  -7.269  0.00  0.00    +0.241 C 
ATOM      2  N   PHE A   1       2.298   5.867  -7.815  0.00  0.00    -0.195 NA
ATOM      3  O   UNK A   0       0.429   5.252  -8.238  0.00  0.00    -0.273 OA
ENDROOT
BRANCH   1   7
ATOM      4  C   UNK A   0      -1.526   6.874  -4.646  0.00  0.00    +0.000 C 
ATOM      5  C   UNK A   0      -2.167   5.820  -5.715  0.00  0.00    +0.000 C 
ATOM      6  C   UNK A   0      -1.109   5.538  -6.709  0.00  0.00    +0.009 C 
ATOM      7  C   UNK A   0       0.231   6.371  -6.263  0.00  0.00    +0.078 C 
ATOM      8  C   UNK A   0       0.495   5.407  -4.966  0.00  0.00    +0.009 C 
ATOM      9  C   UNK A   0      -0.581   5.724  -3.972  0.00  0.00    +0.000 C 
BRANCH   4  11
ATOM     10  C   UNK A   0      -2.357   7.250  -2.346  0.00  0.00    +0.000 C 
ATOM     11  C   UNK A   0      -2.739   6.649  -3.582  0.00  0.00    +0.000 C 
ATOM     12  C   UNK A   0      -3.109   5.221  -3.567  0.00  0.00    +0.000 C 
ENDBRANCH   4  11
ENDBRANCH   1   7
BRANCH   2  13
ATOM     13  CA  PHE A   1       3.387   4.724  -7.815  0.00  0.00    +0.202 C 
BRANCH  13  14
ATOM     14  C   PHE A   1       4.046   4.857  -9.268  0.00  0.00    +0.385 C 
ATOM     15  OXT PHE A   1       5.080   5.356  -9.784  0.00  0.00    -0.244 OA
ATOM     16  O   PHE A   1       3.064   4.964 -10.086  0.00  0.00    -0.244 OA
ENDBRANCH  13  14
BRANCH  13  17
ATOM     17  CB  PHE A   1       4.500   5.650  -7.015  0.00  0.00    +0.060 C 
BRANCH  17  18
ATOM     18  CG  PHE A   1       4.089   5.959  -5.680  0.00  0.00    -0.020 A 
ATOM     19  CD2 PHE A   1       4.123   7.206  -5.056  0.00  0.00    -0.004 A 
ATOM     20  CE2 PHE A   1       3.609   7.297  -3.763  0.00  0.00    -0.000 A 
ATOM     21  CZ  PHE A   1       4.101   6.343  -2.895  0.00  0.00    -0.000 A 
ATOM     22  CE1 PHE A   1       4.420   5.102  -3.428  0.00  0.00    -0.000 A 
ATOM     23  CD1 PHE A   1       4.225   4.901  -4.779  0.00  0.00    -0.004 A 
ENDBRANCH  17  18
ENDBRANCH  13  17
ENDBRANCH   2  13
TORSDOF 6
ENDMDL
MODEL 3
REMARK VINA RESULT:      -8.0      3.190      6.035
REMARK  Name = 
REMARK  6 active torsions:
REMARK  status: ('A' for Active; 'I' for Inactive)
REMARK    1  A    between atoms: C_2  and  C_4
REMARK    2  A    between atoms: C_7  and  C_8
REMARK    3  A    between atoms: N_10  and  CA_11
REMARK    4  A    between atoms: CA_11  and  CB_12
REMARK    5  A    between atoms: CA_11  and  C_19
REMARK    6  A    between atoms: CB_12  and  CG_13
REMARK                            x       y       z     vdW  Elec       q    Type
REMARK                         _______ _______ _______ _____ _____    ______ ____
ROOT
ATOM      1  C   UNK A   0      -0.065   5.781  -5.937  0.00  0.00    +0.241 C 
ATOM      2  N   PHE A   1       0.234   5.166  -4.790  0.00  0.00    -0.195 NA
ATOM      3  O   UNK A   0      -1.193   5.375  -6.195  0.00  0.00    -0.273 OA
ENDROOT
BRANCH   1   7
ATOM      4  C   UNK A   0       2.680   5.893  -8.803  0.00  0.00    +0.000 C 
ATOM      5  C   UNK A   0       2.929   7.011  -7.640  0.00  0.00    +0.000 C 
ATOM      6  C   UNK A   0       1.752   6.952  -6.746  0.00  0.00    +0.009 C 
ATOM      7  C   UNK A   0       0.762   5.768  -7.299  0.00  0.00    +0.078 C 
ATOM      8  C   UNK A   0       1.795   4.582  -6.843  0.00  0.00    +0.009 C 
ATOM      9  C   UNK A   0       2.967   4.656  -7.774  0.00  0.00    +0.000 C 
BRANCH   4  11
ATOM     10  C   UNK A   0       4.277   5.450 -10.641  0.00  0.00    +0.000 C 
ATOM     11  C   UNK A   0       4.225   5.967  -9.312  0.00  0.00    +0.000 C 
ATOM     12  C   UNK A   0       5.097   5.346  -8.298  0.00  0.00    +0.000 C 
ENDBRANCH   4  11
ENDBRANCH   1   7
BRANCH   2  13
ATOM     13  CA  PHE A   1       0.022   6.046  -3.497  0.00  0.00    +0.202 C 
BRANCH  13  14
ATOM     14  C   PHE A   1      -0.997   5.168  -2.630  0.00  0.00    +0.385 C 
ATOM     15  OXT PHE A   1      -2.242   5.006  -2.529  0.00  0.00    -0.244 OA
ATOM     16  O   PHE A   1      -0.455   5.045  -1.474  0.00  0.00    -0.244 OA
ENDBRANCH  13  14
BRANCH  13  17
ATOM     17  CB  PHE A   1       1.406   5.496  -2.778  0.00  0.00    +0.060 C 
BRANCH  17  18
ATOM     18  CG  PHE A   1       2.580   5.872  -3.505  0.00  0.00    -0.020 A 
ATOM     19  CD2 PHE A   1       3.680   5.067  -3.802  0.00  0.00    -0.004 A 
ATOM     20  CE2 PHE A   1       4.694   5.620  -4.584  0.00  0.00    -0.000 A 
ATOM     21  CZ  PHE A   1       5.139   6.848  -4.139  0.00  0.00    -0.000 A 
ATOM     22  CE1 PHE A   1       4.212   7.676  -3.522  0.00  0.00    -0.000 A 
ATOM     23  CD1 PHE A   1       2.914   7.223  -3.394  0.00  0.00    -0.004 A 
ENDBRANCH  17  18
ENDBRANCH  13  17
ENDBRANCH   2  13
TORSDOF 6
ENDMDL
MODEL 4
REMARK VINA RESULT:      -8.0      1.110      1.994
REMARK  Name = 
REMARK  6 active torsions:
REMARK  status: ('A' for Active; 'I' for Inactive)
REMARK    1  A    between atoms: C_2  and  C_4
REMARK    2  A    between atoms: C_7  and  C_8
REMARK    3  A    between atoms: N_10  and  CA_11
REMARK    4  A    between atoms: CA_11  and  CB_12
REMARK    5  A    between atoms: CA_11  and  C_19
REMARK    6  A    between atoms: CB_12  and  CG_13
REMARK                            x       y       z     vdW  Elec       q    Type
REMARK                         _______ _______ _______ _____ _____    ______ ____
ROOT
ATOM      1  C   UNK A   0       3.254   4.956  -8.134  0.00  0.00    +0.241 C 
ATOM      2  N   PHE A   1       2.171   5.704  -7.907  0.00  0.00    -0.195 NA
ATOM      3  O   UNK A   0       3.964   5.176  -7.158  0.00  0.00    -0.273 OA
ENDROOT
BRANCH   1   7
ATOM      4  C   UNK A   0       5.820   5.788 -11.046  0.00  0.00    +0.000 C 
ATOM      5  C   UNK A   0       4.886   7.062 -10.639  0.00  0.00    +0.000 C 
ATOM      6  C   UNK A   0       3.888   6.556  -9.671  0.00  0.00    +0.009 C 
ATOM      7  C   UNK A   0       4.200   4.967  -9.415  0.00  0.00    +0.078 C 
ATOM      8  C   UNK A   0       5.577   5.290  -8.589  0.00  0.00    +0.009 C 
ATOM      9  C   UNK A   0       6.572   5.786  -9.595  0.00  0.00    +0.000 C 
BRANCH   4  11
ATOM     10  C   UNK A   0       8.229   6.194 -11.445  0.00  0.00    +0.000 C 
ATOM     11  C   UNK A   0       6.944   6.738 -11.745  0.00  0.00    +0.000 C 
ATOM     12  C   UNK A   0       6.688   8.142 -11.372  0.00  0.00    +0.000 C 
ENDBRANCH   4  11
ENDBRANCH   1   7
BRANCH   2  13
ATOM     13  CA  PHE A   1       0.944   4.919  -7.300  0.00  0.00    +0.202 C 
BRANCH  13  14
ATOM     14  C   PHE A   1       0.586   5.770  -5.992  0.00  0.00    +0.385 C 
ATOM     15  OXT PHE A   1      -0.315   5.800  -5.113  0.00  0.00    -0.244 OA
ATOM     16  O   PHE A   1       0.990   6.963  -6.232  0.00  0.00    -0.244 OA
ENDBRANCH  13  14
BRANCH  13  17
ATOM     17  CB  PHE A   1      -0.146   5.649  -8.307  0.00  0.00    +0.060 C 
BRANCH  17  18
ATOM     18  CG  PHE A   1       0.331   5.730  -9.654  0.00  0.00    -0.020 A 
ATOM     19  CD2 PHE A   1       0.297   6.844 -10.493  0.00  0.00    -0.004 A 
ATOM     20  CE2 PHE A   1       0.879   6.722 -11.754  0.00  0.00    -0.000 A 
ATOM     21  CZ  PHE A   1       0.463   5.611 -12.459  0.00  0.00    -0.000 A 
ATOM     22  CE1 PHE A   1       0.149   4.474 -11.729  0.00  0.00    -0.000 A 
ATOM     23  CD1 PHE A   1       0.274   4.525 -10.355  0.00  0.00    -0.004 A 
ENDBRANCH  17  18
ENDBRANCH  13  17
ENDBRANCH   2  13
TORSDOF 6
ENDMDL
MODEL 5
REMARK VINA RESULT:      -7.8      2.566      4.814
REMARK  Name = 
REMARK  6 active torsions:
REMARK  status: ('A' for Active; 'I' for Inactive)
REMARK    1  A    between atoms: C_2  and  C_4
REMARK    2  A    between atoms: C_7  and  C_8
REMARK    3  A    between atoms: N_10  and  CA_11
REMARK    4  A    between atoms: CA_11  and  CB_12
REMARK    5  A    between atoms: CA_11  and  C_19
REMARK    6  A    between atoms: CB_12  and  CG_13
REMARK                            x       y       z     vdW  Elec       q    Type
REMARK                         _______ _______ _______ _____ _____    ______ ____
ROOT
ATOM      1  C   UNK A   0       2.379   5.183  -8.840  0.00  0.00    +0.241 C 
ATOM      2  N   PHE A   1       2.167   4.782  -7.585  0.00  0.00    -0.195 NA
ATOM      3  O   UNK A   0       1.487   4.628  -9.473  0.00  0.00    -0.273 OA
ENDROOT
BRANCH   1   7
ATOM      4  C   UNK A   0       5.903   5.625 -10.614  0.00  0.00    +0.000 C 
ATOM      5  C   UNK A   0       5.059   7.019 -10.519  0.00  0.00    +0.000 C 
ATOM      6  C   UNK A   0       3.724   6.664  -9.990  0.00  0.00    +0.009 C 
ATOM      7  C   UNK A   0       3.714   5.050  -9.699  0.00  0.00    +0.078 C 
ATOM      8  C   UNK A   0       4.734   5.194  -8.425  0.00  0.00    +0.009 C 
ATOM      9  C   UNK A   0       6.078   5.539  -8.991  0.00  0.00    +0.000 C 
BRANCH   4  11
ATOM     10  C   UNK A   0       7.025   7.778 -11.089  0.00  0.00    +0.000 C 
ATOM     11  C   UNK A   0       7.316   6.406 -10.831  0.00  0.00    +0.000 C 
ATOM     12  C   UNK A   0       8.123   5.674 -11.826  0.00  0.00    +0.000 C 
ENDBRANCH   4  11
ENDBRANCH   1   7
BRANCH   2  13
ATOM     13  CA  PHE A   1       1.391   5.820  -6.684  0.00  0.00    +0.202 C 
BRANCH  13  14
ATOM     14  C   PHE A   1       0.009   5.070  -6.384  0.00  0.00    +0.385 C 
ATOM     15  OXT PHE A   1      -1.096   4.879  -6.957  0.00  0.00    -0.244 OA
ATOM     16  O   PHE A   1      -0.178   5.177  -5.120  0.00  0.00    -0.244 OA
ENDBRANCH  13  14
BRANCH  13  17
ATOM     17  CB  PHE A   1       2.167   5.349  -5.302  0.00  0.00    +0.060 C 
BRANCH  17  18
ATOM     18  CG  PHE A   1       3.114   6.323  -4.853  0.00  0.00    -0.020 A 
ATOM     19  CD2 PHE A   1       4.502   6.266  -4.972  0.00  0.00    -0.004 A 
ATOM     20  CE2 PHE A   1       5.236   7.362  -4.521  0.00  0.00    -0.000 A 
ATOM     21  CZ  PHE A   1       4.908   7.770  -3.244  0.00  0.00    -0.000 A 
ATOM     22  CE1 PHE A   1       3.590   7.607  -2.842  0.00  0.00    -0.000 A 
ATOM     23  CD1 PHE A   1       2.698   7.054  -3.738  0.00  0.00    -0.004 A 
ENDBRANCH  17  18
ENDBRANCH  13  17
ENDBRANCH   2  13
TORSDOF 6
ENDMDL
MODEL 6
REMARK VINA RESULT:      -7.6      3.211      6.696
REMARK  Name = 
REMARK  6 active torsions:
REMARK  status: ('A' for Active; 'I' for Inactive)
REMARK    1  A    between atoms: C_2  and  C_4
REMARK    2  A    between atoms: C_7  and  C_8
REMARK    3  A    between atoms: N_10  and  CA_11
REMARK    4  A    between atoms: CA_11  and  CB_12
REMARK    5  A    between atoms: CA_11  and  C_19
REMARK    6  A    between atoms: CB_12  and  CG_13
REMARK                            x       y       z     vdW  Elec       q    Type
REMARK                         _______ _______ _______ _____ _____    ______ ____
ROOT
ATOM      1  C   UNK A   0       2.758   4.609  -6.553  0.00  0.00    +0.241 C 
ATOM      2  N   PHE A   1       2.604   5.517  -7.519  0.00  0.00    -0.195 NA
ATOM      3  O   UNK A   0       1.614   4.220  -6.340  0.00  0.00    -0.273 OA
ENDROOT
BRANCH   1   7
ATOM      4  C   UNK A   0       4.347   5.924  -3.162  0.00  0.00    +0.000 C 
ATOM      5  C   UNK A   0       4.677   6.890  -4.435  0.00  0.00    +0.000 C 
ATOM      6  C   UNK A   0       4.163   6.192  -5.634  0.00  0.00    +0.009 C 
ATOM      7  C   UNK A   0       3.461   4.795  -5.136  0.00  0.00    +0.078 C 
ATOM      8  C   UNK A   0       2.205   5.583  -4.441  0.00  0.00    +0.009 C 
ATOM      9  C   UNK A   0       2.751   6.268  -3.224  0.00  0.00    +0.000 C 
BRANCH   4  11
ATOM     10  C   UNK A   0       4.513   6.560  -0.776  0.00  0.00    +0.000 C 
ATOM     11  C   UNK A   0       4.667   7.105  -2.086  0.00  0.00    +0.000 C 
ATOM     12  C   UNK A   0       3.873   8.299  -2.431  0.00  0.00    +0.000 C 
ENDBRANCH   4  11
ENDBRANCH   1   7
BRANCH   2  13
ATOM     13  CA  PHE A   1       2.908   4.988  -8.975  0.00  0.00    +0.202 C 
BRANCH  13  14
ATOM     14  C   PHE A   1       1.498   5.148  -9.715  0.00  0.00    +0.385 C 
ATOM     15  OXT PHE A   1       0.913   4.679 -10.727  0.00  0.00    -0.244 OA
ATOM     16  O   PHE A   1       1.158   6.374  -9.555  0.00  0.00    -0.244 OA
ENDBRANCH  13  14
BRANCH  13  17
ATOM     17  CB  PHE A   1       3.548   6.430  -9.470  0.00  0.00    +0.060 C 
BRANCH  17  18
ATOM     18  CG  PHE A   1       4.908   6.302  -9.896  0.00  0.00    -0.020 A 
ATOM     19  CD2 PHE A   1       5.979   5.806  -9.155  0.00  0.00    -0.004 A 
ATOM     20  CE2 PHE A   1       7.216   5.707  -9.790  0.00  0.00    -0.000 A 
ATOM     21  CZ  PHE A   1       7.609   6.863 -10.435  0.00  0.00    -0.000 A 
ATOM     22  CE1 PHE A   1       6.612   7.659 -10.980  0.00  0.00    -0.000 A 
ATOM     23  CD1 PHE A   1       5.302   7.246 -10.847  0.00  0.00    -0.004 A 
ENDBRANCH  17  18
ENDBRANCH  13  17
ENDBRANCH   2  13
TORSDOF 6
ENDMDL
MODEL 7
REMARK VINA RESULT:      -7.6      3.017      6.508
REMARK  Name = 
REMARK  6 active torsions:
REMARK  status: ('A' for Active; 'I' for Inactive)
REMARK    1  A    between atoms: C_2  and  C_4
REMARK    2  A    between atoms: C_7  and  C_8
REMARK    3  A    between atoms: N_10  and  CA_11
REMARK    4  A    between atoms: CA_11  and  CB_12
REMARK    5  A    between atoms: CA_11  and  C_19
REMARK    6  A    between atoms: CB_12  and  CG_13
REMARK                            x       y       z     vdW  Elec       q    Type
REMARK                         _______ _______ _______ _____ _____    ______ ____
ROOT
ATOM      1  C   UNK A   0       3.131   5.793 -10.796  0.00  0.00    +0.241 C 
ATOM      2  N   PHE A   1       3.406   6.273 -12.011  0.00  0.00    -0.195 NA
ATOM      3  O   UNK A   0       1.944   5.493 -10.867  0.00  0.00    -0.273 OA
ENDROOT
BRANCH   1   7
ATOM      4  C   UNK A   0       3.503   6.771  -6.967  0.00  0.00    +0.000 C 
ATOM      5  C   UNK A   0       2.263   5.748  -7.244  0.00  0.00    +0.000 C 
ATOM      6  C   UNK A   0       2.155   5.609  -8.713  0.00  0.00    +0.009 C 
ATOM      7  C   UNK A   0       3.351   6.505  -9.388  0.00  0.00    +0.078 C 
ATOM      8  C   UNK A   0       4.519   5.478  -8.874  0.00  0.00    +0.009 C 
ATOM      9  C   UNK A   0       4.615   5.650  -7.388  0.00  0.00    +0.000 C 
BRANCH   4  11
ATOM     10  C   UNK A   0       4.629   7.134  -4.793  0.00  0.00    +0.000 C 
ATOM     11  C   UNK A   0       3.565   6.390  -5.384  0.00  0.00    +0.000 C 
ATOM     12  C   UNK A   0       3.590   4.922  -5.243  0.00  0.00    +0.000 C 
ENDBRANCH   4  11
ENDBRANCH   1   7
BRANCH   2  13
ATOM     13  CA  PHE A   1       4.105   5.244 -12.983  0.00  0.00    +0.202 C 
BRANCH  13  14
ATOM     14  C   PHE A   1       3.214   5.344 -14.310  0.00  0.00    +0.385 C 
ATOM     15  OXT PHE A   1       2.620   6.233 -14.974  0.00  0.00    -0.244 OA
ATOM     16  O   PHE A   1       2.543   4.252 -14.360  0.00  0.00    -0.244 OA
ENDBRANCH  13  14
BRANCH  13  17
ATOM     17  CB  PHE A   1       5.265   6.325 -13.451  0.00  0.00    +0.060 C 
BRANCH  17  18
ATOM     18  CG  PHE A   1       6.356   6.384 -12.527  0.00  0.00    -0.020 A 
ATOM     19  CD2 PHE A   1       6.901   5.327 -11.800  0.00  0.00    -0.004 A 
ATOM     20  CE2 PHE A   1       8.012   5.596 -11.001  0.00  0.00    -0.000 A 
ATOM     21  CZ  PHE A   1       7.853   6.685 -10.167  0.00  0.00    -0.000 A 
ATOM     22  CE1 PHE A   1       7.061   7.728 -10.626  0.00  0.00    -0.000 A 
ATOM     23  CD1 PHE A   1       6.490   7.613 -11.877  0.00  0.00    -0.004 A 
ENDBRANCH  17  18
ENDBRANCH  13  17
ENDBRANCH   2  13
TORSDOF 6
ENDMDL
MODEL 8
REMARK VINA RESULT:      -7.5      2.520      7.269
REMARK  Name = 
REMARK  6 active torsions:
REMARK  status: ('A' for Active; 'I' for Inactive)
REMARK    1  A    between atoms: C_2  and  C_4
REMARK    2  A    between atoms: C_7  and  C_8
REMARK    3  A    between atoms: N_10  and  CA_11
REMARK    4  A    between atoms: CA_11  and  CB_12
REMARK    5  A    between atoms: CA_11  and  C_19
REMARK    6  A    between atoms: CB_12  and  CG_13
REMARK                            x       y       z     vdW  Elec       q    Type
REMARK                         _______ _______ _______ _____ _____    ______ ____
ROOT
ATOM      1  C   UNK A   0       2.206   5.112  -7.969  0.00  0.00    +0.241 C 
ATOM      2  N   PHE A   1       1.697   4.979  -9.196  0.00  0.00    -0.195 NA
ATOM      3  O   UNK A   0       2.266   3.958  -7.557  0.00  0.00    -0.273 OA
ENDROOT
BRANCH   1   7
ATOM      4  C   UNK A   0       0.193   6.761  -4.972  0.00  0.00    +0.000 C 
ATOM      5  C   UNK A   0      -0.779   6.194  -6.155  0.00  0.00    +0.000 C 
ATOM      6  C   UNK A   0       0.111   5.765  -7.256  0.00  0.00    +0.009 C 
ATOM      7  C   UNK A   0       1.659   6.010  -6.773  0.00  0.00    +0.078 C 
ATOM      8  C   UNK A   0       1.593   4.792  -5.681  0.00  0.00    +0.009 C 
ATOM      9  C   UNK A   0       0.699   5.259  -4.572  0.00  0.00    +0.000 C 
BRANCH   4  11
ATOM     10  C   UNK A   0      -1.056   5.469  -3.270  0.00  0.00    +0.000 C 
ATOM     11  C   UNK A   0      -1.013   6.760  -3.877  0.00  0.00    +0.000 C 
ATOM     12  C   UNK A   0      -2.245   7.261  -4.516  0.00  0.00    +0.000 C 
ENDBRANCH   4  11
ENDBRANCH   1   7
BRANCH   2  13
ATOM     13  CA  PHE A   1       2.762   5.010 -10.359  0.00  0.00    +0.202 C 
BRANCH  13  14
ATOM     14  C   PHE A   1       2.023   5.855 -11.500  0.00  0.00    +0.385 C 
ATOM     15  OXT PHE A   1       2.305   6.374 -12.612  0.00  0.00    -0.244 OA
ATOM     16  O   PHE A   1       1.167   6.589 -10.889  0.00  0.00    -0.244 OA
ENDBRANCH  13  14
BRANCH  13  17
ATOM     17  CB  PHE A   1       3.595   6.275  -9.695  0.00  0.00    +0.060 C 
BRANCH  17  18
ATOM     18  CG  PHE A   1       4.980   6.260 -10.053  0.00  0.00    -0.020 A 
ATOM     19  CD2 PHE A   1       6.045   5.797  -9.281  0.00  0.00    -0.004 A 
ATOM     20  CE2 PHE A   1       7.316   5.815  -9.853  0.00  0.00    -0.000 A 
ATOM     21  CZ  PHE A   1       7.660   7.027 -10.418  0.00  0.00    -0.000 A 
ATOM     22  CE1 PHE A   1       6.638   7.782 -10.975  0.00  0.00    -0.000 A 
ATOM     23  CD1 PHE A   1       5.355   7.277 -10.933  0.00  0.00    -0.004 A 
ENDBRANCH  17  18
ENDBRANCH  13  17
ENDBRANCH   2  13
TORSDOF 6
ENDMDL
MODEL 9
REMARK VINA RESULT:      -7.4      2.893      6.367
REMARK  Name = 
REMARK  6 active torsions:
REMARK  status: ('A' for Active; 'I' for Inactive)
REMARK    1  A    between atoms: C_2  and  C_4
REMARK    2  A    between atoms: C_7  and  C_8
REMARK    3  A    between atoms: N_10  and  CA_11
REMARK    4  A    between atoms: CA_11  and  CB_12
REMARK    5  A    between atoms: CA_11  and  C_19
REMARK    6  A    between atoms: CB_12  and  CG_13
REMARK                            x       y       z     vdW  Elec       q    Type
REMARK                         _______ _______ _______ _____ _____    ______ ____
ROOT
ATOM      1  C   UNK A   0       1.507   5.678  -7.929  0.00  0.00    +0.241 C 
ATOM      2  N   PHE A   1       1.837   6.343  -9.039  0.00  0.00    -0.195 NA
ATOM      3  O   UNK A   0       0.304   5.479  -8.061  0.00  0.00    -0.273 OA
ENDROOT
BRANCH   1   7
ATOM      4  C   UNK A   0       2.892   6.404  -4.281  0.00  0.00    +0.000 C 
ATOM      5  C   UNK A   0       3.322   4.933  -4.843  0.00  0.00    +0.000 C 
ATOM      6  C   UNK A   0       2.605   4.750  -6.124  0.00  0.00    +0.009 C 
ATOM      7  C   UNK A   0       1.747   6.116  -6.417  0.00  0.00    +0.078 C 
ATOM      8  C   UNK A   0       3.096   6.994  -6.721  0.00  0.00    +0.009 C 
ATOM      9  C   UNK A   0       3.792   7.175  -5.406  0.00  0.00    +0.000 C 
BRANCH   4  11
ATOM     10  C   UNK A   0       5.194   7.119  -3.720  0.00  0.00    +0.000 C 
ATOM     11  C   UNK A   0       4.084   6.411  -3.170  0.00  0.00    +0.000 C 
ATOM     12  C   UNK A   0       4.312   5.032  -2.699  0.00  0.00    +0.000 C 
ENDBRANCH   4  11
ENDBRANCH   1   7
BRANCH   2  13
ATOM     13  CA  PHE A   1       2.484   5.455 -10.172  0.00  0.00    +0.202 C 
BRANCH  13  14
ATOM     14  C   PHE A   1       1.418   5.559 -11.361  0.00  0.00    +0.385 C 
ATOM     15  OXT PHE A   1       0.684   4.785 -12.030  0.00  0.00    -0.244 OA
ATOM     16  O   PHE A   1       1.824   6.517 -12.109  0.00  0.00    -0.244 OA
ENDBRANCH  13  14
BRANCH  13  17
ATOM     17  CB  PHE A   1       3.474   6.671 -10.696  0.00  0.00    +0.060 C 
BRANCH  17  18
ATOM     18  CG  PHE A   1       4.858   6.363 -10.506  0.00  0.00    -0.020 A 
ATOM     19  CD2 PHE A   1       5.461   5.869  -9.350  0.00  0.00    -0.004 A 
ATOM     20  CE2 PHE A   1       6.822   5.575  -9.404  0.00  0.00    -0.000 A 
ATOM     21  CZ  PHE A   1       7.597   6.597  -9.917  0.00  0.00    -0.000 A 
ATOM     22  CE1 PHE A   1       7.023   7.404 -10.889  0.00  0.00    -0.000 A 
ATOM     23  CD1 PHE A   1       5.727   7.136 -11.279  0.00  0.00    -0.004 A 
ENDBRANCH  17  18
ENDBRANCH  13  17
ENDBRANCH   2  13
TORSDOF 6
ENDMDL
