MODEL 1
REMARK VINA RESULT:      -9.1      0.000      0.000
REMARK  Name = 
REMARK  7 active torsions:
REMARK  status: ('A' for Active; 'I' for Inactive)
REMARK    1  A    between atoms: O_2  and  C_3
REMARK    2  A    between atoms: C_6  and  C_7
REMARK    3  A    between atoms: C_7  and  N_8
REMARK    4  A    between atoms: C_16  and  C_17
REMARK    5  A    between atoms: C_21  and  C_22
REMARK    6  A    between atoms: N_24  and  C_25
REMARK    7  A    between atoms: C_25  and  C_26
REMARK                            x       y       z     vdW  Elec       q    Type
REMARK                         _______ _______ _______ _____ _____    ______ ____
ROOT
ATOM      1  N   UNL     1       1.446   5.686  -9.234  0.00  0.00    -0.215 NA
ATOM      2  C   UNL     1       2.804   5.300  -9.336  0.00  0.00    +0.157 A 
ATOM      3  C   UNL     1       3.578   5.401  -8.185  0.00  0.00    +0.110 A 
ATOM      4  C   UNL     1       4.931   5.712  -8.244  0.00  0.00    +0.109 A 
ATOM      5  N   UNL     1       5.449   6.110  -9.433  0.00  0.00    -0.212 NA
ATOM      6  C   UNL     1       4.762   5.826 -10.566  0.00  0.00    +0.221 A 
ATOM      7  N   UNL     1       5.526   5.842 -11.780  0.00  0.00    -0.277 N 
ATOM      8  C   UNL     1       5.902   7.315 -12.269  0.00  0.00    +0.108 C 
ATOM      9  C   UNL     1       7.305   7.321 -11.368  0.00  0.00    +0.024 C 
ATOM     10  C   UNL     1       7.880   6.004 -11.744  0.00  0.00    +0.023 C 
ATOM     11  C   UNL     1       6.721   5.087 -11.967  0.00  0.00    +0.094 C 
ATOM     12  N   UNL     1       3.499   5.393 -10.496  0.00  0.00    -0.197 NA
ENDROOT
BRANCH   3  13
ATOM     13  C   UNL     1       2.910   5.667  -6.903  0.00  0.00    +0.280 C 
ATOM     14  N   UNL     1       2.434   4.614  -6.309  0.00  0.00    -0.226 NA
ATOM     15  O   UNL     1       3.548   6.588  -6.067  0.00  0.00    -0.265 OA
BRANCH  14  16
ATOM     16  C   UNL     1       1.579   4.868  -5.155  0.00  0.00    +0.194 C 
BRANCH  16  17
ATOM     17  C   UNL     1       0.366   5.566  -5.651  0.00  0.00    +0.164 A 
ATOM     18  N   UNL     1       0.001   6.709  -5.020  0.00  0.00    -0.227 NA
ATOM     19  C   UNL     1      -1.256   7.186  -5.093  0.00  0.00    +0.102 A 
ATOM     20  C   UNL     1      -2.222   6.419  -5.732  0.00  0.00    +0.041 A 
ATOM     21  C   UNL     1      -1.828   5.357  -6.522  0.00  0.00    +0.102 A 
ATOM     22  N   UNL     1      -0.556   4.958  -6.427  0.00  0.00    -0.227 NA
ENDBRANCH  16  17
ENDBRANCH  14  16
ENDBRANCH   3  13
BRANCH   8  23
ATOM     23  C   UNL     1       6.692   6.750 -13.627  0.00  0.00    +0.202 C 
ATOM     24  O   UNL     1       6.449   7.758 -14.566  0.00  0.00    -0.219 OA
ENDBRANCH   8  23
BRANCH   1  25
ATOM     25  C   UNL     1       0.336   5.012  -9.835  0.00  0.00    +0.140 C 
BRANCH  25  30
ATOM     26  C   UNL     1       1.271   5.908 -13.763  0.00  0.00    +0.149 A 
ATOM     27  C   UNL     1       0.788   6.951 -12.984  0.00  0.00    +0.091 A 
ATOM     28 CL   UNL     1       0.658   8.591 -13.610  0.00  0.00    -0.079 Cl
ATOM     29  C   UNL     1       0.298   6.680 -11.711  0.00  0.00    +0.012 A 
ATOM     30  C   UNL     1       0.116   5.378 -11.258  0.00  0.00    +0.000 A 
ATOM     31  C   UNL     1       0.200   4.405 -12.247  0.00  0.00    +0.001 A 
ATOM     32  C   UNL     1       0.801   4.658 -13.474  0.00  0.00    +0.038 A 
BRANCH  26  34
ATOM     33  C   UNL     1       3.472   5.991 -14.673  0.00  0.00    +0.253 C 
ATOM     34  O   UNL     1       2.086   6.238 -14.814  0.00  0.00    -0.471 OA
ENDBRANCH  26  34
ENDBRANCH  25  30
ENDBRANCH   1  25
TORSDOF 7
ENDMDL
MODEL 2
REMARK VINA RESULT:      -9.0      2.220      7.030
REMARK  Name = 
REMARK  7 active torsions:
REMARK  status: ('A' for Active; 'I' for Inactive)
REMARK    1  A    between atoms: O_2  and  C_3
REMARK    2  A    between atoms: C_6  and  C_7
REMARK    3  A    between atoms: C_7  and  N_8
REMARK    4  A    between atoms: C_16  and  C_17
REMARK    5  A    between atoms: C_21  and  C_22
REMARK    6  A    between atoms: N_24  and  C_25
REMARK    7  A    between atoms: C_25  and  C_26
REMARK                            x       y       z     vdW  Elec       q    Type
REMARK                         _______ _______ _______ _____ _____    ______ ____
ROOT
ATOM      1  N   UNL     1       1.190   5.406  -8.378  0.00  0.00    -0.215 NA
ATOM      2  C   UNL     1       2.162   6.052  -7.578  0.00  0.00    +0.157 A 
ATOM      3  C   UNL     1       3.496   5.845  -7.912  0.00  0.00    +0.110 A 
ATOM      4  C   UNL     1       4.491   5.814  -6.942  0.00  0.00    +0.109 A 
ATOM      5  N   UNL     1       4.120   5.796  -5.638  0.00  0.00    -0.212 NA
ATOM      6  C   UNL     1       2.864   6.190  -5.317  0.00  0.00    +0.221 A 
ATOM      7  N   UNL     1       2.664   6.589  -3.953  0.00  0.00    -0.277 N 
ATOM      8  C   UNL     1       2.636   5.358  -2.934  0.00  0.00    +0.108 C 
ATOM      9  C   UNL     1       4.289   5.415  -2.725  0.00  0.00    +0.024 C 
ATOM     10  C   UNL     1       4.486   6.867  -2.479  0.00  0.00    +0.023 C 
ATOM     11  C   UNL     1       3.457   7.576  -3.298  0.00  0.00    +0.094 C 
ATOM     12  N   UNL     1       1.944   6.352  -6.273  0.00  0.00    -0.197 NA
ENDROOT
BRANCH   3  13
ATOM     13  C   UNL     1       3.813   5.180  -9.183  0.00  0.00    +0.280 C 
ATOM     14  N   UNL     1       4.484   5.908 -10.025  0.00  0.00    -0.226 NA
ATOM     15  O   UNL     1       4.223   3.848  -9.084  0.00  0.00    -0.265 OA
BRANCH  14  16
ATOM     16  C   UNL     1       4.620   5.360 -11.370  0.00  0.00    +0.194 C 
BRANCH  16  17
ATOM     17  C   UNL     1       6.073   5.275 -11.665  0.00  0.00    +0.164 A 
ATOM     18  N   UNL     1       6.929   5.771 -10.739  0.00  0.00    -0.227 NA
ATOM     19  C   UNL     1       8.189   6.124 -11.058  0.00  0.00    +0.102 A 
ATOM     20  C   UNL     1       8.572   6.087 -12.392  0.00  0.00    +0.041 A 
ATOM     21  C   UNL     1       7.777   5.422 -13.305  0.00  0.00    +0.102 A 
ATOM     22  N   UNL     1       6.550   5.068 -12.911  0.00  0.00    -0.227 NA
ENDBRANCH  16  17
ENDBRANCH  14  16
ENDBRANCH   3  13
BRANCH   8  23
ATOM     23  C   UNL     1       2.363   6.350  -1.619  0.00  0.00    +0.202 C 
ATOM     24  O   UNL     1       2.022   5.439  -0.613  0.00  0.00    -0.219 OA
ENDBRANCH   8  23
BRANCH   1  25
ATOM     25  C   UNL     1      -0.046   5.977  -8.820  0.00  0.00    +0.140 C 
BRANCH  25  30
ATOM     26  C   UNL     1       1.000   5.742 -12.814  0.00  0.00    +0.149 A 
ATOM     27  C   UNL     1       0.536   6.970 -12.363  0.00  0.00    +0.091 A 
ATOM     28 CL   UNL     1       0.473   8.380 -13.415  0.00  0.00    -0.079 Cl
ATOM     29  C   UNL     1       0.011   7.070 -11.079  0.00  0.00    +0.012 A 
ATOM     30  C   UNL     1      -0.224   5.946 -10.294  0.00  0.00    +0.000 A 
ATOM     31  C   UNL     1      -0.152   4.738 -10.978  0.00  0.00    +0.001 A 
ATOM     32  C   UNL     1       0.482   4.631 -12.209  0.00  0.00    +0.038 A 
BRANCH  26  34
ATOM     33  C   UNL     1       2.535   4.552 -14.196  0.00  0.00    +0.253 C 
ATOM     34  O   UNL     1       1.847   5.751 -13.891  0.00  0.00    -0.471 OA
ENDBRANCH  26  34
ENDBRANCH  25  30
ENDBRANCH   1  25
TORSDOF 7
ENDMDL
MODEL 3
REMARK VINA RESULT:      -8.8      3.426      9.338
REMARK  Name = 
REMARK  7 active torsions:
REMARK  status: ('A' for Active; 'I' for Inactive)
REMARK    1  A    between atoms: O_2  and  C_3
REMARK    2  A    between atoms: C_6  and  C_7
REMARK    3  A    between atoms: C_7  and  N_8
REMARK    4  A    between atoms: C_16  and  C_17
REMARK    5  A    between atoms: C_21  and  C_22
REMARK    6  A    between atoms: N_24  and  C_25
REMARK    7  A    between atoms: C_25  and  C_26
REMARK                            x       y       z     vdW  Elec       q    Type
REMARK                         _______ _______ _______ _____ _____    ______ ____
ROOT
ATOM      1  N   UNL     1       3.466   6.499  -6.691  0.00  0.00    -0.215 NA
ATOM      2  C   UNL     1       2.201   5.890  -6.509  0.00  0.00    +0.157 A 
ATOM      3  C   UNL     1       1.390   5.768  -7.632  0.00  0.00    +0.110 A 
ATOM      4  C   UNL     1       0.005   5.840  -7.539  0.00  0.00    +0.109 A 
ATOM      5  N   UNL     1      -0.542   6.227  -6.360  0.00  0.00    -0.212 NA
ATOM      6  C   UNL     1       0.216   6.154  -5.239  0.00  0.00    +0.221 A 
ATOM      7  N   UNL     1      -0.505   6.125  -3.999  0.00  0.00    -0.277 N 
ATOM      8  C   UNL     1      -1.124   7.542  -3.597  0.00  0.00    +0.108 C 
ATOM      9  C   UNL     1      -2.530   7.234  -4.439  0.00  0.00    +0.024 C 
ATOM     10  C   UNL     1      -2.850   5.868  -3.951  0.00  0.00    +0.023 C 
ATOM     11  C   UNL     1      -1.541   5.188  -3.713  0.00  0.00    +0.094 C 
ATOM     12  N   UNL     1       1.533   5.945  -5.330  0.00  0.00    -0.197 NA
ENDROOT
BRANCH   3  13
ATOM     13  C   UNL     1       1.964   6.050  -8.954  0.00  0.00    +0.280 C 
ATOM     14  N   UNL     1       2.586   5.050  -9.502  0.00  0.00    -0.226 NA
ATOM     15  O   UNL     1       1.158   6.798  -9.817  0.00  0.00    -0.265 OA
BRANCH  14  16
ATOM     16  C   UNL     1       3.351   5.360 -10.705  0.00  0.00    +0.194 C 
BRANCH  16  17
ATOM     17  C   UNL     1       4.608   6.021 -10.270  0.00  0.00    +0.164 A 
ATOM     18  N   UNL     1       4.990   7.137 -10.937  0.00  0.00    -0.227 NA
ATOM     19  C   UNL     1       6.267   7.567 -10.921  0.00  0.00    +0.102 A 
ATOM     20  C   UNL     1       7.227   6.776 -10.304  0.00  0.00    +0.041 A 
ATOM     21  C   UNL     1       6.825   5.744  -9.479  0.00  0.00    +0.102 A 
ATOM     22  N   UNL     1       5.536   5.392  -9.517  0.00  0.00    -0.227 NA
ENDBRANCH  16  17
ENDBRANCH  14  16
ENDBRANCH   3  13
BRANCH   8  23
ATOM     23  C   UNL     1      -1.762   6.949  -2.172  0.00  0.00    +0.202 C 
ATOM     24  O   UNL     1      -1.613   8.028  -1.295  0.00  0.00    -0.219 OA
ENDBRANCH   8  23
BRANCH   1  25
ATOM     25  C   UNL     1       4.694   6.077  -6.091  0.00  0.00    +0.140 C 
BRANCH  25  30
ATOM     26  C   UNL     1       3.203   6.220  -2.236  0.00  0.00    +0.149 A 
ATOM     27  C   UNL     1       3.714   7.403  -2.750  0.00  0.00    +0.091 A 
ATOM     28 CL   UNL     1       3.656   8.909  -1.841  0.00  0.00    -0.079 Cl
ATOM     29  C   UNL     1       4.381   7.384  -3.970  0.00  0.00    +0.012 A 
ATOM     30  C   UNL     1       4.704   6.192  -4.610  0.00  0.00    +0.000 A 
ATOM     31  C   UNL     1       4.556   5.056  -3.824  0.00  0.00    +0.001 A 
ATOM     32  C   UNL     1       3.787   5.061  -2.667  0.00  0.00    +0.038 A 
BRANCH  26  34
ATOM     33  C   UNL     1       1.429   5.189  -1.022  0.00  0.00    +0.253 C 
ATOM     34  O   UNL     1       2.239   6.323  -1.267  0.00  0.00    -0.471 OA
ENDBRANCH  26  34
ENDBRANCH  25  30
ENDBRANCH   1  25
TORSDOF 7
ENDMDL
MODEL 4
REMARK VINA RESULT:      -8.6      3.121      6.151
REMARK  Name = 
REMARK  7 active torsions:
REMARK  status: ('A' for Active; 'I' for Inactive)
REMARK    1  A    between atoms: O_2  and  C_3
REMARK    2  A    between atoms: C_6  and  C_7
REMARK    3  A    between atoms: C_7  and  N_8
REMARK    4  A    between atoms: C_16  and  C_17
REMARK    5  A    between atoms: C_21  and  C_22
REMARK    6  A    between atoms: N_24  and  C_25
REMARK    7  A    between atoms: C_25  and  C_26
REMARK                            x       y       z     vdW  Elec       q    Type
REMARK                         _______ _______ _______ _____ _____    ______ ____
ROOT
ATOM      1  N   UNL     1       3.224   4.707  -7.059  0.00  0.00    -0.215 NA
ATOM      2  C   UNL     1       3.413   5.694  -8.054  0.00  0.00    +0.157 A 
ATOM      3  C   UNL     1       2.328   5.978  -8.877  0.00  0.00    +0.110 A 
ATOM      4  C   UNL     1       2.501   6.353 -10.204  0.00  0.00    +0.109 A 
ATOM      5  N   UNL     1       3.740   6.249 -10.746  0.00  0.00    -0.212 NA
ATOM      6  C   UNL     1       4.806   6.166  -9.914  0.00  0.00    +0.221 A 
ATOM      7  N   UNL     1       6.075   6.516 -10.488  0.00  0.00    -0.277 N 
ATOM      8  C   UNL     1       6.647   5.401 -11.478  0.00  0.00    +0.108 C 
ATOM      9  C   UNL     1       5.855   6.069 -12.784  0.00  0.00    +0.024 C 
ATOM     10  C   UNL     1       6.222   7.500 -12.627  0.00  0.00    +0.023 C 
ATOM     11  C   UNL     1       6.321   7.750 -11.158  0.00  0.00    +0.094 C 
ATOM     12  N   UNL     1       4.625   5.943  -8.609  0.00  0.00    -0.197 NA
ENDROOT
BRANCH   3  13
ATOM     13  C   UNL     1       1.012   5.429  -8.528  0.00  0.00    +0.280 C 
ATOM     14  N   UNL     1       0.416   6.027  -7.540  0.00  0.00    -0.226 NA
ATOM     15  O   UNL     1       0.189   5.095  -9.608  0.00  0.00    -0.265 OA
BRANCH  14  16
ATOM     16  C   UNL     1      -0.782   5.371  -7.029  0.00  0.00    +0.194 C 
BRANCH  16  17
ATOM     17  C   UNL     1      -1.095   5.987  -5.715  0.00  0.00    +0.164 A 
ATOM     18  N   UNL     1      -2.035   5.382  -4.949  0.00  0.00    -0.227 NA
ATOM     19  C   UNL     1      -2.685   6.044  -3.973  0.00  0.00    +0.102 A 
ATOM     20  C   UNL     1      -2.468   7.408  -3.836  0.00  0.00    +0.041 A 
ATOM     21  C   UNL     1      -1.395   7.989  -4.483  0.00  0.00    +0.102 A 
ATOM     22  N   UNL     1      -0.771   7.263  -5.416  0.00  0.00    -0.227 NA
ENDBRANCH  16  17
ENDBRANCH  14  16
ENDBRANCH   3  13
BRANCH   8  23
ATOM     23  C   UNL     1       8.038   6.272 -11.784  0.00  0.00    +0.202 C 
ATOM     24  O   UNL     1       8.830   5.353 -12.479  0.00  0.00    -0.219 OA
ENDBRANCH   8  23
BRANCH   1  25
ATOM     25  C   UNL     1       3.714   4.766  -5.715  0.00  0.00    +0.140 C 
BRANCH  25  30
ATOM     26  C   UNL     1       2.949   7.128  -2.408  0.00  0.00    +0.149 A 
ATOM     27  C   UNL     1       1.933   6.271  -2.810  0.00  0.00    +0.091 A 
ATOM     28 CL   UNL     1       0.426   6.135  -1.910  0.00  0.00    -0.079 Cl
ATOM     29  C   UNL     1       2.062   5.577  -4.008  0.00  0.00    +0.012 A 
ATOM     30  C   UNL     1       3.094   5.843  -4.901  0.00  0.00    +0.000 A 
ATOM     31  C   UNL     1       3.803   7.008  -4.635  0.00  0.00    +0.001 A 
ATOM     32  C   UNL     1       3.757   7.625  -3.391  0.00  0.00    +0.038 A 
BRANCH  26  34
ATOM     33  C   UNL     1       3.841   6.747  -0.230  0.00  0.00    +0.253 C 
ATOM     34  O   UNL     1       2.982   7.480  -1.084  0.00  0.00    -0.471 OA
ENDBRANCH  26  34
ENDBRANCH  25  30
ENDBRANCH   1  25
TORSDOF 7
ENDMDL
MODEL 5
REMARK VINA RESULT:      -8.5      4.277     10.170
REMARK  Name = 
REMARK  7 active torsions:
REMARK  status: ('A' for Active; 'I' for Inactive)
REMARK    1  A    between atoms: O_2  and  C_3
REMARK    2  A    between atoms: C_6  and  C_7
REMARK    3  A    between atoms: C_7  and  N_8
REMARK    4  A    between atoms: C_16  and  C_17
REMARK    5  A    between atoms: C_21  and  C_22
REMARK    6  A    between atoms: N_24  and  C_25
REMARK    7  A    between atoms: C_25  and  C_26
REMARK                            x       y       z     vdW  Elec       q    Type
REMARK                         _______ _______ _______ _____ _____    ______ ____
ROOT
ATOM      1  N   UNL     1       3.534   7.160  -4.786  0.00  0.00    -0.215 NA
ATOM      2  C   UNL     1       2.296   6.495  -4.955  0.00  0.00    +0.157 A 
ATOM      3  C   UNL     1       1.699   6.578  -6.209  0.00  0.00    +0.110 A 
ATOM      4  C   UNL     1       0.317   6.596  -6.356  0.00  0.00    +0.109 A 
ATOM      5  N   UNL     1      -0.447   6.728  -5.244  0.00  0.00    -0.212 NA
ATOM      6  C   UNL     1       0.108   6.452  -4.040  0.00  0.00    +0.221 A 
ATOM      7  N   UNL     1      -0.813   6.160  -2.979  0.00  0.00    -0.277 N 
ATOM      8  C   UNL     1      -1.575   7.453  -2.432  0.00  0.00    +0.108 C 
ATOM      9  C   UNL     1      -2.794   7.284  -3.558  0.00  0.00    +0.024 C 
ATOM     10  C   UNL     1      -3.111   5.841  -3.406  0.00  0.00    +0.023 C 
ATOM     11  C   UNL     1      -1.825   5.160  -3.069  0.00  0.00    +0.094 C 
ATOM     12  N   UNL     1       1.432   6.298  -3.929  0.00  0.00    -0.197 NA
ENDROOT
BRANCH   3  13
ATOM     13  C   UNL     1       2.474   7.132  -7.327  0.00  0.00    +0.280 C 
ATOM     14  N   UNL     1       2.776   6.276  -8.257  0.00  0.00    -0.226 NA
ATOM     15  O   UNL     1       2.068   8.390  -7.781  0.00  0.00    -0.265 OA
BRANCH  14  16
ATOM     16  C   UNL     1       3.726   6.739  -9.262  0.00  0.00    +0.194 C 
BRANCH  16  17
ATOM     17  C   UNL     1       3.417   6.019 -10.524  0.00  0.00    +0.164 A 
ATOM     18  N   UNL     1       4.462   5.655 -11.307  0.00  0.00    -0.227 NA
ATOM     19  C   UNL     1       4.303   5.389 -12.618  0.00  0.00    +0.102 A 
ATOM     20  C   UNL     1       3.060   5.611 -13.196  0.00  0.00    +0.041 A 
ATOM     21  C   UNL     1       1.962   5.806 -12.382  0.00  0.00    +0.102 A 
ATOM     22  N   UNL     1       2.189   6.029 -11.084  0.00  0.00    -0.227 NA
ENDBRANCH  16  17
ENDBRANCH  14  16
ENDBRANCH   3  13
BRANCH   8  23
ATOM     23  C   UNL     1      -2.413   6.573  -1.287  0.00  0.00    +0.202 C 
ATOM     24  O   UNL     1      -2.434   7.439  -0.188  0.00  0.00    -0.219 OA
ENDBRANCH   8  23
BRANCH   1  25
ATOM     25  C   UNL     1       4.663   6.657  -4.065  0.00  0.00    +0.140 C 
BRANCH  25  30
ATOM     26  C   UNL     1       3.219   7.197  -0.228  0.00  0.00    +0.149 A 
ATOM     27  C   UNL     1       3.483   8.345  -0.961  0.00  0.00    +0.091 A 
ATOM     28 CL   UNL     1       3.144   9.950  -0.322  0.00  0.00    -0.079 Cl
ATOM     29  C   UNL     1       4.126   8.237  -2.189  0.00  0.00    +0.012 A 
ATOM     30  C   UNL     1       4.668   7.033  -2.628  0.00  0.00    +0.000 A 
ATOM     31  C   UNL     1       4.753   6.047  -1.652  0.00  0.00    +0.001 A 
ATOM     32  C   UNL     1       4.011   6.112  -0.479  0.00  0.00    +0.038 A 
BRANCH  26  34
ATOM     33  C   UNL     1       0.908   7.203   0.358  0.00  0.00    +0.253 C 
ATOM     34  O   UNL     1       2.265   7.286   0.752  0.00  0.00    -0.471 OA
ENDBRANCH  26  34
ENDBRANCH  25  30
ENDBRANCH   1  25
TORSDOF 7
ENDMDL
MODEL 6
REMARK VINA RESULT:      -8.4      1.869      2.730
REMARK  Name = 
REMARK  7 active torsions:
REMARK  status: ('A' for Active; 'I' for Inactive)
REMARK    1  A    between atoms: O_2  and  C_3
REMARK    2  A    between atoms: C_6  and  C_7
REMARK    3  A    between atoms: C_7  and  N_8
REMARK    4  A    between atoms: C_16  and  C_17
REMARK    5  A    between atoms: C_21  and  C_22
REMARK    6  A    between atoms: N_24  and  C_25
REMARK    7  A    between atoms: C_25  and  C_26
REMARK                            x       y       z     vdW  Elec       q    Type
REMARK                         _______ _______ _______ _____ _____    ______ ____
ROOT
ATOM      1  N   UNL     1       1.651   5.798  -9.261  0.00  0.00    -0.215 NA
ATOM      2  C   UNL     1       3.006   5.397  -9.334  0.00  0.00    +0.157 A 
ATOM      3  C   UNL     1       3.785   5.592  -8.198  0.00  0.00    +0.110 A 
ATOM      4  C   UNL     1       5.140   5.889  -8.289  0.00  0.00    +0.109 A 
ATOM      5  N   UNL     1       5.655   6.181  -9.509  0.00  0.00    -0.212 NA
ATOM      6  C   UNL     1       4.963   5.806 -10.611  0.00  0.00    +0.221 A 
ATOM      7  N   UNL     1       5.722   5.713 -11.825  0.00  0.00    -0.277 N 
ATOM      8  C   UNL     1       6.104   7.137 -12.439  0.00  0.00    +0.108 C 
ATOM      9  C   UNL     1       7.511   7.212 -11.546  0.00  0.00    +0.024 C 
ATOM     10  C   UNL     1       8.077   5.864 -11.810  0.00  0.00    +0.023 C 
ATOM     11  C   UNL     1       6.913   4.939 -11.951  0.00  0.00    +0.094 C 
ATOM     12  N   UNL     1       3.698   5.387 -10.500  0.00  0.00    -0.197 NA
ENDROOT
BRANCH   3  13
ATOM     13  C   UNL     1       3.125   5.969  -6.942  0.00  0.00    +0.280 C 
ATOM     14  N   UNL     1       3.460   5.250  -5.913  0.00  0.00    -0.226 NA
ATOM     15  O   UNL     1       3.018   7.342  -6.702  0.00  0.00    -0.265 OA
BRANCH  14  16
ATOM     16  C   UNL     1       2.663   5.453  -4.709  0.00  0.00    +0.194 C 
BRANCH  16  17
ATOM     17  C   UNL     1       3.605   5.769  -3.605  0.00  0.00    +0.164 A 
ATOM     18  N   UNL     1       3.540   5.002  -2.490  0.00  0.00    -0.227 NA
ATOM     19  C   UNL     1       4.023   5.431  -1.308  0.00  0.00    +0.102 A 
ATOM     20  C   UNL     1       4.487   6.736  -1.214  0.00  0.00    +0.041 A 
ATOM     21  C   UNL     1       4.721   7.455  -2.369  0.00  0.00    +0.102 A 
ATOM     22  N   UNL     1       4.246   6.954  -3.513  0.00  0.00    -0.227 NA
ENDBRANCH  16  17
ENDBRANCH  14  16
ENDBRANCH   3  13
BRANCH   8  23
ATOM     23  C   UNL     1       6.886   6.454 -13.747  0.00  0.00    +0.202 C 
ATOM     24  O   UNL     1       6.662   7.390 -14.762  0.00  0.00    -0.219 OA
ENDBRANCH   8  23
BRANCH   1  25
ATOM     25  C   UNL     1       0.535   5.081  -9.799  0.00  0.00    +0.140 C 
BRANCH  25  30
ATOM     26  C   UNL     1       1.252   5.876 -13.793  0.00  0.00    +0.149 A 
ATOM     27  C   UNL     1       0.826   6.942 -13.013  0.00  0.00    +0.091 A 
ATOM     28 CL   UNL     1       0.677   8.569 -13.669  0.00  0.00    -0.079 Cl
ATOM     29  C   UNL     1       0.407   6.706 -11.708  0.00  0.00    +0.012 A 
ATOM     30  C   UNL     1       0.237   5.417 -11.215  0.00  0.00    +0.000 A 
ATOM     31  C   UNL     1       0.255   4.421 -12.183  0.00  0.00    +0.001 A 
ATOM     32  C   UNL     1       0.786   4.639 -13.448  0.00  0.00    +0.038 A 
BRANCH  26  34
ATOM     33  C   UNL     1       3.417   6.140 -14.756  0.00  0.00    +0.253 C 
ATOM     34  O   UNL     1       2.009   6.173 -14.897  0.00  0.00    -0.471 OA
ENDBRANCH  26  34
ENDBRANCH  25  30
ENDBRANCH   1  25
TORSDOF 7
ENDMDL
MODEL 7
REMARK VINA RESULT:      -8.4      3.025      7.370
REMARK  Name = 
REMARK  7 active torsions:
REMARK  status: ('A' for Active; 'I' for Inactive)
REMARK    1  A    between atoms: O_2  and  C_3
REMARK    2  A    between atoms: C_6  and  C_7
REMARK    3  A    between atoms: C_7  and  N_8
REMARK    4  A    between atoms: C_16  and  C_17
REMARK    5  A    between atoms: C_21  and  C_22
REMARK    6  A    between atoms: N_24  and  C_25
REMARK    7  A    between atoms: C_25  and  C_26
REMARK                            x       y       z     vdW  Elec       q    Type
REMARK                         _______ _______ _______ _____ _____    ______ ____
ROOT
ATOM      1  N   UNL     1       4.625   6.163  -7.649  0.00  0.00    -0.215 NA
ATOM      2  C   UNL     1       3.690   5.745  -6.673  0.00  0.00    +0.157 A 
ATOM      3  C   UNL     1       2.400   6.254  -6.774  0.00  0.00    +0.110 A 
ATOM      4  C   UNL     1       1.624   6.497  -5.647  0.00  0.00    +0.109 A 
ATOM      5  N   UNL     1       2.214   6.415  -4.429  0.00  0.00    -0.212 NA
ATOM      6  C   UNL     1       3.385   5.743  -4.321  0.00  0.00    +0.221 A 
ATOM      7  N   UNL     1       3.727   5.292  -3.002  0.00  0.00    -0.277 N 
ATOM      8  C   UNL     1       4.212   6.472  -2.040  0.00  0.00    +0.108 C 
ATOM      9  C   UNL     1       2.651   6.788  -1.543  0.00  0.00    +0.024 C 
ATOM     10  C   UNL     1       2.179   5.417  -1.226  0.00  0.00    +0.023 C 
ATOM     11  C   UNL     1       2.861   4.502  -2.191  0.00  0.00    +0.094 C 
ATOM     12  N   UNL     1       4.061   5.387  -5.418  0.00  0.00    -0.197 NA
ENDROOT
BRANCH   3  13
ATOM     13  C   UNL     1       2.021   6.988  -7.989  0.00  0.00    +0.280 C 
ATOM     14  N   UNL     1       1.009   6.489  -8.633  0.00  0.00    -0.226 NA
ATOM     15  O   UNL     1       2.035   8.382  -7.883  0.00  0.00    -0.265 OA
BRANCH  14  16
ATOM     16  C   UNL     1       0.751   7.060  -9.950  0.00  0.00    +0.194 C 
BRANCH  16  17
ATOM     17  C   UNL     1       1.051   6.007 -10.953  0.00  0.00    +0.164 A 
ATOM     18  N   UNL     1       1.950   6.306 -11.923  0.00  0.00    -0.227 NA
ATOM     19  C   UNL     1       1.990   5.624 -13.083  0.00  0.00    +0.102 A 
ATOM     20  C   UNL     1       1.008   4.675 -13.331  0.00  0.00    +0.041 A 
ATOM     21  C   UNL     1       0.207   4.243 -12.292  0.00  0.00    +0.102 A 
ATOM     22  N   UNL     1       0.243   4.945 -11.155  0.00  0.00    -0.227 NA
ENDBRANCH  16  17
ENDBRANCH  14  16
ENDBRANCH   3  13
BRANCH   8  23
ATOM     23  C   UNL     1       4.482   5.428  -0.764  0.00  0.00    +0.202 C 
ATOM     24  O   UNL     1       4.902   6.290   0.254  0.00  0.00    -0.219 OA
ENDBRANCH   8  23
BRANCH   1  25
ATOM     25  C   UNL     1       5.603   5.333  -8.283  0.00  0.00    +0.140 C 
BRANCH  25  30
ATOM     26  C   UNL     1       6.799   5.363 -12.242  0.00  0.00    +0.149 A 
ATOM     27  C   UNL     1       7.791   5.554 -11.290  0.00  0.00    +0.091 A 
ATOM     28 CL   UNL     1       9.486   5.720 -11.738  0.00  0.00    -0.079 Cl
ATOM     29  C   UNL     1       7.433   5.724  -9.957  0.00  0.00    +0.012 A 
ATOM     30  C   UNL     1       6.106   5.880  -9.569  0.00  0.00    +0.000 A 
ATOM     31  C   UNL     1       5.223   6.121 -10.615  0.00  0.00    +0.001 A 
ATOM     32  C   UNL     1       5.554   5.834 -11.933  0.00  0.00    +0.038 A 
BRANCH  26  34
ATOM     33  C   UNL     1       7.049   5.624 -14.598  0.00  0.00    +0.253 C 
ATOM     34  O   UNL     1       7.180   4.820 -13.441  0.00  0.00    -0.471 OA
ENDBRANCH  26  34
ENDBRANCH  25  30
ENDBRANCH   1  25
TORSDOF 7
ENDMDL
MODEL 8
REMARK VINA RESULT:      -8.3      2.247      7.301
REMARK  Name = 
REMARK  7 active torsions:
REMARK  status: ('A' for Active; 'I' for Inactive)
REMARK    1  A    between atoms: O_2  and  C_3
REMARK    2  A    between atoms: C_6  and  C_7
REMARK    3  A    between atoms: C_7  and  N_8
REMARK    4  A    between atoms: C_16  and  C_17
REMARK    5  A    between atoms: C_21  and  C_22
REMARK    6  A    between atoms: N_24  and  C_25
REMARK    7  A    between atoms: C_25  and  C_26
REMARK                            x       y       z     vdW  Elec       q    Type
REMARK                         _______ _______ _______ _____ _____    ______ ____
ROOT
ATOM      1  N   UNL     1       0.390   4.946  -9.466  0.00  0.00    -0.215 NA
ATOM      2  C   UNL     1       0.592   5.701  -8.286  0.00  0.00    +0.157 A 
ATOM      3  C   UNL     1       1.822   5.565  -7.651  0.00  0.00    +0.110 A 
ATOM      4  C   UNL     1       1.941   5.658  -6.269  0.00  0.00    +0.109 A 
ATOM      5  N   UNL     1       0.806   5.691  -5.526  0.00  0.00    -0.212 NA
ATOM      6  C   UNL     1      -0.358   6.017  -6.136  0.00  0.00    +0.221 A 
ATOM      7  N   UNL     1      -1.407   6.481  -5.273  0.00  0.00    -0.277 N 
ATOM      8  C   UNL     1      -2.079   5.313  -4.416  0.00  0.00    +0.108 C 
ATOM      9  C   UNL     1      -0.966   5.493  -3.187  0.00  0.00    +0.024 C 
ATOM     10  C   UNL     1      -0.997   6.967  -3.001  0.00  0.00    +0.023 C 
ATOM     11  C   UNL     1      -1.248   7.556  -4.351  0.00  0.00    +0.094 C 
ATOM     12  N   UNL     1      -0.430   6.062  -7.471  0.00  0.00    -0.197 NA
ENDROOT
BRANCH   3  13
ATOM     13  C   UNL     1       2.902   4.850  -8.345  0.00  0.00    +0.280 C 
ATOM     14  N   UNL     1       4.100   5.264  -8.058  0.00  0.00    -0.226 NA
ATOM     15  O   UNL     1       2.753   3.463  -8.430  0.00  0.00    -0.265 OA
BRANCH  14  16
ATOM     16  C   UNL     1       5.172   4.730  -8.890  0.00  0.00    +0.194 C 
BRANCH  16  17
ATOM     17  C   UNL     1       5.846   5.885  -9.536  0.00  0.00    +0.164 A 
ATOM     18  N   UNL     1       5.069   6.753 -10.229  0.00  0.00    -0.227 NA
ATOM     19  C   UNL     1       5.585   7.565 -11.171  0.00  0.00    +0.102 A 
ATOM     20  C   UNL     1       6.922   7.418 -11.517  0.00  0.00    +0.041 A 
ATOM     21  C   UNL     1       7.752   6.672 -10.703  0.00  0.00    +0.102 A 
ATOM     22  N   UNL     1       7.176   5.915  -9.764  0.00  0.00    -0.227 NA
ENDBRANCH  16  17
ENDBRANCH  14  16
ENDBRANCH   3  13
BRANCH   8  23
ATOM     23  C   UNL     1      -3.159   6.359  -3.689  0.00  0.00    +0.202 C 
ATOM     24  O   UNL     1      -3.932   5.502  -2.898  0.00  0.00    -0.219 OA
ENDBRANCH   8  23
BRANCH   1  25
ATOM     25  C   UNL     1      -0.263   5.405 -10.653  0.00  0.00    +0.140 C 
BRANCH  25  30
ATOM     26  C   UNL     1       1.414   6.782 -14.174  0.00  0.00    +0.149 A 
ATOM     27  C   UNL     1       2.236   6.032 -13.344  0.00  0.00    +0.091 A 
ATOM     28 CL   UNL     1       3.884   5.617 -13.802  0.00  0.00    -0.079 Cl
ATOM     29  C   UNL     1       1.787   5.685 -12.074  0.00  0.00    +0.012 A 
ATOM     30  C   UNL     1       0.613   6.208 -11.543  0.00  0.00    +0.000 A 
ATOM     31  C   UNL     1       0.087   7.282 -12.251  0.00  0.00    +0.001 A 
ATOM     32  C   UNL     1       0.459   7.546 -13.564  0.00  0.00    +0.038 A 
BRANCH  26  34
ATOM     33  C   UNL     1       1.083   7.751 -16.326  0.00  0.00    +0.253 C 
ATOM     34  O   UNL     1       1.702   6.771 -15.514  0.00  0.00    -0.471 OA
ENDBRANCH  26  34
ENDBRANCH  25  30
ENDBRANCH   1  25
TORSDOF 7
ENDMDL
MODEL 9
REMARK VINA RESULT:      -8.0      3.813      8.843
REMARK  Name = 
REMARK  7 active torsions:
REMARK  status: ('A' for Active; 'I' for Inactive)
REMARK    1  A    between atoms: O_2  and  C_3
REMARK    2  A    between atoms: C_6  and  C_7
REMARK    3  A    between atoms: C_7  and  N_8
REMARK    4  A    between atoms: C_16  and  C_17
REMARK    5  A    between atoms: C_21  and  C_22
REMARK    6  A    between atoms: N_24  and  C_25
REMARK    7  A    between atoms: C_25  and  C_26
REMARK                            x       y       z     vdW  Elec       q    Type
REMARK                         _______ _______ _______ _____ _____    ______ ____
ROOT
ATOM      1  N   UNL     1      -0.637   5.806  -6.340  0.00  0.00    -0.215 NA
ATOM      2  C   UNL     1       0.550   6.561  -6.184  0.00  0.00    +0.157 A 
ATOM      3  C   UNL     1       1.396   6.645  -7.284  0.00  0.00    +0.110 A 
ATOM      4  C   UNL     1       2.776   6.730  -7.134  0.00  0.00    +0.109 A 
ATOM      5  N   UNL     1       3.303   6.534  -5.900  0.00  0.00    -0.212 NA
ATOM      6  C   UNL     1       2.490   6.650  -4.823  0.00  0.00    +0.221 A 
ATOM      7  N   UNL     1       3.145   6.891  -3.569  0.00  0.00    -0.277 N 
ATOM      8  C   UNL     1       3.884   5.601  -2.986  0.00  0.00    +0.108 C 
ATOM      9  C   UNL     1       5.290   5.961  -3.807  0.00  0.00    +0.024 C 
ATOM     10  C   UNL     1       5.447   7.398  -3.468  0.00  0.00    +0.023 C 
ATOM     11  C   UNL     1       4.066   7.958  -3.355  0.00  0.00    +0.094 C 
ATOM     12  N   UNL     1       1.164   6.707  -4.984  0.00  0.00    -0.197 NA
ENDROOT
BRANCH   3  13
ATOM     13  C   UNL     1       0.917   6.159  -8.585  0.00  0.00    +0.280 C 
ATOM     14  N   UNL     1       1.072   6.995  -9.568  0.00  0.00    -0.226 NA
ATOM     15  O   UNL     1       1.215   4.826  -8.881  0.00  0.00    -0.265 OA
BRANCH  14  16
ATOM     16  C   UNL     1       0.410   6.635 -10.817  0.00  0.00    +0.194 C 
BRANCH  16  17
ATOM     17  C   UNL     1       1.459   6.565 -11.866  0.00  0.00    +0.164 A 
ATOM     18  N   UNL     1       1.050   6.412 -13.149  0.00  0.00    -0.227 NA
ATOM     19  C   UNL     1       1.873   5.931 -14.101  0.00  0.00    +0.102 A 
ATOM     20  C   UNL     1       3.128   5.473 -13.724  0.00  0.00    +0.041 A 
ATOM     21  C   UNL     1       3.614   5.786 -12.470  0.00  0.00    +0.102 A 
ATOM     22  N   UNL     1       2.751   6.294 -11.585  0.00  0.00    -0.227 NA
ENDBRANCH  16  17
ENDBRANCH  14  16
ENDBRANCH   3  13
BRANCH   8  23
ATOM     23  C   UNL     1       4.391   6.411  -1.617  0.00  0.00    +0.202 C 
ATOM     24  O   UNL     1       4.314   5.424  -0.629  0.00  0.00    -0.219 OA
ENDBRANCH   8  23
BRANCH   1  25
ATOM     25  C   UNL     1      -1.928   6.159  -5.836  0.00  0.00    +0.140 C 
BRANCH  25  30
ATOM     26  C   UNL     1      -1.768   6.825  -1.757  0.00  0.00    +0.149 A 
ATOM     27  C   UNL     1      -0.908   5.861  -2.265  0.00  0.00    +0.091 A 
ATOM     28 CL   UNL     1       0.251   5.022  -1.240  0.00  0.00    -0.079 Cl
ATOM     29  C   UNL     1      -1.031   5.471  -3.594  0.00  0.00    +0.012 A 
ATOM     30  C   UNL     1      -2.096   5.888  -4.385  0.00  0.00    +0.000 A 
ATOM     31  C   UNL     1      -3.139   6.482  -3.684  0.00  0.00    +0.001 A 
ATOM     32  C   UNL     1      -2.967   6.975  -2.396  0.00  0.00    +0.038 A 
BRANCH  26  34
ATOM     33  C   UNL     1      -2.110   7.169   0.577  0.00  0.00    +0.253 C 
ATOM     34  O   UNL     1      -1.385   7.459  -0.604  0.00  0.00    -0.471 OA
ENDBRANCH  26  34
ENDBRANCH  25  30
ENDBRANCH   1  25
TORSDOF 7
ENDMDL
