MODEL 1
REMARK VINA RESULT:      -7.7      0.000      0.000
REMARK  Name = 
REMARK  6 active torsions:
REMARK  status: ('A' for Active; 'I' for Inactive)
REMARK    1  A    between atoms: C_2  and  N_4
REMARK    2  A    between atoms: C_11  and  O_12
REMARK    3  A    between atoms: O_12  and  C_13
REMARK    4  A    between atoms: C_13  and  C_15
REMARK    5  A    between atoms: C_15  and  C_16
REMARK    6  A    between atoms: C_15  and  C_18
REMARK                            x       y       z     vdW  Elec       q    Type
REMARK                         _______ _______ _______ _____ _____    ______ ____
ROOT
ATOM      1  N   UNL     1       2.057   5.881  -4.767  0.00  0.00    +0.289 N 
ATOM      2  C   UNL     1       1.307   4.638  -5.238  0.00  0.00    +0.062 C 
ATOM      3  C   UNL     1       1.527   4.754  -6.865  0.00  0.00    +0.099 C 
ATOM      4  C   UNL     1       3.023   5.390  -6.986  0.00  0.00    +0.180 C 
ATOM      5  C   UNL     1       2.591   6.953  -6.806  0.00  0.00    +0.099 C 
ATOM      6  C   UNL     1      -0.112   5.485  -5.273  0.00  0.00    +0.061 C 
ATOM      7  C   UNL     1       0.298   6.378  -6.355  0.00  0.00    +0.061 C 
ATOM      8  C   UNL     1       1.547   7.097  -5.564  0.00  0.00    +0.062 C 
ATOM      9  C   UNL     1       1.343   6.174  -3.511  0.00  0.00    +0.170 C 
ENDROOT
BRANCH   1  11
ATOM     10  C   UNL     1       3.504   6.828  -3.748  0.00  0.00    +0.061 C 
ATOM     11  C   UNL     1       3.354   5.915  -4.529  0.00  0.00    +0.058 C 
ATOM     12  C   UNL     1       4.196   4.824  -4.139  0.00  0.00    +0.061 C 
ENDBRANCH   1  11
BRANCH   4  13
ATOM     13  O   UNL     1       2.855   5.462  -8.525  0.00  0.00    -0.452 OA
BRANCH  13  14
ATOM     14  C   UNL     1       3.845   4.765  -9.238  0.00  0.00    +0.323 C 
ATOM     15  O   UNL     1       3.650   3.531  -9.005  0.00  0.00    -0.250 OA
BRANCH  14  16
ATOM     16  C   UNL     1       3.992   5.188 -10.777  0.00  0.00    +0.154 C 
BRANCH  16  17
ATOM     17  C   UNL     1       5.359   6.003 -10.580  0.00  0.00    -0.009 A 
ATOM     18  C   UNL     1       5.446   7.290 -10.956  0.00  0.00    -0.004 A 
ATOM     19  C   UNL     1       6.679   7.874 -11.175  0.00  0.00    -0.000 A 
ATOM     20  C   UNL     1       7.719   7.260 -10.483  0.00  0.00    -0.000 A 
ATOM     21  C   UNL     1       7.447   6.208  -9.610  0.00  0.00    -0.000 A 
ATOM     22  C   UNL     1       6.163   5.663  -9.520  0.00  0.00    -0.004 A 
ENDBRANCH  16  17
BRANCH  16  23
ATOM     23  C   UNL     1       3.060   6.534 -10.589  0.00  0.00    +0.198 C 
ATOM     24  O   UNL     1       2.076   6.466 -11.545  0.00  0.00    -0.219 OA
ENDBRANCH  16  23
ENDBRANCH  14  16
ENDBRANCH  13  14
ENDBRANCH   4  13
TORSDOF 6
ENDMDL
MODEL 2
REMARK VINA RESULT:      -7.7      3.839      7.657
REMARK  Name = 
REMARK  6 active torsions:
REMARK  status: ('A' for Active; 'I' for Inactive)
REMARK    1  A    between atoms: C_2  and  N_4
REMARK    2  A    between atoms: C_11  and  O_12
REMARK    3  A    between atoms: O_12  and  C_13
REMARK    4  A    between atoms: C_13  and  C_15
REMARK    5  A    between atoms: C_15  and  C_16
REMARK    6  A    between atoms: C_15  and  C_18
REMARK                            x       y       z     vdW  Elec       q    Type
REMARK                         _______ _______ _______ _____ _____    ______ ____
ROOT
ATOM      1  N   UNL     1       3.302   5.619  -5.683  0.00  0.00    +0.289 N 
ATOM      2  C   UNL     1       4.054   4.987  -4.515  0.00  0.00    +0.062 C 
ATOM      3  C   UNL     1       3.071   5.408  -3.262  0.00  0.00    +0.099 C 
ATOM      4  C   UNL     1       1.584   5.344  -3.930  0.00  0.00    +0.180 C 
ATOM      5  C   UNL     1       1.596   6.836  -4.588  0.00  0.00    +0.099 C 
ATOM      6  C   UNL     1       4.989   6.341  -4.361  0.00  0.00    +0.061 C 
ATOM      7  C   UNL     1       3.888   7.213  -3.957  0.00  0.00    +0.061 C 
ATOM      8  C   UNL     1       3.015   7.095  -5.345  0.00  0.00    +0.062 C 
ATOM      9  C   UNL     1       4.410   5.860  -6.625  0.00  0.00    +0.170 C 
ENDROOT
BRANCH   1  11
ATOM     10  C   UNL     1       2.328   5.530  -7.435  0.00  0.00    +0.061 C 
ATOM     11  C   UNL     1       2.319   5.028  -6.334  0.00  0.00    +0.058 C 
ATOM     12  C   UNL     1       2.083   3.621  -6.465  0.00  0.00    +0.061 C 
ENDBRANCH   1  11
BRANCH   4  13
ATOM     13  O   UNL     1       0.980   5.871  -2.603  0.00  0.00    -0.452 OA
BRANCH  13  14
ATOM     14  C   UNL     1       0.097   4.971  -1.983  0.00  0.00    +0.323 C 
ATOM     15  O   UNL     1       0.790   4.310  -1.148  0.00  0.00    -0.250 OA
BRANCH  14  16
ATOM     16  C   UNL     1      -1.257   5.627  -1.431  0.00  0.00    +0.154 C 
BRANCH  16  17
ATOM     17  C   UNL     1      -1.716   6.238  -2.840  0.00  0.00    -0.009 A 
ATOM     18  C   UNL     1      -2.360   5.474  -3.738  0.00  0.00    -0.004 A 
ATOM     19  C   UNL     1      -2.397   5.839  -5.071  0.00  0.00    -0.000 A 
ATOM     20  C   UNL     1      -2.237   7.205  -5.280  0.00  0.00    -0.000 A 
ATOM     21  C   UNL     1      -2.131   8.067  -4.190  0.00  0.00    -0.000 A 
ATOM     22  C   UNL     1      -2.043   7.571  -2.887  0.00  0.00    -0.004 A 
ENDBRANCH  16  17
BRANCH  16  23
ATOM     23  C   UNL     1      -0.502   7.019  -0.974  0.00  0.00    +0.198 C 
ATOM     24  O   UNL     1      -0.501   7.031   0.400  0.00  0.00    -0.219 OA
ENDBRANCH  16  23
ENDBRANCH  14  16
ENDBRANCH  13  14
ENDBRANCH   4  13
TORSDOF 6
ENDMDL
MODEL 3
REMARK VINA RESULT:      -7.6      3.632      5.842
REMARK  Name = 
REMARK  6 active torsions:
REMARK  status: ('A' for Active; 'I' for Inactive)
REMARK    1  A    between atoms: C_2  and  N_4
REMARK    2  A    between atoms: C_11  and  O_12
REMARK    3  A    between atoms: O_12  and  C_13
REMARK    4  A    between atoms: C_13  and  C_15
REMARK    5  A    between atoms: C_15  and  C_16
REMARK    6  A    between atoms: C_15  and  C_18
REMARK                            x       y       z     vdW  Elec       q    Type
REMARK                         _______ _______ _______ _____ _____    ______ ____
ROOT
ATOM      1  N   UNL     1       3.773   6.201  -2.621  0.00  0.00    +0.289 N 
ATOM      2  C   UNL     1       3.261   7.428  -3.371  0.00  0.00    +0.062 C 
ATOM      3  C   UNL     1       3.126   6.814  -4.893  0.00  0.00    +0.099 C 
ATOM      4  C   UNL     1       2.666   5.273  -4.625  0.00  0.00    +0.180 C 
ATOM      5  C   UNL     1       4.157   4.661  -4.374  0.00  0.00    +0.099 C 
ATOM      6  C   UNL     1       4.810   7.948  -3.615  0.00  0.00    +0.061 C 
ATOM      7  C   UNL     1       5.185   6.834  -4.483  0.00  0.00    +0.061 C 
ATOM      8  C   UNL     1       4.994   5.637  -3.373  0.00  0.00    +0.062 C 
ATOM      9  C   UNL     1       4.516   6.841  -1.522  0.00  0.00    +0.170 C 
ENDROOT
BRANCH   1  11
ATOM     10  C   UNL     1       3.630   4.789  -1.202  0.00  0.00    +0.061 C 
ATOM     11  C   UNL     1       2.992   5.268  -2.112  0.00  0.00    +0.058 C 
ATOM     12  C   UNL     1       1.625   5.404  -1.703  0.00  0.00    +0.061 C 
ENDBRANCH   1  11
BRANCH   4  13
ATOM     13  O   UNL     1       2.748   4.997  -6.148  0.00  0.00    -0.452 OA
BRANCH  13  14
ATOM     14  C   UNL     1       1.499   4.770  -6.752  0.00  0.00    +0.323 C 
ATOM     15  O   UNL     1       0.830   4.065  -5.933  0.00  0.00    -0.250 OA
BRANCH  14  16
ATOM     16  C   UNL     1       0.777   6.082  -7.322  0.00  0.00    +0.154 C 
BRANCH  16  17
ATOM     17  C   UNL     1      -0.467   6.022  -6.313  0.00  0.00    -0.009 A 
ATOM     18  C   UNL     1      -0.548   6.875  -5.279  0.00  0.00    -0.004 A 
ATOM     19  C   UNL     1      -1.359   6.589  -4.197  0.00  0.00    -0.000 A 
ATOM     20  C   UNL     1      -2.412   5.731  -4.500  0.00  0.00    -0.000 A 
ATOM     21  C   UNL     1      -2.607   5.306  -5.812  0.00  0.00    -0.000 A 
ATOM     22  C   UNL     1      -1.679   5.613  -6.812  0.00  0.00    -0.004 A 
ENDBRANCH  16  17
BRANCH  16  23
ATOM     23  C   UNL     1      -0.021   5.243  -8.495  0.00  0.00    +0.198 C 
ATOM     24  O   UNL     1       0.857   5.102  -9.542  0.00  0.00    -0.219 OA
ENDBRANCH  16  23
ENDBRANCH  14  16
ENDBRANCH  13  14
ENDBRANCH   4  13
TORSDOF 6
ENDMDL
MODEL 4
REMARK VINA RESULT:      -7.6      2.717      6.167
REMARK  Name = 
REMARK  6 active torsions:
REMARK  status: ('A' for Active; 'I' for Inactive)
REMARK    1  A    between atoms: C_2  and  N_4
REMARK    2  A    between atoms: C_11  and  O_12
REMARK    3  A    between atoms: O_12  and  C_13
REMARK    4  A    between atoms: C_13  and  C_15
REMARK    5  A    between atoms: C_15  and  C_16
REMARK    6  A    between atoms: C_15  and  C_18
REMARK                            x       y       z     vdW  Elec       q    Type
REMARK                         _______ _______ _______ _____ _____    ______ ____
ROOT
ATOM      1  N   UNL     1       2.290   5.475  -9.336  0.00  0.00    +0.289 N 
ATOM      2  C   UNL     1       2.778   4.118  -8.835  0.00  0.00    +0.062 C 
ATOM      3  C   UNL     1       2.509   4.281  -7.219  0.00  0.00    +0.099 C 
ATOM      4  C   UNL     1       1.150   5.181  -7.165  0.00  0.00    +0.180 C 
ATOM      5  C   UNL     1       1.868   6.637  -7.321  0.00  0.00    +0.099 C 
ATOM      6  C   UNL     1       4.325   4.692  -8.733  0.00  0.00    +0.061 C 
ATOM      7  C   UNL     1       4.036   5.650  -7.668  0.00  0.00    +0.061 C 
ATOM      8  C   UNL     1       2.977   6.581  -8.513  0.00  0.00    +0.062 C 
ATOM      9  C   UNL     1       3.102   5.625 -10.557  0.00  0.00    +0.170 C 
ENDROOT
BRANCH   1  11
ATOM     10  C   UNL     1       1.085   6.703 -10.368  0.00  0.00    +0.061 C 
ATOM     11  C   UNL     1       1.033   5.744  -9.633  0.00  0.00    +0.058 C 
ATOM     12  C   UNL     1       0.040   4.833 -10.122  0.00  0.00    +0.061 C 
ENDBRANCH   1  11
BRANCH   4  13
ATOM     13  O   UNL     1       1.259   5.229  -5.620  0.00  0.00    -0.452 OA
BRANCH  13  14
ATOM     14  C   UNL     1       0.475   6.233  -5.026  0.00  0.00    +0.323 C 
ATOM     15  O   UNL     1      -0.734   5.943  -5.287  0.00  0.00    -0.250 OA
BRANCH  14  16
ATOM     16  C   UNL     1       0.822   6.540  -3.492  0.00  0.00    +0.154 C 
BRANCH  16  17
ATOM     17  C   UNL     1       2.406   6.356  -3.654  0.00  0.00    -0.009 A 
ATOM     18  C   UNL     1       3.197   7.418  -3.879  0.00  0.00    -0.004 A 
ATOM     19  C   UNL     1       4.460   7.250  -4.416  0.00  0.00    -0.000 A 
ATOM     20  C   UNL     1       5.004   5.991  -4.180  0.00  0.00    -0.000 A 
ATOM     21  C   UNL     1       4.309   5.069  -3.400  0.00  0.00    -0.000 A 
ATOM     22  C   UNL     1       3.008   5.333  -2.964  0.00  0.00    -0.004 A 
ENDBRANCH  16  17
BRANCH  16  23
ATOM     23  C   UNL     1       0.598   4.973  -3.034  0.00  0.00    +0.198 C 
ATOM     24  O   UNL     1      -0.410   4.978  -2.100  0.00  0.00    -0.219 OA
ENDBRANCH  16  23
ENDBRANCH  14  16
ENDBRANCH  13  14
ENDBRANCH   4  13
TORSDOF 6
ENDMDL
MODEL 5
REMARK VINA RESULT:      -7.4      3.232      7.328
REMARK  Name = 
REMARK  6 active torsions:
REMARK  status: ('A' for Active; 'I' for Inactive)
REMARK    1  A    between atoms: C_2  and  N_4
REMARK    2  A    between atoms: C_11  and  O_12
REMARK    3  A    between atoms: O_12  and  C_13
REMARK    4  A    between atoms: C_13  and  C_15
REMARK    5  A    between atoms: C_15  and  C_16
REMARK    6  A    between atoms: C_15  and  C_18
REMARK                            x       y       z     vdW  Elec       q    Type
REMARK                         _______ _______ _______ _____ _____    ______ ____
ROOT
ATOM      1  N   UNL     1       2.977   6.067  -7.046  0.00  0.00    +0.289 N 
ATOM      2  C   UNL     1       1.974   7.214  -6.952  0.00  0.00    +0.062 C 
ATOM      3  C   UNL     1       0.861   6.558  -5.932  0.00  0.00    +0.099 C 
ATOM      4  C   UNL     1       1.776   5.656  -4.927  0.00  0.00    +0.180 C 
ATOM      5  C   UNL     1       1.872   4.334  -5.877  0.00  0.00    +0.099 C 
ATOM      6  C   UNL     1       1.196   6.670  -8.305  0.00  0.00    +0.061 C 
ATOM      7  C   UNL     1       0.733   5.425  -7.695  0.00  0.00    +0.061 C 
ATOM      8  C   UNL     1       2.216   4.776  -7.407  0.00  0.00    +0.062 C 
ATOM      9  C   UNL     1       3.555   6.315  -8.379  0.00  0.00    +0.170 C 
ENDROOT
BRANCH   1  11
ATOM     10  C   UNL     1       4.865   5.415  -6.853  0.00  0.00    +0.061 C 
ATOM     11  C   UNL     1       3.962   5.875  -6.191  0.00  0.00    +0.058 C 
ATOM     12  C   UNL     1       4.501   6.820  -5.258  0.00  0.00    +0.061 C 
ENDBRANCH   1  11
BRANCH   4  13
ATOM     13  O   UNL     1       0.488   5.139  -4.239  0.00  0.00    -0.452 OA
BRANCH  13  14
ATOM     14  C   UNL     1       0.515   5.233  -2.837  0.00  0.00    +0.323 C 
ATOM     15  O   UNL     1       1.318   6.178  -2.559  0.00  0.00    -0.250 OA
BRANCH  14  16
ATOM     16  C   UNL     1      -0.925   5.289  -2.137  0.00  0.00    +0.154 C 
BRANCH  16  17
ATOM     17  C   UNL     1      -1.634   6.118  -3.312  0.00  0.00    -0.009 A 
ATOM     18  C   UNL     1      -2.516   5.522  -4.131  0.00  0.00    -0.004 A 
ATOM     19  C   UNL     1      -2.816   6.079  -5.361  0.00  0.00    -0.000 A 
ATOM     20  C   UNL     1      -2.601   7.452  -5.420  0.00  0.00    -0.000 A 
ATOM     21  C   UNL     1      -2.193   8.141  -4.279  0.00  0.00    -0.000 A 
ATOM     22  C   UNL     1      -1.860   7.457  -3.107  0.00  0.00    -0.004 A 
ENDBRANCH  16  17
BRANCH  16  23
ATOM     23  C   UNL     1      -0.557   6.648  -1.281  0.00  0.00    +0.198 C 
ATOM     24  O   UNL     1      -0.738   6.337   0.045  0.00  0.00    -0.219 OA
ENDBRANCH  16  23
ENDBRANCH  14  16
ENDBRANCH  13  14
ENDBRANCH   4  13
TORSDOF 6
ENDMDL
MODEL 6
REMARK VINA RESULT:      -7.3      2.268      4.108
REMARK  Name = 
REMARK  6 active torsions:
REMARK  status: ('A' for Active; 'I' for Inactive)
REMARK    1  A    between atoms: C_2  and  N_4
REMARK    2  A    between atoms: C_11  and  O_12
REMARK    3  A    between atoms: O_12  and  C_13
REMARK    4  A    between atoms: C_13  and  C_15
REMARK    5  A    between atoms: C_15  and  C_16
REMARK    6  A    between atoms: C_15  and  C_18
REMARK                            x       y       z     vdW  Elec       q    Type
REMARK                         _______ _______ _______ _____ _____    ______ ____
ROOT
ATOM      1  N   UNL     1       1.720   6.130  -8.521  0.00  0.00    +0.289 N 
ATOM      2  C   UNL     1       2.660   7.331  -8.591  0.00  0.00    +0.062 C 
ATOM      3  C   UNL     1       3.835   6.735  -9.578  0.00  0.00    +0.099 C 
ATOM      4  C   UNL     1       2.999   5.782 -10.605  0.00  0.00    +0.180 C 
ATOM      5  C   UNL     1       2.950   4.458  -9.654  0.00  0.00    +0.099 C 
ATOM      6  C   UNL     1       3.428   6.832  -7.215  0.00  0.00    +0.061 C 
ATOM      7  C   UNL     1       3.975   5.613  -7.808  0.00  0.00    +0.061 C 
ATOM      8  C   UNL     1       2.539   4.883  -8.136  0.00  0.00    +0.062 C 
ATOM      9  C   UNL     1       1.092   6.349  -7.206  0.00  0.00    +0.170 C 
ENDROOT
BRANCH   1  11
ATOM     10  C   UNL     1      -0.134   5.399  -8.761  0.00  0.00    +0.061 C 
ATOM     11  C   UNL     1       0.771   5.883  -9.403  0.00  0.00    +0.058 C 
ATOM     12  C   UNL     1       0.224   6.789 -10.370  0.00  0.00    +0.061 C 
ENDBRANCH   1  11
BRANCH   4  13
ATOM     13  O   UNL     1       4.333   5.335 -11.255  0.00  0.00    -0.452 OA
BRANCH  13  14
ATOM     14  C   UNL     1       4.261   5.180 -12.650  0.00  0.00    +0.323 C 
ATOM     15  O   UNL     1       3.393   6.013 -13.057  0.00  0.00    -0.250 OA
BRANCH  14  16
ATOM     16  C   UNL     1       5.675   5.193 -13.404  0.00  0.00    +0.154 C 
BRANCH  16  17
ATOM     17  C   UNL     1       6.471   5.924 -12.220  0.00  0.00    -0.009 A 
ATOM     18  C   UNL     1       7.510   5.318 -11.621  0.00  0.00    -0.004 A 
ATOM     19  C   UNL     1       7.935   5.729 -10.371  0.00  0.00    -0.000 A 
ATOM     20  C   UNL     1       7.614   7.051 -10.079  0.00  0.00    -0.000 A 
ATOM     21  C   UNL     1       6.989   7.843 -11.040  0.00  0.00    -0.000 A 
ATOM     22  C   UNL     1       6.550   7.294 -12.249  0.00  0.00    -0.004 A 
ENDBRANCH  16  17
BRANCH  16  23
ATOM     23  C   UNL     1       5.351   6.611 -14.178  0.00  0.00    +0.198 C 
ATOM     24  O   UNL     1       5.825   6.474 -15.461  0.00  0.00    -0.219 OA
ENDBRANCH  16  23
ENDBRANCH  14  16
ENDBRANCH  13  14
ENDBRANCH   4  13
TORSDOF 6
ENDMDL
MODEL 7
REMARK VINA RESULT:      -7.3      3.072      6.950
REMARK  Name = 
REMARK  6 active torsions:
REMARK  status: ('A' for Active; 'I' for Inactive)
REMARK    1  A    between atoms: C_2  and  N_4
REMARK    2  A    between atoms: C_11  and  O_12
REMARK    3  A    between atoms: O_12  and  C_13
REMARK    4  A    between atoms: C_13  and  C_15
REMARK    5  A    between atoms: C_15  and  C_16
REMARK    6  A    between atoms: C_15  and  C_18
REMARK                            x       y       z     vdW  Elec       q    Type
REMARK                         _______ _______ _______ _____ _____    ______ ____
ROOT
ATOM      1  N   UNL     1       6.405   6.189 -12.489  0.00  0.00    +0.289 N 
ATOM      2  C   UNL     1       7.016   5.156 -11.546  0.00  0.00    +0.062 C 
ATOM      3  C   UNL     1       6.229   5.523 -10.147  0.00  0.00    +0.099 C 
ATOM      4  C   UNL     1       4.750   5.969 -10.669  0.00  0.00    +0.180 C 
ATOM      5  C   UNL     1       5.119   7.520 -11.016  0.00  0.00    +0.099 C 
ATOM      6  C   UNL     1       8.276   6.175 -11.217  0.00  0.00    +0.061 C 
ATOM      7  C   UNL     1       7.455   7.181 -10.545  0.00  0.00    +0.061 C 
ATOM      8  C   UNL     1       6.524   7.582 -11.839  0.00  0.00    +0.062 C 
ATOM      9  C   UNL     1       7.497   6.350 -13.465  0.00  0.00    +0.170 C 
ENDROOT
BRANCH   1  11
ATOM     10  C   UNL     1       5.453   6.544 -14.219  0.00  0.00    +0.061 C 
ATOM     11  C   UNL     1       5.276   6.011 -13.147  0.00  0.00    +0.058 C 
ATOM     12  C   UNL     1       4.571   4.780 -13.348  0.00  0.00    +0.061 C 
ENDBRANCH   1  11
BRANCH   4  13
ATOM     13  O   UNL     1       4.359   6.329  -9.213  0.00  0.00    -0.452 OA
BRANCH  13  14
ATOM     14  C   UNL     1       3.485   5.405  -8.614  0.00  0.00    +0.323 C 
ATOM     15  O   UNL     1       4.186   4.728  -7.799  0.00  0.00    -0.250 OA
BRANCH  14  16
ATOM     16  C   UNL     1       2.128   6.036  -8.040  0.00  0.00    +0.154 C 
BRANCH  16  17
ATOM     17  C   UNL     1       1.273   5.797  -9.374  0.00  0.00    -0.009 A 
ATOM     18  C   UNL     1       1.041   6.810 -10.226  0.00  0.00    -0.004 A 
ATOM     19  C   UNL     1       0.001   6.737 -11.133  0.00  0.00    -0.000 A 
ATOM     20  C   UNL     1      -0.372   5.435 -11.453  0.00  0.00    -0.000 A 
ATOM     21  C   UNL     1       0.338   4.360 -10.924  0.00  0.00    -0.000 A 
ATOM     22  C   UNL     1       1.335   4.559  -9.964  0.00  0.00    -0.004 A 
ENDBRANCH  16  17
BRANCH  16  23
ATOM     23  C   UNL     1       2.548   7.568  -8.478  0.00  0.00    +0.198 C 
ATOM     24  O   UNL     1       2.095   8.398  -7.481  0.00  0.00    -0.219 OA
ENDBRANCH  16  23
ENDBRANCH  14  16
ENDBRANCH  13  14
ENDBRANCH   4  13
TORSDOF 6
ENDMDL
MODEL 8
REMARK VINA RESULT:      -7.1      2.849      7.408
REMARK  Name = 
REMARK  6 active torsions:
REMARK  status: ('A' for Active; 'I' for Inactive)
REMARK    1  A    between atoms: C_2  and  N_4
REMARK    2  A    between atoms: C_11  and  O_12
REMARK    3  A    between atoms: O_12  and  C_13
REMARK    4  A    between atoms: C_13  and  C_15
REMARK    5  A    between atoms: C_15  and  C_16
REMARK    6  A    between atoms: C_15  and  C_18
REMARK                            x       y       z     vdW  Elec       q    Type
REMARK                         _______ _______ _______ _____ _____    ______ ____
ROOT
ATOM      1  N   UNL     1       2.768   5.421  -9.509  0.00  0.00    +0.289 N 
ATOM      2  C   UNL     1       3.246   4.160  -8.793  0.00  0.00    +0.062 C 
ATOM      3  C   UNL     1       2.816   4.514  -7.244  0.00  0.00    +0.099 C 
ATOM      4  C   UNL     1       1.432   5.356  -7.433  0.00  0.00    +0.180 C 
ATOM      5  C   UNL     1       2.119   6.810  -7.709  0.00  0.00    +0.099 C 
ATOM      6  C   UNL     1       4.757   4.806  -8.624  0.00  0.00    +0.061 C 
ATOM      7  C   UNL     1       4.338   5.879  -7.724  0.00  0.00    +0.061 C 
ATOM      8  C   UNL     1       3.339   6.650  -8.777  0.00  0.00    +0.062 C 
ATOM      9  C   UNL     1       3.690   5.449 -10.659  0.00  0.00    +0.170 C 
ENDROOT
BRANCH   1  11
ATOM     10  C   UNL     1       1.639   6.427 -10.828  0.00  0.00    +0.061 C 
ATOM     11  C   UNL     1       1.539   5.597  -9.953  0.00  0.00    +0.058 C 
ATOM     12  C   UNL     1       0.611   4.587 -10.370  0.00  0.00    +0.061 C 
ENDBRANCH   1  11
BRANCH   4  13
ATOM     13  O   UNL     1       1.389   5.603  -5.903  0.00  0.00    -0.452 OA
BRANCH  13  14
ATOM     14  C   UNL     1       0.119   5.414  -5.333  0.00  0.00    +0.323 C 
ATOM     15  O   UNL     1       0.309   5.241  -4.089  0.00  0.00    -0.250 OA
BRANCH  14  16
ATOM     16  C   UNL     1      -0.975   6.511  -5.744  0.00  0.00    +0.154 C 
BRANCH  16  17
ATOM     17  C   UNL     1      -1.732   6.508  -4.331  0.00  0.00    -0.009 A 
ATOM     18  C   UNL     1      -1.878   7.647  -3.634  0.00  0.00    -0.004 A 
ATOM     19  C   UNL     1      -2.146   7.608  -2.278  0.00  0.00    -0.000 A 
ATOM     20  C   UNL     1      -2.764   6.433  -1.864  0.00  0.00    -0.000 A 
ATOM     21  C   UNL     1      -3.117   5.465  -2.803  0.00  0.00    -0.000 A 
ATOM     22  C   UNL     1      -2.736   5.590  -4.141  0.00  0.00    -0.004 A 
ENDBRANCH  16  17
BRANCH  16  23
ATOM     23  C   UNL     1      -1.992   5.386  -6.390  0.00  0.00    +0.198 C 
ATOM     24  O   UNL     1      -1.544   5.139  -7.665  0.00  0.00    -0.219 OA
ENDBRANCH  16  23
ENDBRANCH  14  16
ENDBRANCH  13  14
ENDBRANCH   4  13
TORSDOF 6
ENDMDL
MODEL 9
REMARK VINA RESULT:      -7.1      2.807      7.154
REMARK  Name = 
REMARK  6 active torsions:
REMARK  status: ('A' for Active; 'I' for Inactive)
REMARK    1  A    between atoms: C_2  and  N_4
REMARK    2  A    between atoms: C_11  and  O_12
REMARK    3  A    between atoms: O_12  and  C_13
REMARK    4  A    between atoms: C_13  and  C_15
REMARK    5  A    between atoms: C_15  and  C_16
REMARK    6  A    between atoms: C_15  and  C_18
REMARK                            x       y       z     vdW  Elec       q    Type
REMARK                         _______ _______ _______ _____ _____    ______ ____
ROOT
ATOM      1  N   UNL     1       2.299   5.601  -9.173  0.00  0.00    +0.289 N 
ATOM      2  C   UNL     1       2.647   4.211  -8.647  0.00  0.00    +0.062 C 
ATOM      3  C   UNL     1       2.977   4.560  -7.072  0.00  0.00    +0.099 C 
ATOM      4  C   UNL     1       1.923   5.760  -6.737  0.00  0.00    +0.180 C 
ATOM      5  C   UNL     1       2.822   6.986  -7.329  0.00  0.00    +0.099 C 
ATOM      6  C   UNL     1       4.219   4.406  -9.119  0.00  0.00    +0.061 C 
ATOM      7  C   UNL     1       4.503   5.487  -8.177  0.00  0.00    +0.061 C 
ATOM      8  C   UNL     1       3.429   6.574  -8.784  0.00  0.00    +0.062 C 
ATOM      9  C   UNL     1       2.665   5.457 -10.594  0.00  0.00    +0.170 C 
ENDROOT
BRANCH   1  11
ATOM     10  C   UNL     1       0.996   6.813 -10.102  0.00  0.00    +0.061 C 
ATOM     11  C   UNL     1       1.096   6.137  -9.102  0.00  0.00    +0.058 C 
ATOM     12  C   UNL     1      -0.146   5.461  -8.870  0.00  0.00    +0.061 C 
ENDBRANCH   1  11
BRANCH   4  13
ATOM     13  O   UNL     1       2.553   5.903  -5.329  0.00  0.00    -0.452 OA
BRANCH  13  14
ATOM     14  C   UNL     1       1.632   6.250  -4.326  0.00  0.00    +0.323 C 
ATOM     15  O   UNL     1       1.133   7.366  -4.672  0.00  0.00    -0.250 OA
BRANCH  14  16
ATOM     16  C   UNL     1       0.594   5.092  -3.935  0.00  0.00    +0.154 C 
BRANCH  16  17
ATOM     17  C   UNL     1      -0.717   5.919  -4.344  0.00  0.00    -0.009 A 
ATOM     18  C   UNL     1      -1.486   5.516  -5.368  0.00  0.00    -0.004 A 
ATOM     19  C   UNL     1      -2.353   6.400  -5.984  0.00  0.00    -0.000 A 
ATOM     20  C   UNL     1      -2.746   7.456  -5.168  0.00  0.00    -0.000 A 
ATOM     21  C   UNL     1      -2.323   7.504  -3.842  0.00  0.00    -0.000 A 
ATOM     22  C   UNL     1      -1.393   6.583  -3.350  0.00  0.00    -0.004 A 
ENDBRANCH  16  17
BRANCH  16  23
ATOM     23  C   UNL     1       0.513   5.573  -2.361  0.00  0.00    +0.198 C 
ATOM     24  O   UNL     1       0.441   4.427  -1.605  0.00  0.00    -0.219 OA
ENDBRANCH  16  23
ENDBRANCH  14  16
ENDBRANCH  13  14
ENDBRANCH   4  13
TORSDOF 6
ENDMDL
