MODEL 1
REMARK VINA RESULT:      -8.8      0.000      0.000
REMARK  Name = 
REMARK  4 active torsions:
REMARK  status: ('A' for Active; 'I' for Inactive)
REMARK    1  A    between atoms: C_2  and  C_3
REMARK    2  A    between atoms: C_2  and  C_8
REMARK    3  A    between atoms: C_3  and  C_4
REMARK    4  A    between atoms: C_4  and  C_5
REMARK                            x       y       z     vdW  Elec       q    Type
REMARK                         _______ _______ _______ _____ _____    ______ ____
ROOT
ATOM      1  C   UNL     1       1.494   4.958  -7.940  0.00  0.00    +0.002 C 
ATOM      2  C   UNL     1       2.045   6.097  -6.979  0.00  0.00    +0.028 C 
ATOM      3  C   UNL     1       3.175   5.039  -6.508  0.00  0.00    +0.002 C 
ATOM      4  C   UNL     1       4.084   6.214  -5.714  0.00  0.00    +0.000 C 
ATOM      5  C   UNL     1       3.095   5.999  -4.362  0.00  0.00    +0.003 C 
ATOM      6  C   UNL     1       2.049   7.120  -4.847  0.00  0.00    +0.033 C 
ATOM      7  C   UNL     1       4.004   6.971  -3.470  0.00  0.00    +0.000 C 
ATOM      8  C   UNL     1       4.986   5.901  -2.720  0.00  0.00    +0.003 C 
ATOM      9  C   UNL     1       3.746   5.291  -1.853  0.00  0.00    +0.033 C 
ATOM     10  C   UNL     1       3.898   6.130  -0.441  0.00  0.00    +0.152 C 
ATOM     11  C   UNL     1       4.079   7.589  -1.181  0.00  0.00    +0.033 C 
ATOM     12  O   UNL     1       2.399   6.350  -0.338  0.00  0.00    -0.223 OA
ATOM     13  C   UNL     1       4.909   4.706  -3.827  0.00  0.00    +0.000 C 
ATOM     14  C   UNL     1       4.801   7.929  -4.200  0.00  0.00    +0.000 C 
ATOM     15  C   UNL     1       3.143   7.580  -2.383  0.00  0.00    +0.003 C 
ATOM     16  C   UNL     1       5.198   5.209  -5.164  0.00  0.00    +0.000 C 
ATOM     17  C   UNL     1       3.915   5.260  -7.932  0.00  0.00    +0.000 C 
ATOM     18  C   UNL     1       2.736   7.205  -7.368  0.00  0.00    +0.003 C 
ATOM     19  C   UNL     1       0.981   6.246  -5.772  0.00  0.00    +0.152 C 
ATOM     20  O   UNL     1       1.264   4.872  -5.170  0.00  0.00    -0.223 OA
ATOM     21  C   UNL     1       2.776   5.207  -8.910  0.00  0.00    +0.000 C 
ENDROOT
BRANCH   1  23
ATOM     22  C   UNL     1      -0.989   5.274  -7.954  0.00  0.00    +0.000 C 
ATOM     23  C   UNL     1       0.291   5.775  -8.832  0.00  0.00    +0.001 C 
BRANCH  23  24
ATOM     24  C   UNL     1      -0.020   4.721 -10.001  0.00  0.00    +0.012 C 
BRANCH  24  25
ATOM     25  C   UNL     1      -0.093   5.351 -11.296  0.00  0.00    +0.114 C 
BRANCH  25  26
ATOM     26  C   UNL     1       0.227   6.743 -11.496  0.00  0.00    +0.365 C 
ATOM     27  O   UNL     1       1.503   6.955 -12.042  0.00  0.00    -0.246 OA
ATOM     28  O   UNL     1      -0.500   7.744 -11.549  0.00  0.00    -0.246 OA
ENDBRANCH  25  26
ENDBRANCH  24  25
ENDBRANCH  23  24
ENDBRANCH   1  23
TORSDOF 4
ENDMDL
MODEL 2
REMARK VINA RESULT:      -8.7      3.368      5.210
REMARK  Name = 
REMARK  4 active torsions:
REMARK  status: ('A' for Active; 'I' for Inactive)
REMARK    1  A    between atoms: C_2  and  C_3
REMARK    2  A    between atoms: C_2  and  C_8
REMARK    3  A    between atoms: C_3  and  C_4
REMARK    4  A    between atoms: C_4  and  C_5
REMARK                            x       y       z     vdW  Elec       q    Type
REMARK                         _______ _______ _______ _____ _____    ______ ____
ROOT
ATOM      1  C   UNL     1       2.130   6.168  -6.823  0.00  0.00    +0.002 C 
ATOM      2  C   UNL     1       1.174   5.445  -5.780  0.00  0.00    +0.028 C 
ATOM      3  C   UNL     1       0.196   6.726  -5.912  0.00  0.00    +0.002 C 
ATOM      4  C   UNL     1      -1.074   5.963  -5.110  0.00  0.00    +0.000 C 
ATOM      5  C   UNL     1      -0.379   6.447  -3.648  0.00  0.00    +0.003 C 
ATOM      6  C   UNL     1       0.511   5.112  -3.534  0.00  0.00    +0.033 C 
ATOM      7  C   UNL     1      -1.630   5.906  -2.807  0.00  0.00    +0.000 C 
ATOM      8  C   UNL     1      -2.525   7.263  -2.644  0.00  0.00    +0.003 C 
ATOM      9  C   UNL     1      -1.409   7.945  -1.669  0.00  0.00    +0.033 C 
ATOM     10  C   UNL     1      -2.022   7.590  -0.180  0.00  0.00    +0.152 C 
ATOM     11  C   UNL     1      -2.318   6.011  -0.539  0.00  0.00    +0.033 C 
ATOM     12  O   UNL     1      -0.653   7.226   0.367  0.00  0.00    -0.223 OA
ATOM     13  C   UNL     1      -1.980   8.055  -3.961  0.00  0.00    +0.000 C 
ATOM     14  C   UNL     1      -2.420   4.880  -3.448  0.00  0.00    +0.000 C 
ATOM     15  C   UNL     1      -1.160   5.545  -1.413  0.00  0.00    +0.003 C 
ATOM     16  C   UNL     1      -2.064   7.217  -5.150  0.00  0.00    +0.000 C 
ATOM     17  C   UNL     1      -0.247   6.186  -7.373  0.00  0.00    +0.000 C 
ATOM     18  C   UNL     1       0.383   4.366  -6.037  0.00  0.00    +0.003 C 
ATOM     19  C   UNL     1       1.902   5.531  -4.340  0.00  0.00    +0.152 C 
ATOM     20  O   UNL     1       1.767   7.046  -4.209  0.00  0.00    -0.223 OA
ATOM     21  C   UNL     1       1.065   5.803  -7.997  0.00  0.00    +0.000 C 
ENDROOT
BRANCH   1  23
ATOM     22  C   UNL     1       4.528   5.685  -6.291  0.00  0.00    +0.000 C 
ATOM     23  C   UNL     1       3.316   4.981  -7.125  0.00  0.00    +0.001 C 
BRANCH  23  24
ATOM     24  C   UNL     1       3.916   5.469  -8.530  0.00  0.00    +0.012 C 
BRANCH  24  25
ATOM     25  C   UNL     1       5.351   5.335  -8.586  0.00  0.00    +0.114 C 
BRANCH  25  26
ATOM     26  C   UNL     1       6.119   5.745  -9.736  0.00  0.00    +0.365 C 
ATOM     27  O   UNL     1       7.466   6.019  -9.445  0.00  0.00    -0.246 OA
ATOM     28  O   UNL     1       5.896   5.622 -10.948  0.00  0.00    -0.246 OA
ENDBRANCH  25  26
ENDBRANCH  24  25
ENDBRANCH  23  24
ENDBRANCH   1  23
TORSDOF 4
ENDMDL
MODEL 3
REMARK VINA RESULT:      -8.6      3.032      7.078
REMARK  Name = 
REMARK  4 active torsions:
REMARK  status: ('A' for Active; 'I' for Inactive)
REMARK    1  A    between atoms: C_2  and  C_3
REMARK    2  A    between atoms: C_2  and  C_8
REMARK    3  A    between atoms: C_3  and  C_4
REMARK    4  A    between atoms: C_4  and  C_5
REMARK                            x       y       z     vdW  Elec       q    Type
REMARK                         _______ _______ _______ _____ _____    ______ ____
ROOT
ATOM      1  C   UNL     1      -0.671   5.324  -3.871  0.00  0.00    +0.002 C 
ATOM      2  C   UNL     1       0.201   6.233  -4.840  0.00  0.00    +0.028 C 
ATOM      3  C   UNL     1      -0.263   5.255  -6.041  0.00  0.00    +0.002 C 
ATOM      4  C   UNL     1       0.309   6.292  -7.239  0.00  0.00    +0.000 C 
ATOM      5  C   UNL     1       1.835   5.593  -7.049  0.00  0.00    +0.003 C 
ATOM      6  C   UNL     1       2.267   6.647  -5.913  0.00  0.00    +0.033 C 
ATOM      7  C   UNL     1       2.429   6.410  -8.292  0.00  0.00    +0.000 C 
ATOM      8  C   UNL     1       2.262   5.326  -9.504  0.00  0.00    +0.003 C 
ATOM      9  C   UNL     1       3.390   4.344  -8.850  0.00  0.00    +0.033 C 
ATOM     10  C   UNL     1       4.734   4.793  -9.692  0.00  0.00    +0.152 C 
ATOM     11  C   UNL     1       4.470   6.407  -9.500  0.00  0.00    +0.033 C 
ATOM     12  O   UNL     1       5.600   4.770  -8.445  0.00  0.00    -0.223 OA
ATOM     13  C   UNL     1       1.029   4.467  -8.873  0.00  0.00    +0.000 C 
ATOM     14  C   UNL     1       1.730   7.627  -8.633  0.00  0.00    +0.000 C 
ATOM     15  C   UNL     1       3.920   6.587  -8.091  0.00  0.00    +0.003 C 
ATOM     16  C   UNL     1      -0.066   5.340  -8.467  0.00  0.00    +0.000 C 
ATOM     17  C   UNL     1      -1.728   5.943  -5.981  0.00  0.00    +0.000 C 
ATOM     18  C   UNL     1      -0.121   7.489  -5.260  0.00  0.00    +0.003 C 
ATOM     19  C   UNL     1       1.751   5.910  -4.516  0.00  0.00    +0.152 C 
ATOM     20  O   UNL     1       1.705   4.478  -5.044  0.00  0.00    -0.223 OA
ATOM     21  C   UNL     1      -2.010   5.994  -4.506  0.00  0.00    +0.000 C 
ENDROOT
BRANCH   1  23
ATOM     22  C   UNL     1       0.257   5.057  -1.561  0.00  0.00    +0.000 C 
ATOM     23  C   UNL     1      -0.592   6.173  -2.394  0.00  0.00    +0.001 C 
BRANCH  23  24
ATOM     24  C   UNL     1      -1.968   5.739  -1.693  0.00  0.00    +0.012 C 
BRANCH  24  25
ATOM     25  C   UNL     1      -2.598   6.836  -1.002  0.00  0.00    +0.114 C 
BRANCH  25  26
ATOM     26  C   UNL     1      -1.931   7.572   0.044  0.00  0.00    +0.365 C 
ATOM     27  O   UNL     1      -1.513   6.771   1.118  0.00  0.00    -0.246 OA
ATOM     28  O   UNL     1      -1.412   8.697   0.042  0.00  0.00    -0.246 OA
ENDBRANCH  25  26
ENDBRANCH  24  25
ENDBRANCH  23  24
ENDBRANCH   1  23
TORSDOF 4
ENDMDL
MODEL 4
REMARK VINA RESULT:      -8.5      1.613      1.886
REMARK  Name = 
REMARK  4 active torsions:
REMARK  status: ('A' for Active; 'I' for Inactive)
REMARK    1  A    between atoms: C_2  and  C_3
REMARK    2  A    between atoms: C_2  and  C_8
REMARK    3  A    between atoms: C_3  and  C_4
REMARK    4  A    between atoms: C_4  and  C_5
REMARK                            x       y       z     vdW  Elec       q    Type
REMARK                         _______ _______ _______ _____ _____    ______ ____
ROOT
ATOM      1  C   UNL     1       2.140   5.044  -9.272  0.00  0.00    +0.002 C 
ATOM      2  C   UNL     1       2.289   6.065  -8.063  0.00  0.00    +0.028 C 
ATOM      3  C   UNL     1       3.473   5.112  -7.512  0.00  0.00    +0.002 C 
ATOM      4  C   UNL     1       3.994   6.247  -6.381  0.00  0.00    +0.000 C 
ATOM      5  C   UNL     1       2.817   5.662  -5.321  0.00  0.00    +0.003 C 
ATOM      6  C   UNL     1       1.704   6.690  -5.859  0.00  0.00    +0.033 C 
ATOM      7  C   UNL     1       3.354   6.582  -4.125  0.00  0.00    +0.000 C 
ATOM      8  C   UNL     1       4.345   5.548  -3.338  0.00  0.00    +0.003 C 
ATOM      9  C   UNL     1       3.087   4.627  -2.856  0.00  0.00    +0.033 C 
ATOM     10  C   UNL     1       2.816   5.220  -1.342  0.00  0.00    +0.152 C 
ATOM     11  C   UNL     1       2.878   6.797  -1.811  0.00  0.00    +0.033 C 
ATOM     12  O   UNL     1       1.310   5.205  -1.537  0.00  0.00    -0.223 OA
ATOM     13  C   UNL     1       4.691   4.565  -4.592  0.00  0.00    +0.000 C 
ATOM     14  C   UNL     1       4.097   7.755  -4.522  0.00  0.00    +0.000 C 
ATOM     15  C   UNL     1       2.207   6.865  -3.176  0.00  0.00    +0.003 C 
ATOM     16  C   UNL     1       5.140   5.329  -5.750  0.00  0.00    +0.000 C 
ATOM     17  C   UNL     1       4.424   5.679  -8.695  0.00  0.00    +0.000 C 
ATOM     18  C   UNL     1       2.837   7.310  -8.133  0.00  0.00    +0.003 C 
ATOM     19  C   UNL     1       1.002   5.849  -7.108  0.00  0.00    +0.152 C 
ATOM     20  O   UNL     1       1.400   4.445  -6.659  0.00  0.00    -0.223 OA
ATOM     21  C   UNL     1       3.521   5.637  -9.895  0.00  0.00    +0.000 C 
ENDROOT
BRANCH   1  23
ATOM     22  C   UNL     1      -0.061   4.596 -10.378  0.00  0.00    +0.000 C 
ATOM     23  C   UNL     1       1.007   5.825 -10.280  0.00  0.00    +0.001 C 
BRANCH  23  24
ATOM     24  C   UNL     1       1.596   5.511 -11.739  0.00  0.00    +0.012 C 
BRANCH  24  25
ATOM     25  C   UNL     1       0.642   4.826 -12.576  0.00  0.00    +0.114 C 
BRANCH  25  26
ATOM     26  C   UNL     1       0.931   4.474 -13.944  0.00  0.00    +0.365 C 
ATOM     27  O   UNL     1       2.250   4.758 -14.333  0.00  0.00    -0.246 OA
ATOM     28  O   UNL     1       0.342   3.721 -14.732  0.00  0.00    -0.246 OA
ENDBRANCH  25  26
ENDBRANCH  24  25
ENDBRANCH  23  24
ENDBRANCH   1  23
TORSDOF 4
ENDMDL
MODEL 5
REMARK VINA RESULT:      -8.3      3.684      7.040
REMARK  Name = 
REMARK  4 active torsions:
REMARK  status: ('A' for Active; 'I' for Inactive)
REMARK    1  A    between atoms: C_2  and  C_3
REMARK    2  A    between atoms: C_2  and  C_8
REMARK    3  A    between atoms: C_3  and  C_4
REMARK    4  A    between atoms: C_4  and  C_5
REMARK                            x       y       z     vdW  Elec       q    Type
REMARK                         _______ _______ _______ _____ _____    ______ ____
ROOT
ATOM      1  C   UNL     1       1.424   4.995  -8.431  0.00  0.00    +0.002 C 
ATOM      2  C   UNL     1       2.634   5.986  -8.709  0.00  0.00    +0.028 C 
ATOM      3  C   UNL     1       2.577   5.493 -10.248  0.00  0.00    +0.002 C 
ATOM      4  C   UNL     1       3.599   6.722 -10.782  0.00  0.00    +0.000 C 
ATOM      5  C   UNL     1       4.913   5.751 -10.355  0.00  0.00    +0.003 C 
ATOM      6  C   UNL     1       4.967   6.340  -8.859  0.00  0.00    +0.033 C 
ATOM      7  C   UNL     1       5.958   6.783 -10.995  0.00  0.00    +0.000 C 
ATOM      8  C   UNL     1       6.177   6.143 -12.483  0.00  0.00    +0.003 C 
ATOM      9  C   UNL     1       6.938   4.838 -11.867  0.00  0.00    +0.033 C 
ATOM     10  C   UNL     1       8.518   5.279 -12.033  0.00  0.00    +0.152 C 
ATOM     11  C   UNL     1       8.293   6.787 -11.412  0.00  0.00    +0.033 C 
ATOM     12  O   UNL     1       8.876   4.747 -10.656  0.00  0.00    -0.223 OA
ATOM     13  C   UNL     1       4.753   5.358 -12.606  0.00  0.00    +0.000 C 
ATOM     14  C   UNL     1       5.497   8.146 -11.119  0.00  0.00    +0.000 C 
ATOM     15  C   UNL     1       7.285   6.639 -10.279  0.00  0.00    +0.003 C 
ATOM     16  C   UNL     1       3.636   6.246 -12.307  0.00  0.00    +0.000 C 
ATOM     17  C   UNL     1       1.229   6.371 -10.437  0.00  0.00    +0.000 C 
ATOM     18  C   UNL     1       2.555   7.345  -8.767  0.00  0.00    +0.003 C 
ATOM     19  C   UNL     1       3.944   5.326  -8.030  0.00  0.00    +0.152 C 
ATOM     20  O   UNL     1       4.010   4.139  -8.989  0.00  0.00    -0.223 OA
ATOM     21  C   UNL     1       0.441   6.037  -9.202  0.00  0.00    +0.000 C 
ENDROOT
BRANCH   1  23
ATOM     22  C   UNL     1       1.445   3.914  -6.173  0.00  0.00    +0.000 C 
ATOM     23  C   UNL     1       1.015   5.351  -6.814  0.00  0.00    +0.001 C 
BRANCH  23  24
ATOM     24  C   UNL     1      -0.543   4.970  -6.779  0.00  0.00    +0.012 C 
BRANCH  24  25
ATOM     25  C   UNL     1      -1.309   5.879  -5.963  0.00  0.00    +0.114 C 
BRANCH  25  26
ATOM     26  C   UNL     1      -1.447   5.706  -4.538  0.00  0.00    +0.365 C 
ATOM     27  O   UNL     1      -2.741   5.338  -4.138  0.00  0.00    -0.246 OA
ATOM     28  O   UNL     1      -0.596   5.538  -3.653  0.00  0.00    -0.246 OA
ENDBRANCH  25  26
ENDBRANCH  24  25
ENDBRANCH  23  24
ENDBRANCH   1  23
TORSDOF 4
ENDMDL
MODEL 6
REMARK VINA RESULT:      -8.1      2.735      6.848
REMARK  Name = 
REMARK  4 active torsions:
REMARK  status: ('A' for Active; 'I' for Inactive)
REMARK    1  A    between atoms: C_2  and  C_3
REMARK    2  A    between atoms: C_2  and  C_8
REMARK    3  A    between atoms: C_3  and  C_4
REMARK    4  A    between atoms: C_4  and  C_5
REMARK                            x       y       z     vdW  Elec       q    Type
REMARK                         _______ _______ _______ _____ _____    ______ ____
ROOT
ATOM      1  C   UNL     1       1.929   5.484  -4.179  0.00  0.00    +0.002 C 
ATOM      2  C   UNL     1       1.920   6.225  -5.584  0.00  0.00    +0.028 C 
ATOM      3  C   UNL     1       2.213   4.782  -6.254  0.00  0.00    +0.002 C 
ATOM      4  C   UNL     1       1.891   5.331  -7.814  0.00  0.00    +0.000 C 
ATOM      5  C   UNL     1       3.489   5.872  -7.903  0.00  0.00    +0.003 C 
ATOM      6  C   UNL     1       3.119   7.318  -7.304  0.00  0.00    +0.033 C 
ATOM      7  C   UNL     1       3.331   6.267  -9.447  0.00  0.00    +0.000 C 
ATOM      8  C   UNL     1       3.913   4.930 -10.186  0.00  0.00    +0.003 C 
ATOM      9  C   UNL     1       5.425   5.230  -9.651  0.00  0.00    +0.033 C 
ATOM     10  C   UNL     1       6.079   6.002 -10.953  0.00  0.00    +0.152 C 
ATOM     11  C   UNL     1       4.793   7.008 -11.162  0.00  0.00    +0.033 C 
ATOM     12  O   UNL     1       6.764   7.035 -10.075  0.00  0.00    -0.223 OA
ATOM     13  C   UNL     1       3.613   3.861  -8.993  0.00  0.00    +0.000 C 
ATOM     14  C   UNL     1       1.981   6.517  -9.895  0.00  0.00    +0.000 C 
ATOM     15  C   UNL     1       4.308   7.380  -9.767  0.00  0.00    +0.003 C 
ATOM     16  C   UNL     1       2.230   3.949  -8.542  0.00  0.00    +0.000 C 
ATOM     17  C   UNL     1       0.674   4.376  -5.953  0.00  0.00    +0.000 C 
ATOM     18  C   UNL     1       0.818   6.699  -6.229  0.00  0.00    +0.003 C 
ATOM     19  C   UNL     1       3.283   7.089  -5.667  0.00  0.00    +0.152 C 
ATOM     20  O   UNL     1       4.210   5.876  -5.721  0.00  0.00    -0.223 OA
ATOM     21  C   UNL     1       0.475   4.853  -4.542  0.00  0.00    +0.000 C 
ENDROOT
BRANCH   1  23
ATOM     22  C   UNL     1       2.860   6.841  -2.292  0.00  0.00    +0.000 C 
ATOM     23  C   UNL     1       1.450   6.719  -3.104  0.00  0.00    +0.001 C 
BRANCH  23  24
ATOM     24  C   UNL     1       0.770   5.877  -1.921  0.00  0.00    +0.012 C 
BRANCH  24  25
ATOM     25  C   UNL     1      -0.434   6.502  -1.430  0.00  0.00    +0.114 C 
BRANCH  25  26
ATOM     26  C   UNL     1      -1.748   6.002  -1.752  0.00  0.00    +0.365 C 
ATOM     27  O   UNL     1      -2.669   7.010  -2.081  0.00  0.00    -0.246 OA
ATOM     28  O   UNL     1      -2.130   4.868  -2.070  0.00  0.00    -0.246 OA
ENDBRANCH  25  26
ENDBRANCH  24  25
ENDBRANCH  23  24
ENDBRANCH   1  23
TORSDOF 4
ENDMDL
MODEL 7
REMARK VINA RESULT:      -8.1      2.058      3.510
REMARK  Name = 
REMARK  4 active torsions:
REMARK  status: ('A' for Active; 'I' for Inactive)
REMARK    1  A    between atoms: C_2  and  C_3
REMARK    2  A    between atoms: C_2  and  C_8
REMARK    3  A    between atoms: C_3  and  C_4
REMARK    4  A    between atoms: C_4  and  C_5
REMARK                            x       y       z     vdW  Elec       q    Type
REMARK                         _______ _______ _______ _____ _____    ______ ____
ROOT
ATOM      1  C   UNL     1       0.521   6.659  -9.856  0.00  0.00    +0.002 C 
ATOM      2  C   UNL     1       1.629   5.949  -8.965  0.00  0.00    +0.028 C 
ATOM      3  C   UNL     1       0.642   6.174  -7.704  0.00  0.00    +0.002 C 
ATOM      4  C   UNL     1       1.531   5.153  -6.701  0.00  0.00    +0.000 C 
ATOM      5  C   UNL     1       2.540   6.459  -6.344  0.00  0.00    +0.003 C 
ATOM      6  C   UNL     1       3.530   6.136  -7.570  0.00  0.00    +0.033 C 
ATOM      7  C   UNL     1       3.337   5.617  -5.239  0.00  0.00    +0.000 C 
ATOM      8  C   UNL     1       2.557   6.054  -3.871  0.00  0.00    +0.003 C 
ATOM      9  C   UNL     1       3.125   7.581  -3.973  0.00  0.00    +0.033 C 
ATOM     10  C   UNL     1       4.435   7.503  -2.975  0.00  0.00    +0.152 C 
ATOM     11  C   UNL     1       5.002   6.098  -3.619  0.00  0.00    +0.033 C 
ATOM     12  O   UNL     1       5.293   8.308  -3.935  0.00  0.00    -0.223 OA
ATOM     13  C   UNL     1       1.126   6.454  -4.542  0.00  0.00    +0.000 C 
ATOM     14  C   UNL     1       3.284   4.181  -5.387  0.00  0.00    +0.000 C 
ATOM     15  C   UNL     1       4.739   6.177  -5.117  0.00  0.00    +0.003 C 
ATOM     16  C   UNL     1       0.631   5.384  -5.400  0.00  0.00    +0.000 C 
ATOM     17  C   UNL     1      -0.296   4.985  -8.279  0.00  0.00    +0.000 C 
ATOM     18  C   UNL     1       1.916   4.618  -8.959  0.00  0.00    +0.003 C 
ATOM     19  C   UNL     1       2.853   6.995  -8.821  0.00  0.00    +0.152 C 
ATOM     20  O   UNL     1       2.073   8.003  -7.981  0.00  0.00    -0.223 OA
ATOM     21  C   UNL     1      -0.381   5.309  -9.744  0.00  0.00    +0.000 C 
ENDROOT
BRANCH   1  23
ATOM     22  C   UNL     1       0.239   7.632 -12.145  0.00  0.00    +0.000 C 
ATOM     23  C   UNL     1       1.135   6.468 -11.435  0.00  0.00    +0.001 C 
BRANCH  23  24
ATOM     24  C   UNL     1       0.195   5.305 -12.014  0.00  0.00    +0.012 C 
BRANCH  24  25
ATOM     25  C   UNL     1       0.872   4.494 -12.995  0.00  0.00    +0.114 C 
BRANCH  25  26
ATOM     26  C   UNL     1       0.612   4.617 -14.409  0.00  0.00    +0.365 C 
ATOM     27  O   UNL     1      -0.029   3.497 -14.963  0.00  0.00    -0.246 OA
ATOM     28  O   UNL     1       0.583   5.611 -15.146  0.00  0.00    -0.246 OA
ENDBRANCH  25  26
ENDBRANCH  24  25
ENDBRANCH  23  24
ENDBRANCH   1  23
TORSDOF 4
ENDMDL
MODEL 8
REMARK VINA RESULT:      -7.9      2.415      7.298
REMARK  Name = 
REMARK  4 active torsions:
REMARK  status: ('A' for Active; 'I' for Inactive)
REMARK    1  A    between atoms: C_2  and  C_3
REMARK    2  A    between atoms: C_2  and  C_8
REMARK    3  A    between atoms: C_3  and  C_4
REMARK    4  A    between atoms: C_4  and  C_5
REMARK                            x       y       z     vdW  Elec       q    Type
REMARK                         _______ _______ _______ _____ _____    ______ ____
ROOT
ATOM      1  C   UNL     1       2.444   5.627  -3.209  0.00  0.00    +0.002 C 
ATOM      2  C   UNL     1       2.272   6.386  -4.594  0.00  0.00    +0.028 C 
ATOM      3  C   UNL     1       2.059   4.932  -5.270  0.00  0.00    +0.002 C 
ATOM      4  C   UNL     1       1.512   5.580  -6.726  0.00  0.00    +0.000 C 
ATOM      5  C   UNL     1       3.124   5.741  -7.206  0.00  0.00    +0.003 C 
ATOM      6  C   UNL     1       3.248   7.218  -6.581  0.00  0.00    +0.033 C 
ATOM      7  C   UNL     1       2.699   6.201  -8.681  0.00  0.00    +0.000 C 
ATOM      8  C   UNL     1       2.767   4.786  -9.495  0.00  0.00    +0.003 C 
ATOM      9  C   UNL     1       4.391   4.716  -9.342  0.00  0.00    +0.033 C 
ATOM     10  C   UNL     1       4.876   5.351 -10.785  0.00  0.00    +0.152 C 
ATOM     11  C   UNL     1       3.843   6.630 -10.714  0.00  0.00    +0.033 C 
ATOM     12  O   UNL     1       5.968   6.175 -10.125  0.00  0.00    -0.223 OA
ATOM     13  C   UNL     1       2.522   3.784  -8.233  0.00  0.00    +0.000 C 
ATOM     14  C   UNL     1       1.376   6.766  -8.804  0.00  0.00    +0.000 C 
ATOM     15  C   UNL     1       3.800   7.068  -9.256  0.00  0.00    +0.003 C 
ATOM     16  C   UNL     1       1.343   4.176  -7.471  0.00  0.00    +0.000 C 
ATOM     17  C   UNL     1       0.585   4.883  -4.602  0.00  0.00    +0.000 C 
ATOM     18  C   UNL     1       1.187   7.117  -4.975  0.00  0.00    +0.003 C 
ATOM     19  C   UNL     1       3.738   6.916  -5.023  0.00  0.00    +0.152 C 
ATOM     20  O   UNL     1       4.322   5.524  -5.258  0.00  0.00    -0.223 OA
ATOM     21  C   UNL     1       0.840   5.357  -3.199  0.00  0.00    +0.000 C 
ENDROOT
BRANCH   1  23
ATOM     22  C   UNL     1       4.034   6.603  -1.539  0.00  0.00    +0.000 C 
ATOM     23  C   UNL     1       2.530   6.912  -2.090  0.00  0.00    +0.001 C 
BRANCH  23  24
ATOM     24  C   UNL     1       1.853   6.259  -0.791  0.00  0.00    +0.012 C 
BRANCH  24  25
ATOM     25  C   UNL     1       1.211   7.245   0.043  0.00  0.00    +0.114 C 
BRANCH  25  26
ATOM     26  C   UNL     1      -0.221   7.300   0.207  0.00  0.00    +0.365 C 
ATOM     27  O   UNL     1      -0.743   8.603   0.169  0.00  0.00    -0.246 OA
ATOM     28  O   UNL     1      -1.088   6.423   0.086  0.00  0.00    -0.246 OA
ENDBRANCH  25  26
ENDBRANCH  24  25
ENDBRANCH  23  24
ENDBRANCH   1  23
TORSDOF 4
ENDMDL
MODEL 9
REMARK VINA RESULT:      -7.9      1.417      7.687
REMARK  Name = 
REMARK  4 active torsions:
REMARK  status: ('A' for Active; 'I' for Inactive)
REMARK    1  A    between atoms: C_2  and  C_3
REMARK    2  A    between atoms: C_2  and  C_8
REMARK    3  A    between atoms: C_3  and  C_4
REMARK    4  A    between atoms: C_4  and  C_5
REMARK                            x       y       z     vdW  Elec       q    Type
REMARK                         _______ _______ _______ _____ _____    ______ ____
ROOT
ATOM      1  C   UNL     1       3.950   6.758  -5.365  0.00  0.00    +0.002 C 
ATOM      2  C   UNL     1       2.862   5.990  -6.231  0.00  0.00    +0.028 C 
ATOM      3  C   UNL     1       3.884   6.117  -7.478  0.00  0.00    +0.002 C 
ATOM      4  C   UNL     1       3.016   5.029  -8.428  0.00  0.00    +0.000 C 
ATOM      5  C   UNL     1       2.024   6.310  -8.906  0.00  0.00    +0.003 C 
ATOM      6  C   UNL     1       1.000   6.081  -7.687  0.00  0.00    +0.033 C 
ATOM      7  C   UNL     1       1.252   5.392  -9.968  0.00  0.00    +0.000 C 
ATOM      8  C   UNL     1       2.071   5.725 -11.343  0.00  0.00    +0.003 C 
ATOM      9  C   UNL     1       1.509   7.257 -11.367  0.00  0.00    +0.033 C 
ATOM     10  C   UNL     1       0.226   7.112 -12.392  0.00  0.00    +0.152 C 
ATOM     11  C   UNL     1      -0.366   5.760 -11.663  0.00  0.00    +0.033 C 
ATOM     12  O   UNL     1      -0.653   7.989 -11.517  0.00  0.00    -0.223 OA
ATOM     13  C   UNL     1       3.486   6.167 -10.664  0.00  0.00    +0.000 C 
ATOM     14  C   UNL     1       1.293   3.971  -9.714  0.00  0.00    +0.000 C 
ATOM     15  C   UNL     1      -0.143   5.947 -10.168  0.00  0.00    +0.003 C 
ATOM     16  C   UNL     1       3.951   5.162  -9.717  0.00  0.00    +0.000 C 
ATOM     17  C   UNL     1       4.799   4.971  -6.792  0.00  0.00    +0.000 C 
ATOM     18  C   UNL     1       2.567   4.662  -6.147  0.00  0.00    +0.003 C 
ATOM     19  C   UNL     1       1.648   7.026  -6.484  0.00  0.00    +0.152 C 
ATOM     20  O   UNL     1       2.456   7.967  -7.375  0.00  0.00    -0.223 OA
ATOM     21  C   UNL     1       4.846   5.401  -5.353  0.00  0.00    +0.000 C 
ENDROOT
BRANCH   1  23
ATOM     22  C   UNL     1       3.926   8.085  -3.242  0.00  0.00    +0.000 C 
ATOM     23  C   UNL     1       3.292   6.686  -3.793  0.00  0.00    +0.001 C 
BRANCH  23  24
ATOM     24  C   UNL     1       4.392   5.811  -3.018  0.00  0.00    +0.012 C 
BRANCH  24  25
ATOM     25  C   UNL     1       3.804   4.970  -2.005  0.00  0.00    +0.114 C 
BRANCH  25  26
ATOM     26  C   UNL     1       3.361   5.489  -0.734  0.00  0.00    +0.365 C 
ATOM     27  O   UNL     1       4.409   5.933   0.089  0.00  0.00    -0.246 OA
ATOM     28  O   UNL     1       2.247   5.878  -0.359  0.00  0.00    -0.246 OA
ENDBRANCH  25  26
ENDBRANCH  24  25
ENDBRANCH  23  24
ENDBRANCH   1  23
TORSDOF 4
ENDMDL
