MODEL 1
REMARK VINA RESULT:      -8.4      0.000      0.000
REMARK  Name = 
REMARK  3 active torsions:
REMARK  status: ('A' for Active; 'I' for Inactive)
REMARK    1  A    between atoms: N_7  and  C_8
REMARK    2  A    between atoms: C_15  and  C_16
REMARK    3  A    between atoms: N_20  and  C_21
REMARK                            x       y       z     vdW  Elec       q    Type
REMARK                         _______ _______ _______ _____ _____    ______ ____
ROOT
ATOM      1  C   UNL     1       2.338   5.985  -6.438  0.00  0.00    +0.088 A 
ATOM      2  C   UNL     1       2.379   5.341  -5.211  0.00  0.00    +0.089 A 
ATOM      3 CL   UNL     1       3.764   4.362  -4.837  0.00  0.00    -0.079 Cl
ATOM      4  C   UNL     1       1.479   5.634  -4.194  0.00  0.00    +0.075 A 
ATOM      5  C   UNL     1       0.329   6.302  -4.592  0.00  0.00    +0.058 A 
ATOM      6  C   UNL     1      -0.671   6.511  -3.669  0.00  0.00    +0.205 A 
ATOM      7  C   UNL     1      -0.365   6.175  -2.354  0.00  0.00    +0.136 A 
ATOM      8  C   UNL     1       0.967   6.040  -1.981  0.00  0.00    +0.086 A 
ATOM      9  O   UNL     1      -1.867   6.594  -4.081  0.00  0.00    -0.286 OA
ATOM     10  C   UNL     1       0.256   7.006  -5.784  0.00  0.00    +0.036 A 
ATOM     11  N   UNL     1       1.888   5.701  -2.904  0.00  0.00    -0.327 N 
ATOM     12  C   UNL     1       1.294   6.865  -6.696  0.00  0.00    +0.154 A 
ATOM     13  F   UNL     1       1.568   7.895  -7.535  0.00  0.00    -0.203 F 
ENDROOT
BRANCH   1  17
ATOM     14  N   UNL     1       6.314   5.499  -8.847  0.00  0.00    -0.131 NA
ATOM     15  C   UNL     1       4.861   4.910  -8.953  0.00  0.00    +0.111 C 
ATOM     16  C   UNL     1       4.261   6.029  -7.912  0.00  0.00    +0.110 C 
ATOM     17  N   UNL     1       2.977   5.435  -7.588  0.00  0.00    -0.304 N 
ATOM     18  C   UNL     1       2.072   4.653  -8.402  0.00  0.00    +0.091 C 
ATOM     19  C   UNL     1       2.201   4.903  -9.867  0.00  0.00    +0.021 C 
ATOM     20  C   UNL     1       3.040   6.072 -10.248  0.00  0.00    +0.003 C 
ATOM     21  C   UNL     1       4.511   5.834 -10.261  0.00  0.00    +0.021 C 
ENDBRANCH   1  17
BRANCH   7  22
ATOM     22  C   UNL     1      -1.452   6.005  -1.388  0.00  0.00    +0.392 C 
ATOM     23  O   UNL     1      -2.039   7.180  -0.913  0.00  0.00    -0.240 OA
ATOM     24  O   UNL     1      -2.253   5.038  -1.570  0.00  0.00    -0.240 OA
ENDBRANCH   7  22
BRANCH  11  25
ATOM     25  C   UNL     1       3.187   5.161  -2.579  0.00  0.00    +0.086 C 
ATOM     26  C   UNL     1       3.450   4.896  -1.089  0.00  0.00    +0.024 C 
ATOM     27  C   UNL     1       4.138   6.079  -1.762  0.00  0.00    +0.024 C 
ENDBRANCH  11  25
TORSDOF 3
ENDMDL
MODEL 2
REMARK VINA RESULT:      -8.4      3.514      5.891
REMARK  Name = 
REMARK  3 active torsions:
REMARK  status: ('A' for Active; 'I' for Inactive)
REMARK    1  A    between atoms: N_7  and  C_8
REMARK    2  A    between atoms: C_15  and  C_16
REMARK    3  A    between atoms: N_20  and  C_21
REMARK                            x       y       z     vdW  Elec       q    Type
REMARK                         _______ _______ _______ _____ _____    ______ ____
ROOT
ATOM      1  C   UNL     1       4.932   5.734  -9.964  0.00  0.00    +0.088 A 
ATOM      2  C   UNL     1       3.590   6.072 -10.063  0.00  0.00    +0.089 A 
ATOM      3 CL   UNL     1       2.931   6.385 -11.638  0.00  0.00    -0.079 Cl
ATOM      4  C   UNL     1       2.717   5.942  -8.990  0.00  0.00    +0.075 A 
ATOM      5  C   UNL     1       3.318   5.831  -7.744  0.00  0.00    +0.058 A 
ATOM      6  C   UNL     1       2.522   5.831  -6.620  0.00  0.00    +0.205 A 
ATOM      7  C   UNL     1       1.150   5.775  -6.846  0.00  0.00    +0.136 A 
ATOM      8  C   UNL     1       0.683   5.339  -8.081  0.00  0.00    +0.086 A 
ATOM      9  O   UNL     1       3.006   6.273  -5.535  0.00  0.00    -0.286 OA
ATOM     10  C   UNL     1       4.640   5.443  -7.590  0.00  0.00    +0.036 A 
ATOM     11  N   UNL     1       1.454   5.485  -9.176  0.00  0.00    -0.327 N 
ATOM     12  C   UNL     1       5.438   5.364  -8.724  0.00  0.00    +0.154 A 
ATOM     13  F   UNL     1       6.471   4.486  -8.732  0.00  0.00    -0.203 F 
ENDROOT
BRANCH   1  17
ATOM     14  N   UNL     1       6.785   5.323 -14.235  0.00  0.00    -0.131 NA
ATOM     15  C   UNL     1       6.935   6.333 -13.041  0.00  0.00    +0.111 C 
ATOM     16  C   UNL     1       6.181   5.315 -11.998  0.00  0.00    +0.110 C 
ATOM     17  N   UNL     1       5.891   6.220 -10.899  0.00  0.00    -0.304 N 
ATOM     18  C   UNL     1       6.643   7.344 -10.387  0.00  0.00    +0.091 C 
ATOM     19  C   UNL     1       8.107   7.274 -10.664  0.00  0.00    +0.021 C 
ATOM     20  C   UNL     1       8.601   5.972 -11.187  0.00  0.00    +0.003 C 
ATOM     21  C   UNL     1       8.417   5.751 -12.649  0.00  0.00    +0.021 C 
ENDBRANCH   1  17
BRANCH   7  22
ATOM     22  C   UNL     1       0.231   6.145  -5.768  0.00  0.00    +0.392 C 
ATOM     23  O   UNL     1       0.001   7.513  -5.602  0.00  0.00    -0.240 OA
ATOM     24  O   UNL     1      -0.780   5.402  -5.577  0.00  0.00    -0.240 OA
ENDBRANCH   7  22
BRANCH  11  25
ATOM     25  C   UNL     1       0.946   5.439 -10.527  0.00  0.00    +0.086 C 
ATOM     26  C   UNL     1      -0.535   5.809 -10.699  0.00  0.00    +0.024 C 
ATOM     27  C   UNL     1      -0.117   4.347 -10.833  0.00  0.00    +0.024 C 
ENDBRANCH  11  25
TORSDOF 3
ENDMDL
MODEL 3
REMARK VINA RESULT:      -8.4      4.846      8.798
REMARK  Name = 
REMARK  3 active torsions:
REMARK  status: ('A' for Active; 'I' for Inactive)
REMARK    1  A    between atoms: N_7  and  C_8
REMARK    2  A    between atoms: C_15  and  C_16
REMARK    3  A    between atoms: N_20  and  C_21
REMARK                            x       y       z     vdW  Elec       q    Type
REMARK                         _______ _______ _______ _____ _____    ______ ____
ROOT
ATOM      1  C   UNL     1       2.007   5.827  -8.659  0.00  0.00    +0.088 A 
ATOM      2  C   UNL     1       2.000   5.258  -9.923  0.00  0.00    +0.089 A 
ATOM      3 CL   UNL     1       0.548   4.482 -10.472  0.00  0.00    -0.079 Cl
ATOM      4  C   UNL     1       3.019   5.487 -10.839  0.00  0.00    +0.075 A 
ATOM      5  C   UNL     1       4.200   5.983 -10.305  0.00  0.00    +0.058 A 
ATOM      6  C   UNL     1       5.298   6.112 -11.126  0.00  0.00    +0.205 A 
ATOM      7  C   UNL     1       5.075   5.885 -12.481  0.00  0.00    +0.136 A 
ATOM      8  C   UNL     1       3.776   5.938 -12.972  0.00  0.00    +0.086 A 
ATOM      9  O   UNL     1       6.453   6.021 -10.610  0.00  0.00    -0.286 OA
ATOM     10  C   UNL     1       4.248   6.610  -9.069  0.00  0.00    +0.036 A 
ATOM     11  N   UNL     1       2.740   5.672 -12.153  0.00  0.00    -0.327 N 
ATOM     12  C   UNL     1       3.122   6.555  -8.259  0.00  0.00    +0.154 A 
ATOM     13  F   UNL     1       2.899   7.566  -7.383  0.00  0.00    -0.203 F 
ENDROOT
BRANCH   1  17
ATOM     14  N   UNL     1      -2.178   5.790  -6.577  0.00  0.00    -0.131 NA
ATOM     15  C   UNL     1      -0.840   4.981  -6.418  0.00  0.00    +0.111 C 
ATOM     16  C   UNL     1      -0.001   6.064  -7.322  0.00  0.00    +0.110 C 
ATOM     17  N   UNL     1       1.204   5.304  -7.603  0.00  0.00    -0.304 N 
ATOM     18  C   UNL     1       1.916   4.340  -6.794  0.00  0.00    +0.091 C 
ATOM     19  C   UNL     1       1.707   4.506  -5.326  0.00  0.00    +0.021 C 
ATOM     20  C   UNL     1       1.021   5.760  -4.911  0.00  0.00    +0.003 C 
ATOM     21  C   UNL     1      -0.465   5.749  -5.020  0.00  0.00    +0.021 C 
ENDBRANCH   1  17
BRANCH   7  22
ATOM     22  C   UNL     1       6.217   5.629 -13.360  0.00  0.00    +0.392 C 
ATOM     23  O   UNL     1       6.847   6.758 -13.890  0.00  0.00    -0.240 OA
ATOM     24  O   UNL     1       6.993   4.674 -13.053  0.00  0.00    -0.240 OA
ENDBRANCH   7  22
BRANCH  11  25
ATOM     25  C   UNL     1       1.420   5.317 -12.619  0.00  0.00    +0.086 C 
ATOM     26  C   UNL     1       1.244   5.246 -14.143  0.00  0.00    +0.024 C 
ATOM     27  C   UNL     1       0.633   6.418 -13.382  0.00  0.00    +0.024 C 
ENDBRANCH  11  25
TORSDOF 3
ENDMDL
MODEL 4
REMARK VINA RESULT:      -8.2      3.620      7.290
REMARK  Name = 
REMARK  3 active torsions:
REMARK  status: ('A' for Active; 'I' for Inactive)
REMARK    1  A    between atoms: N_7  and  C_8
REMARK    2  A    between atoms: C_15  and  C_16
REMARK    3  A    between atoms: N_20  and  C_21
REMARK                            x       y       z     vdW  Elec       q    Type
REMARK                         _______ _______ _______ _____ _____    ______ ____
ROOT
ATOM      1  C   UNL     1       0.751   5.885  -6.677  0.00  0.00    +0.088 A 
ATOM      2  C   UNL     1       1.752   6.425  -7.471  0.00  0.00    +0.089 A 
ATOM      3 CL   UNL     1       3.236   6.911  -6.714  0.00  0.00    -0.079 Cl
ATOM      4  C   UNL     1       1.699   6.375  -8.858  0.00  0.00    +0.075 A 
ATOM      5  C   UNL     1       0.446   6.114  -9.397  0.00  0.00    +0.058 A 
ATOM      6  C   UNL     1       0.284   6.178 -10.763  0.00  0.00    +0.205 A 
ATOM      7  C   UNL     1       1.448   6.340 -11.508  0.00  0.00    +0.136 A 
ATOM      8  C   UNL     1       2.673   6.041 -10.924  0.00  0.00    +0.086 A 
ATOM      9  O   UNL     1      -0.856   6.489 -11.223  0.00  0.00    -0.286 OA
ATOM     10  C   UNL     1      -0.569   5.525  -8.660  0.00  0.00    +0.036 A 
ATOM     11  N   UNL     1       2.814   6.123  -9.586  0.00  0.00    -0.327 N 
ATOM     12  C   UNL     1      -0.391   5.382  -7.290  0.00  0.00    +0.154 A 
ATOM     13  F   UNL     1      -1.015   4.360  -6.655  0.00  0.00    -0.203 F 
ENDROOT
BRANCH   1  17
ATOM     14  N   UNL     1       2.239   5.353  -2.278  0.00  0.00    -0.131 NA
ATOM     15  C   UNL     1       1.222   6.301  -3.010  0.00  0.00    +0.111 C 
ATOM     16  C   UNL     1       1.214   5.362  -4.356  0.00  0.00    +0.110 C 
ATOM     17  N   UNL     1       0.599   6.266  -5.312  0.00  0.00    -0.304 N 
ATOM     18  C   UNL     1      -0.429   7.267  -5.130  0.00  0.00    +0.091 C 
ATOM     19  C   UNL     1      -1.326   7.013  -3.965  0.00  0.00    +0.021 C 
ATOM     20  C   UNL     1      -1.195   5.672  -3.333  0.00  0.00    +0.003 C 
ATOM     21  C   UNL     1      -0.069   5.519  -2.370  0.00  0.00    +0.021 C 
ENDBRANCH   1  17
BRANCH   7  22
ATOM     22  C   UNL     1       1.353   6.791 -12.897  0.00  0.00    +0.392 C 
ATOM     23  O   UNL     1       1.078   5.800 -13.844  0.00  0.00    -0.240 OA
ATOM     24  O   UNL     1       0.800   7.912 -13.115  0.00  0.00    -0.240 OA
ENDBRANCH   7  22
BRANCH  11  25
ATOM     25  C   UNL     1       4.091   6.220  -8.919  0.00  0.00    +0.086 C 
ATOM     26  C   UNL     1       5.329   6.018  -9.806  0.00  0.00    +0.024 C 
ATOM     27  C   UNL     1       4.930   4.916  -8.829  0.00  0.00    +0.024 C 
ENDBRANCH  11  25
TORSDOF 3
ENDMDL
MODEL 5
REMARK VINA RESULT:      -8.1      3.116      4.529
REMARK  Name = 
REMARK  3 active torsions:
REMARK  status: ('A' for Active; 'I' for Inactive)
REMARK    1  A    between atoms: N_7  and  C_8
REMARK    2  A    between atoms: C_15  and  C_16
REMARK    3  A    between atoms: N_20  and  C_21
REMARK                            x       y       z     vdW  Elec       q    Type
REMARK                         _______ _______ _______ _____ _____    ______ ____
ROOT
ATOM      1  C   UNL     1       3.560   6.038  -8.495  0.00  0.00    +0.088 A 
ATOM      2  C   UNL     1       2.684   6.725  -7.667  0.00  0.00    +0.089 A 
ATOM      3 CL   UNL     1       1.202   7.321  -8.345  0.00  0.00    -0.079 Cl
ATOM      4  C   UNL     1       2.841   6.750  -6.287  0.00  0.00    +0.075 A 
ATOM      5  C   UNL     1       4.099   6.389  -5.825  0.00  0.00    +0.058 A 
ATOM      6  C   UNL     1       4.374   6.514  -4.481  0.00  0.00    +0.205 A 
ATOM      7  C   UNL     1       3.294   6.840  -3.666  0.00  0.00    +0.136 A 
ATOM      8  C   UNL     1       2.003   6.639  -4.140  0.00  0.00    +0.086 A 
ATOM      9  O   UNL     1       5.573   6.728  -4.126  0.00  0.00    -0.286 OA
ATOM     10  C   UNL     1       4.989   5.654  -6.593  0.00  0.00    +0.036 A 
ATOM     11  N   UNL     1       1.766   6.658  -5.466  0.00  0.00    -0.327 N 
ATOM     12  C   UNL     1       4.689   5.453  -7.935  0.00  0.00    +0.154 A 
ATOM     13  F   UNL     1       5.156   4.336  -8.546  0.00  0.00    -0.203 F 
ENDROOT
BRANCH   1  17
ATOM     14  N   UNL     1       1.704   5.388 -12.735  0.00  0.00    -0.131 NA
ATOM     15  C   UNL     1       2.853   6.279 -12.139  0.00  0.00    +0.111 C 
ATOM     16  C   UNL     1       2.879   5.424 -10.738  0.00  0.00    +0.110 C 
ATOM     17  N   UNL     1       3.642   6.322  -9.889  0.00  0.00    -0.304 N 
ATOM     18  C   UNL     1       4.737   7.212 -10.208  0.00  0.00    +0.091 C 
ATOM     19  C   UNL     1       5.518   6.807 -11.413  0.00  0.00    +0.021 C 
ATOM     20  C   UNL     1       5.223   5.449 -11.945  0.00  0.00    +0.003 C 
ATOM     21  C   UNL     1       4.018   5.344 -12.815  0.00  0.00    +0.021 C 
ENDBRANCH   1  17
BRANCH   7  22
ATOM     22  C   UNL     1       3.544   7.356  -2.320  0.00  0.00    +0.392 C 
ATOM     23  O   UNL     1       3.810   8.725  -2.228  0.00  0.00    -0.240 OA
ATOM     24  O   UNL     1       2.853   6.878  -1.369  0.00  0.00    -0.240 OA
ENDBRANCH   7  22
BRANCH  11  25
ATOM     25  C   UNL     1       0.457   6.852  -6.044  0.00  0.00    +0.086 C 
ATOM     26  C   UNL     1      -0.693   7.054  -5.047  0.00  0.00    +0.024 C 
ATOM     27  C   UNL     1      -0.586   5.728  -5.794  0.00  0.00    +0.024 C 
ENDBRANCH  11  25
TORSDOF 3
ENDMDL
MODEL 6
REMARK VINA RESULT:      -7.9      2.644      3.937
REMARK  Name = 
REMARK  3 active torsions:
REMARK  status: ('A' for Active; 'I' for Inactive)
REMARK    1  A    between atoms: N_7  and  C_8
REMARK    2  A    between atoms: C_15  and  C_16
REMARK    3  A    between atoms: N_20  and  C_21
REMARK                            x       y       z     vdW  Elec       q    Type
REMARK                         _______ _______ _______ _____ _____    ______ ____
ROOT
ATOM      1  C   UNL     1       1.704   5.681  -5.179  0.00  0.00    +0.088 A 
ATOM      2  C   UNL     1       0.701   6.365  -4.509  0.00  0.00    +0.089 A 
ATOM      3 CL   UNL     1      -0.716   6.833  -5.397  0.00  0.00    -0.079 Cl
ATOM      4  C   UNL     1       0.686   6.482  -3.125  0.00  0.00    +0.075 A 
ATOM      5  C   UNL     1       1.895   6.223  -2.493  0.00  0.00    +0.058 A 
ATOM      6  C   UNL     1       1.997   6.444  -1.138  0.00  0.00    +0.205 A 
ATOM      7  C   UNL     1       0.810   6.756  -0.481  0.00  0.00    +0.136 A 
ATOM      8  C   UNL     1      -0.402   6.452  -1.090  0.00  0.00    +0.086 A 
ATOM      9  O   UNL     1       3.130   6.748  -0.658  0.00  0.00    -0.286 OA
ATOM     10  C   UNL     1       2.907   5.496  -3.100  0.00  0.00    +0.036 A 
ATOM     11  N   UNL     1      -0.475   6.378  -2.433  0.00  0.00    -0.327 N 
ATOM     12  C   UNL     1       2.785   5.198  -4.451  0.00  0.00    +0.154 A 
ATOM     13  F   UNL     1       3.377   4.074  -4.927  0.00  0.00    -0.203 F 
ENDROOT
BRANCH   1  17
ATOM     14  N   UNL     1       0.143   5.081  -9.544  0.00  0.00    -0.131 NA
ATOM     15  C   UNL     1       1.348   5.840  -8.879  0.00  0.00    +0.111 C 
ATOM     16  C   UNL     1       1.139   5.057  -7.452  0.00  0.00    +0.110 C 
ATOM     17  N   UNL     1       1.942   5.885  -6.570  0.00  0.00    -0.304 N 
ATOM     18  C   UNL     1       3.171   6.606  -6.820  0.00  0.00    +0.091 C 
ATOM     19  C   UNL     1       3.988   6.045  -7.934  0.00  0.00    +0.021 C 
ATOM     20  C   UNL     1       3.557   4.714  -8.442  0.00  0.00    +0.003 C 
ATOM     21  C   UNL     1       2.427   4.728  -9.413  0.00  0.00    +0.021 C 
ENDBRANCH   1  17
BRANCH   7  22
ATOM     22  C   UNL     1       0.867   7.366   0.848  0.00  0.00    +0.392 C 
ATOM     23  O   UNL     1       0.855   8.763   0.882  0.00  0.00    -0.240 OA
ATOM     24  O   UNL     1       0.224   6.799   1.783  0.00  0.00    -0.240 OA
ENDBRANCH   7  22
BRANCH  11  25
ATOM     25  C   UNL     1      -1.711   6.461  -3.175  0.00  0.00    +0.086 C 
ATOM     26  C   UNL     1      -2.987   6.629  -2.335  0.00  0.00    +0.024 C 
ATOM     27  C   UNL     1      -2.709   5.283  -2.997  0.00  0.00    +0.024 C 
ENDBRANCH  11  25
TORSDOF 3
ENDMDL
MODEL 7
REMARK VINA RESULT:      -7.9      1.974      2.393
REMARK  Name = 
REMARK  3 active torsions:
REMARK  status: ('A' for Active; 'I' for Inactive)
REMARK    1  A    between atoms: N_7  and  C_8
REMARK    2  A    between atoms: C_15  and  C_16
REMARK    3  A    between atoms: N_20  and  C_21
REMARK                            x       y       z     vdW  Elec       q    Type
REMARK                         _______ _______ _______ _____ _____    ______ ____
ROOT
ATOM      1  C   UNL     1       2.048   5.895  -7.224  0.00  0.00    +0.088 A 
ATOM      2  C   UNL     1       2.941   5.663  -6.190  0.00  0.00    +0.089 A 
ATOM      3 CL   UNL     1       4.639   5.649  -6.552  0.00  0.00    -0.079 Cl
ATOM      4  C   UNL     1       2.546   5.673  -4.858  0.00  0.00    +0.075 A 
ATOM      5  C   UNL     1       1.181   5.543  -4.642  0.00  0.00    +0.058 A 
ATOM      6  C   UNL     1       0.722   5.413  -3.350  0.00  0.00    +0.205 A 
ATOM      7  C   UNL     1       1.670   5.591  -2.347  0.00  0.00    +0.136 A 
ATOM      8  C   UNL     1       2.857   6.248  -2.645  0.00  0.00    +0.086 A 
ATOM      9  O   UNL     1      -0.354   4.772  -3.152  0.00  0.00    -0.286 OA
ATOM     10  C   UNL     1       0.245   5.817  -5.627  0.00  0.00    +0.036 A 
ATOM     11  N   UNL     1       3.332   6.233  -3.906  0.00  0.00    -0.327 N 
ATOM     12  C   UNL     1       0.697   6.028  -6.924  0.00  0.00    +0.154 A 
ATOM     13  F   UNL     1      -0.026   6.830  -7.744  0.00  0.00    -0.203 F 
ENDROOT
BRANCH   1  17
ATOM     14  N   UNL     1       4.512   6.776 -11.097  0.00  0.00    -0.131 NA
ATOM     15  C   UNL     1       3.550   5.630 -10.617  0.00  0.00    +0.111 C 
ATOM     16  C   UNL     1       2.995   6.530  -9.362  0.00  0.00    +0.110 C 
ATOM     17  N   UNL     1       2.344   5.507  -8.563  0.00  0.00    -0.304 N 
ATOM     18  C   UNL     1       1.627   4.317  -8.966  0.00  0.00    +0.091 C 
ATOM     19  C   UNL     1       1.040   4.395 -10.335  0.00  0.00    +0.021 C 
ATOM     20  C   UNL     1       1.059   5.742 -10.968  0.00  0.00    +0.003 C 
ATOM     21  C   UNL     1       2.346   6.136 -11.607  0.00  0.00    +0.021 C 
ENDBRANCH   1  17
BRANCH   7  22
ATOM     22  C   UNL     1       1.379   5.111  -0.995  0.00  0.00    +0.392 C 
ATOM     23  O   UNL     1       2.119   4.005  -0.565  0.00  0.00    -0.240 OA
ATOM     24  O   UNL     1       1.142   5.979  -0.101  0.00  0.00    -0.240 OA
ENDBRANCH   7  22
BRANCH  11  25
ATOM     25  C   UNL     1       4.703   6.527  -4.251  0.00  0.00    +0.086 C 
ATOM     26  C   UNL     1       5.567   7.113  -3.123  0.00  0.00    +0.024 C 
ATOM     27  C   UNL     1       5.111   8.027  -4.257  0.00  0.00    +0.024 C 
ENDBRANCH  11  25
TORSDOF 3
ENDMDL
MODEL 8
REMARK VINA RESULT:      -7.8      3.780      6.829
REMARK  Name = 
REMARK  3 active torsions:
REMARK  status: ('A' for Active; 'I' for Inactive)
REMARK    1  A    between atoms: N_7  and  C_8
REMARK    2  A    between atoms: C_15  and  C_16
REMARK    3  A    between atoms: N_20  and  C_21
REMARK                            x       y       z     vdW  Elec       q    Type
REMARK                         _______ _______ _______ _____ _____    ______ ____
ROOT
ATOM      1  C   UNL     1       2.298   6.300  -4.103  0.00  0.00    +0.088 A 
ATOM      2  C   UNL     1       1.259   5.639  -4.741  0.00  0.00    +0.089 A 
ATOM      3 CL   UNL     1      -0.062   5.054  -3.778  0.00  0.00    -0.079 Cl
ATOM      4  C   UNL     1       1.127   5.635  -6.123  0.00  0.00    +0.075 A 
ATOM      5  C   UNL     1       2.269   5.985  -6.831  0.00  0.00    +0.058 A 
ATOM      6  C   UNL     1       2.258   5.878  -8.204  0.00  0.00    +0.205 A 
ATOM      7  C   UNL     1       1.028   5.581  -8.782  0.00  0.00    +0.136 A 
ATOM      8  C   UNL     1      -0.134   5.793  -8.050  0.00  0.00    +0.086 A 
ATOM      9  O   UNL     1       3.354   5.653  -8.802  0.00  0.00    -0.286 OA
ATOM     10  C   UNL     1       3.310   6.694  -6.253  0.00  0.00    +0.036 A 
ATOM     11  N   UNL     1      -0.092   5.755  -6.703  0.00  0.00    -0.327 N 
ATOM     12  C   UNL     1       3.298   6.878  -4.877  0.00  0.00    +0.154 A 
ATOM     13  F   UNL     1       3.900   7.978  -4.361  0.00  0.00    -0.203 F 
ENDROOT
BRANCH   1  17
ATOM     14  N   UNL     1       1.389   6.933   0.438  0.00  0.00    -0.131 NA
ATOM     15  C   UNL     1       2.362   6.021  -0.394  0.00  0.00    +0.111 C 
ATOM     16  C   UNL     1       2.119   6.897  -1.761  0.00  0.00    +0.110 C 
ATOM     17  N   UNL     1       2.662   5.992  -2.759  0.00  0.00    -0.304 N 
ATOM     18  C   UNL     1       3.773   5.070  -2.685  0.00  0.00    +0.091 C 
ATOM     19  C   UNL     1       4.800   5.435  -1.667  0.00  0.00    +0.021 C 
ATOM     20  C   UNL     1       4.661   6.792  -1.071  0.00  0.00    +0.003 C 
ATOM     21  C   UNL     1       3.668   6.915   0.032  0.00  0.00    +0.021 C 
ENDBRANCH   1  17
BRANCH   7  22
ATOM     22  C   UNL     1       0.985   5.083 -10.158  0.00  0.00    +0.392 C 
ATOM     23  O   UNL     1      -0.011   4.145 -10.439  0.00  0.00    -0.240 OA
ATOM     24  O   UNL     1       1.224   5.910 -11.090  0.00  0.00    -0.240 OA
ENDBRANCH   7  22
BRANCH  11  25
ATOM     25  C   UNL     1      -1.257   5.571  -5.870  0.00  0.00    +0.086 C 
ATOM     26  C   UNL     1      -2.614   5.672  -6.582  0.00  0.00    +0.024 C 
ATOM     27  C   UNL     1      -2.171   6.811  -5.668  0.00  0.00    +0.024 C 
ENDBRANCH  11  25
TORSDOF 3
ENDMDL
MODEL 9
REMARK VINA RESULT:      -7.8      3.996      7.899
REMARK  Name = 
REMARK  3 active torsions:
REMARK  status: ('A' for Active; 'I' for Inactive)
REMARK    1  A    between atoms: N_7  and  C_8
REMARK    2  A    between atoms: C_15  and  C_16
REMARK    3  A    between atoms: N_20  and  C_21
REMARK                            x       y       z     vdW  Elec       q    Type
REMARK                         _______ _______ _______ _____ _____    ______ ____
ROOT
ATOM      1  C   UNL     1       1.321   6.232  -6.318  0.00  0.00    +0.088 A 
ATOM      2  C   UNL     1       1.090   5.783  -7.609  0.00  0.00    +0.089 A 
ATOM      3 CL   UNL     1      -0.544   5.433  -8.082  0.00  0.00    -0.079 Cl
ATOM      4  C   UNL     1       2.071   5.825  -8.591  0.00  0.00    +0.075 A 
ATOM      5  C   UNL     1       3.371   5.972  -8.127  0.00  0.00    +0.058 A 
ATOM      6  C   UNL     1       4.411   5.891  -9.026  0.00  0.00    +0.205 A 
ATOM      7  C   UNL     1       4.051   5.833 -10.369  0.00  0.00    +0.136 A 
ATOM      8  C   UNL     1       2.778   6.242 -10.748  0.00  0.00    +0.086 A 
ATOM      9  O   UNL     1       5.537   5.479  -8.613  0.00  0.00    -0.286 OA
ATOM     10  C   UNL     1       3.655   6.469  -6.864  0.00  0.00    +0.036 A 
ATOM     11  N   UNL     1       1.764   6.176  -9.864  0.00  0.00    -0.327 N 
ATOM     12  C   UNL     1       2.606   6.630  -5.968  0.00  0.00    +0.154 A 
ATOM     13  F   UNL     1       2.702   7.593  -5.019  0.00  0.00    -0.203 F 
ENDROOT
BRANCH   1  17
ATOM     14  N   UNL     1      -2.796   6.762  -4.168  0.00  0.00    -0.131 NA
ATOM     15  C   UNL     1      -1.562   5.803  -4.006  0.00  0.00    +0.111 C 
ATOM     16  C   UNL     1      -0.617   6.749  -4.957  0.00  0.00    +0.110 C 
ATOM     17  N   UNL     1       0.483   5.841  -5.233  0.00  0.00    -0.304 N 
ATOM     18  C   UNL     1       1.090   4.824  -4.405  0.00  0.00    +0.091 C 
ATOM     19  C   UNL     1       0.932   5.057  -2.940  0.00  0.00    +0.021 C 
ATOM     20  C   UNL     1       0.409   6.397  -2.555  0.00  0.00    +0.003 C 
ATOM     21  C   UNL     1      -1.069   6.562  -2.639  0.00  0.00    +0.021 C 
ENDBRANCH   1  17
BRANCH   7  22
ATOM     22  C   UNL     1       5.032   5.374 -11.353  0.00  0.00    +0.392 C 
ATOM     23  O   UNL     1       4.518   4.966 -12.587  0.00  0.00    -0.240 OA
ATOM     24  O   UNL     1       6.141   5.989 -11.409  0.00  0.00    -0.240 OA
ENDBRANCH   7  22
BRANCH  11  25
ATOM     25  C   UNL     1       0.370   6.194 -10.240  0.00  0.00    +0.086 C 
ATOM     26  C   UNL     1       0.062   5.798 -11.692  0.00  0.00    +0.024 C 
ATOM     27  C   UNL     1      -0.055   7.263 -11.284  0.00  0.00    +0.024 C 
ENDBRANCH  11  25
TORSDOF 3
ENDMDL
