MODEL 1
REMARK VINA RESULT:     -11.2      0.000      0.000
REMARK  Name = 
REMARK  7 active torsions:
REMARK  status: ('A' for Active; 'I' for Inactive)
REMARK    1  A    between atoms: C_2  and  C_3
REMARK    2  A    between atoms: C_3  and  C_4
REMARK    3  A    between atoms: C_9  and  C_10
REMARK    4  A    between atoms: N_23  and  C_24
REMARK    5  A    between atoms: C_24  and  C_25
REMARK    6  A    between atoms: C_28  and  C_29
REMARK    7  A    between atoms: C_34  and  C_35
REMARK                            x       y       z     vdW  Elec       q    Type
REMARK                         _______ _______ _______ _____ _____    ______ ____
ROOT
ATOM      1  C   UNL     1      -0.164   5.217  -7.288  0.00  0.00    +0.121 A 
ATOM      2  N   UNL     1       1.030   4.589  -7.423  0.00  0.00    -0.311 N 
ATOM      3  C   UNL     1       1.538   4.990  -8.610  0.00  0.00    +0.079 A 
ATOM      4  C   UNL     1       2.811   4.994  -9.165  0.00  0.00    +0.022 A 
ATOM      5  C   UNL     1       2.961   5.369 -10.492  0.00  0.00    +0.035 A 
ATOM      6  C   UNL     1       1.850   5.796 -11.198  0.00  0.00    +0.000 A 
ATOM      7  C   UNL     1       0.618   6.005 -10.591  0.00  0.00    -0.003 A 
ATOM      8  C   UNL     1      -0.346   7.025 -11.106  0.00  0.00    +0.033 C 
ATOM      9  C   UNL     1       0.559   5.761  -9.224  0.00  0.00    +0.094 A 
ATOM     10  N   UNL     1      -0.292   6.164  -8.249  0.00  0.00    -0.231 NA
ENDROOT
BRANCH   5  11
ATOM     11  C   UNL     1       4.301   5.615 -11.039  0.00  0.00    +0.144 A 
ATOM     12  N   UNL     1       4.800   5.308 -12.242  0.00  0.00    -0.309 N 
ATOM     13  C   UNL     1       3.989   5.133 -13.420  0.00  0.00    +0.132 C 
ATOM     14  C   UNL     1       6.122   5.601 -12.252  0.00  0.00    +0.079 A 
ATOM     15  C   UNL     1       6.494   5.857 -10.939  0.00  0.00    +0.099 A 
ATOM     16  C   UNL     1       7.757   6.285 -10.592  0.00  0.00    +0.021 A 
ATOM     17  C   UNL     1       8.763   6.060 -11.514  0.00  0.00    +0.002 A 
ATOM     18  C   UNL     1       8.438   5.638 -12.795  0.00  0.00    +0.002 A 
ATOM     19  C   UNL     1       7.109   5.685 -13.200  0.00  0.00    +0.019 A 
ATOM     20  N   UNL     1       5.374   5.759 -10.224  0.00  0.00    -0.227 NA
ENDBRANCH   5  11
BRANCH   2  21
ATOM     21  C   UNL     1       1.800   4.009  -6.332  0.00  0.00    +0.134 C 
BRANCH  21  22
ATOM     22  C   UNL     1       2.122   5.015  -5.286  0.00  0.00    +0.000 A 
ATOM     23  C   UNL     1       3.252   5.787  -5.522  0.00  0.00    -0.002 A 
ATOM     24  C   UNL     1       3.604   6.795  -4.638  0.00  0.00    -0.000 A 
ATOM     25  C   UNL     1       2.870   7.040  -3.506  0.00  0.00    +0.000 A 
ATOM     26  C   UNL     1       1.667   6.358  -3.388  0.00  0.00    -0.000 A 
ATOM     27  C   UNL     1       1.241   5.433  -4.327  0.00  0.00    -0.002 A 
BRANCH  25  28
ATOM     28  C   UNL     1       3.528   7.455  -2.260  0.00  0.00    +0.006 A 
ATOM     29  C   UNL     1       3.983   6.517  -1.353  0.00  0.00    +0.080 A 
ATOM     30  C   UNL     1       4.495   6.919  -0.125  0.00  0.00    +0.007 A 
ATOM     31  C   UNL     1       4.340   8.221   0.305  0.00  0.00    +0.000 A 
ATOM     32  C   UNL     1       3.705   9.106  -0.547  0.00  0.00    +0.000 A 
ATOM     33  C   UNL     1       3.624   8.780  -1.896  0.00  0.00    +0.000 A 
BRANCH  29  34
ATOM     34  C   UNL     1       3.764   5.098  -1.553  0.00  0.00    +0.388 C 
ATOM     35  O   UNL     1       4.418   4.329  -2.490  0.00  0.00    -0.241 OA
ATOM     36  O   UNL     1       2.935   4.509  -0.802  0.00  0.00    -0.241 OA
ENDBRANCH  29  34
ENDBRANCH  25  28
ENDBRANCH  21  22
ENDBRANCH   2  21
BRANCH   1  37
ATOM     37  C   UNL     1      -1.165   5.017  -6.193  0.00  0.00    +0.064 C 
BRANCH  37  39
ATOM     38  C   UNL     1      -2.364   7.013  -5.243  0.00  0.00    +0.000 C 
ATOM     39  C   UNL     1      -2.323   5.988  -6.357  0.00  0.00    +0.008 C 
ENDBRANCH  37  39
ENDBRANCH   1  37
TORSDOF 7
ENDMDL
MODEL 2
REMARK VINA RESULT:     -10.2      1.307      1.727
REMARK  Name = 
REMARK  7 active torsions:
REMARK  status: ('A' for Active; 'I' for Inactive)
REMARK    1  A    between atoms: C_2  and  C_3
REMARK    2  A    between atoms: C_3  and  C_4
REMARK    3  A    between atoms: C_9  and  C_10
REMARK    4  A    between atoms: N_23  and  C_24
REMARK    5  A    between atoms: C_24  and  C_25
REMARK    6  A    between atoms: C_28  and  C_29
REMARK    7  A    between atoms: C_34  and  C_35
REMARK                            x       y       z     vdW  Elec       q    Type
REMARK                         _______ _______ _______ _____ _____    ______ ____
ROOT
ATOM      1  C   UNL     1       0.982   5.226  -6.127  0.00  0.00    +0.121 A 
ATOM      2  N   UNL     1       2.199   4.699  -6.408  0.00  0.00    -0.311 N 
ATOM      3  C   UNL     1       2.447   4.987  -7.705  0.00  0.00    +0.079 A 
ATOM      4  C   UNL     1       3.597   5.036  -8.482  0.00  0.00    +0.022 A 
ATOM      5  C   UNL     1       3.473   5.248  -9.848  0.00  0.00    +0.035 A 
ATOM      6  C   UNL     1       2.216   5.474 -10.380  0.00  0.00    +0.000 A 
ATOM      7  C   UNL     1       1.091   5.646  -9.583  0.00  0.00    -0.003 A 
ATOM      8  C   UNL     1      -0.058   6.496 -10.024  0.00  0.00    +0.033 C 
ATOM      9  C   UNL     1       1.296   5.577  -8.210  0.00  0.00    +0.094 A 
ATOM     10  N   UNL     1       0.583   6.023  -7.147  0.00  0.00    -0.231 NA
ENDROOT
BRANCH   5  11
ATOM     11  C   UNL     1       4.663   5.544 -10.656  0.00  0.00    +0.144 A 
ATOM     12  N   UNL     1       4.847   5.422 -11.976  0.00  0.00    -0.309 N 
ATOM     13  C   UNL     1       3.775   5.462 -12.938  0.00  0.00    +0.132 C 
ATOM     14  C   UNL     1       6.147   5.678 -12.258  0.00  0.00    +0.079 A 
ATOM     15  C   UNL     1       6.829   5.708 -11.049  0.00  0.00    +0.099 A 
ATOM     16  C   UNL     1       8.163   6.041 -10.955  0.00  0.00    +0.021 A 
ATOM     17  C   UNL     1       8.911   5.941 -12.114  0.00  0.00    +0.002 A 
ATOM     18  C   UNL     1       8.270   5.742 -13.328  0.00  0.00    +0.002 A 
ATOM     19  C   UNL     1       6.890   5.889 -13.391  0.00  0.00    +0.019 A 
ATOM     20  N   UNL     1       5.902   5.525 -10.109  0.00  0.00    -0.227 NA
ENDBRANCH   5  11
BRANCH   2  21
ATOM     21  C   UNL     1       3.206   4.340  -5.420  0.00  0.00    +0.134 C 
BRANCH  21  22
ATOM     22  C   UNL     1       3.338   5.377  -4.362  0.00  0.00    +0.000 A 
ATOM     23  C   UNL     1       3.946   4.960  -3.185  0.00  0.00    -0.002 A 
ATOM     24  C   UNL     1       4.172   5.864  -2.160  0.00  0.00    -0.000 A 
ATOM     25  C   UNL     1       3.786   7.176  -2.267  0.00  0.00    +0.000 A 
ATOM     26  C   UNL     1       3.331   7.588  -3.512  0.00  0.00    -0.000 A 
ATOM     27  C   UNL     1       3.212   6.720  -4.585  0.00  0.00    -0.002 A 
BRANCH  25  28
ATOM     28  C   UNL     1       3.288   7.910  -1.096  0.00  0.00    +0.006 A 
ATOM     29  C   UNL     1       2.196   7.452  -0.386  0.00  0.00    +0.080 A 
ATOM     30  C   UNL     1       1.659   8.214   0.646  0.00  0.00    +0.007 A 
ATOM     31  C   UNL     1       2.047   9.527   0.819  0.00  0.00    +0.000 A 
ATOM     32  C   UNL     1       3.013  10.028  -0.034  0.00  0.00    +0.000 A 
ATOM     33  C   UNL     1       3.815   9.127  -0.725  0.00  0.00    +0.000 A 
BRANCH  29  34
ATOM     34  C   UNL     1       1.453   6.280  -0.806  0.00  0.00    +0.388 C 
ATOM     35  O   UNL     1       1.707   4.996  -0.375  0.00  0.00    -0.241 OA
ATOM     36  O   UNL     1       0.485   6.439  -1.603  0.00  0.00    -0.241 OA
ENDBRANCH  29  34
ENDBRANCH  25  28
ENDBRANCH  21  22
ENDBRANCH   2  21
BRANCH   1  37
ATOM     37  C   UNL     1       0.214   5.079  -4.850  0.00  0.00    +0.064 C 
BRANCH  37  39
ATOM     38  C   UNL     1      -1.116   7.193  -4.556  0.00  0.00    +0.000 C 
ATOM     39  C   UNL     1      -1.150   5.739  -4.979  0.00  0.00    +0.008 C 
ENDBRANCH  37  39
ENDBRANCH   1  37
TORSDOF 7
ENDMDL
MODEL 3
REMARK VINA RESULT:     -10.2      2.872      4.708
REMARK  Name = 
REMARK  7 active torsions:
REMARK  status: ('A' for Active; 'I' for Inactive)
REMARK    1  A    between atoms: C_2  and  C_3
REMARK    2  A    between atoms: C_3  and  C_4
REMARK    3  A    between atoms: C_9  and  C_10
REMARK    4  A    between atoms: N_23  and  C_24
REMARK    5  A    between atoms: C_24  and  C_25
REMARK    6  A    between atoms: C_28  and  C_29
REMARK    7  A    between atoms: C_34  and  C_35
REMARK                            x       y       z     vdW  Elec       q    Type
REMARK                         _______ _______ _______ _____ _____    ______ ____
ROOT
ATOM      1  C   UNL     1       1.777   5.290  -2.607  0.00  0.00    +0.121 A 
ATOM      2  N   UNL     1       3.048   5.203  -3.068  0.00  0.00    -0.311 N 
ATOM      3  C   UNL     1       2.963   5.199  -4.417  0.00  0.00    +0.079 A 
ATOM      4  C   UNL     1       3.860   5.463  -5.444  0.00  0.00    +0.022 A 
ATOM      5  C   UNL     1       3.465   5.233  -6.754  0.00  0.00    +0.035 A 
ATOM      6  C   UNL     1       2.168   4.817  -7.000  0.00  0.00    +0.000 A 
ATOM      7  C   UNL     1       1.203   4.763  -6.003  0.00  0.00    -0.003 A 
ATOM      8  C   UNL     1      -0.247   4.966  -6.305  0.00  0.00    +0.033 C 
ATOM      9  C   UNL     1       1.611   5.152  -4.732  0.00  0.00    +0.094 A 
ATOM     10  N   UNL     1       0.937   5.569  -3.632  0.00  0.00    -0.231 NA
ENDROOT
BRANCH   5  11
ATOM     11  C   UNL     1       4.289   5.722  -7.866  0.00  0.00    +0.144 A 
ATOM     12  N   UNL     1       3.921   6.377  -8.974  0.00  0.00    -0.309 N 
ATOM     13  C   UNL     1       2.729   7.180  -9.068  0.00  0.00    +0.132 C 
ATOM     14  C   UNL     1       5.001   6.502  -9.783  0.00  0.00    +0.079 A 
ATOM     15  C   UNL     1       5.994   5.679  -9.268  0.00  0.00    +0.099 A 
ATOM     16  C   UNL     1       7.268   5.634  -9.791  0.00  0.00    +0.021 A 
ATOM     17  C   UNL     1       7.427   6.105 -11.082  0.00  0.00    +0.002 A 
ATOM     18  C   UNL     1       6.388   6.790 -11.694  0.00  0.00    +0.002 A 
ATOM     19  C   UNL     1       5.307   7.201 -10.922  0.00  0.00    +0.019 A 
ATOM     20  N   UNL     1       5.482   5.151  -8.157  0.00  0.00    -0.227 NA
ENDBRANCH   5  11
BRANCH   2  21
ATOM     21  C   UNL     1       4.242   5.532  -2.303  0.00  0.00    +0.134 C 
BRANCH  21  22
ATOM     22  C   UNL     1       4.039   6.732  -1.448  0.00  0.00    +0.000 A 
ATOM     23  C   UNL     1       4.456   6.607  -0.129  0.00  0.00    -0.002 A 
ATOM     24  C   UNL     1       4.368   7.687   0.734  0.00  0.00    -0.000 A 
ATOM     25  C   UNL     1       3.851   8.889   0.323  0.00  0.00    +0.000 A 
ATOM     26  C   UNL     1       3.596   9.022  -1.035  0.00  0.00    -0.000 A 
ATOM     27  C   UNL     1       3.794   7.986  -1.934  0.00  0.00    -0.002 A 
BRANCH  25  28
ATOM     28  C   UNL     1       3.050   9.714   1.237  0.00  0.00    +0.006 A 
ATOM     29  C   UNL     1       3.615  10.782   1.907  0.00  0.00    +0.080 A 
ATOM     30  C   UNL     1       2.882  11.481   2.858  0.00  0.00    +0.007 A 
ATOM     31  C   UNL     1       1.680  10.983   3.320  0.00  0.00    +0.000 A 
ATOM     32  C   UNL     1       1.222   9.801   2.767  0.00  0.00    +0.000 A 
ATOM     33  C   UNL     1       1.744   9.398   1.544  0.00  0.00    +0.000 A 
BRANCH  29  34
ATOM     34  C   UNL     1       5.028  11.086   1.797  0.00  0.00    +0.388 C 
ATOM     35  O   UNL     1       5.560  12.055   0.974  0.00  0.00    -0.241 OA
ATOM     36  O   UNL     1       5.837  10.440   2.522  0.00  0.00    -0.241 OA
ENDBRANCH  29  34
ENDBRANCH  25  28
ENDBRANCH  21  22
ENDBRANCH   2  21
BRANCH   1  37
ATOM     37  C   UNL     1       1.334   5.218  -1.179  0.00  0.00    +0.064 C 
BRANCH  37  39
ATOM     38  C   UNL     1      -0.955   6.079  -0.592  0.00  0.00    +0.000 C 
ATOM     39  C   UNL     1       0.497   6.439  -0.826  0.00  0.00    +0.008 C 
ENDBRANCH  37  39
ENDBRANCH   1  37
TORSDOF 7
ENDMDL
MODEL 4
REMARK VINA RESULT:     -10.1      2.706      4.828
REMARK  Name = 
REMARK  7 active torsions:
REMARK  status: ('A' for Active; 'I' for Inactive)
REMARK    1  A    between atoms: C_2  and  C_3
REMARK    2  A    between atoms: C_3  and  C_4
REMARK    3  A    between atoms: C_9  and  C_10
REMARK    4  A    between atoms: N_23  and  C_24
REMARK    5  A    between atoms: C_24  and  C_25
REMARK    6  A    between atoms: C_28  and  C_29
REMARK    7  A    between atoms: C_34  and  C_35
REMARK                            x       y       z     vdW  Elec       q    Type
REMARK                         _______ _______ _______ _____ _____    ______ ____
ROOT
ATOM      1  C   UNL     1      -1.064   5.846  -2.027  0.00  0.00    +0.121 A 
ATOM      2  N   UNL     1       0.088   5.180  -2.285  0.00  0.00    -0.311 N 
ATOM      3  C   UNL     1       0.232   5.178  -3.629  0.00  0.00    +0.079 A 
ATOM      4  C   UNL     1       1.306   4.979  -4.487  0.00  0.00    +0.022 A 
ATOM      5  C   UNL     1       1.069   4.917  -5.852  0.00  0.00    +0.035 A 
ATOM      6  C   UNL     1      -0.216   5.126  -6.320  0.00  0.00    +0.000 A 
ATOM      7  C   UNL     1      -1.250   5.542  -5.492  0.00  0.00    -0.003 A 
ATOM      8  C   UNL     1      -2.382   6.370  -6.010  0.00  0.00    +0.033 C 
ATOM      9  C   UNL     1      -0.924   5.739  -4.155  0.00  0.00    +0.094 A 
ATOM     10  N   UNL     1      -1.508   6.446  -3.157  0.00  0.00    -0.231 NA
ENDROOT
BRANCH   5  11
ATOM     11  C   UNL     1       2.195   4.949  -6.795  0.00  0.00    +0.144 A 
ATOM     12  N   UNL     1       3.476   5.273  -6.580  0.00  0.00    -0.309 N 
ATOM     13  C   UNL     1       4.122   5.165  -5.297  0.00  0.00    +0.132 C 
ATOM     14  C   UNL     1       4.122   5.296  -7.771  0.00  0.00    +0.079 A 
ATOM     15  C   UNL     1       3.154   5.233  -8.763  0.00  0.00    +0.099 A 
ATOM     16  C   UNL     1       3.465   5.139 -10.102  0.00  0.00    +0.021 A 
ATOM     17  C   UNL     1       4.742   5.523 -10.471  0.00  0.00    +0.002 A 
ATOM     18  C   UNL     1       5.696   5.759  -9.493  0.00  0.00    +0.002 A 
ATOM     19  C   UNL     1       5.427   5.373  -8.185  0.00  0.00    +0.019 A 
ATOM     20  N   UNL     1       1.991   5.122  -8.123  0.00  0.00    -0.227 NA
ENDBRANCH   5  11
BRANCH   2  21
ATOM     21  C   UNL     1       1.159   4.954  -1.325  0.00  0.00    +0.134 C 
BRANCH  21  22
ATOM     22  C   UNL     1       1.749   6.231  -0.843  0.00  0.00    +0.000 A 
ATOM     23  C   UNL     1       2.731   6.784  -1.655  0.00  0.00    -0.002 A 
ATOM     24  C   UNL     1       3.300   8.004  -1.326  0.00  0.00    -0.000 A 
ATOM     25  C   UNL     1       2.933   8.681  -0.191  0.00  0.00    +0.000 A 
ATOM     26  C   UNL     1       1.843   8.177   0.505  0.00  0.00    -0.000 A 
ATOM     27  C   UNL     1       1.184   7.021   0.120  0.00  0.00    -0.002 A 
BRANCH  25  28
ATOM     28  C   UNL     1       3.922   9.447   0.579  0.00  0.00    +0.006 A 
ATOM     29  C   UNL     1       4.719   8.828   1.522  0.00  0.00    +0.080 A 
ATOM     30  C   UNL     1       5.566   9.580   2.328  0.00  0.00    +0.007 A 
ATOM     31  C   UNL     1       5.452  10.955   2.370  0.00  0.00    +0.000 A 
ATOM     32  C   UNL     1       4.507  11.545   1.552  0.00  0.00    +0.000 A 
ATOM     33  C   UNL     1       4.022  10.817   0.472  0.00  0.00    +0.000 A 
BRANCH  29  34
ATOM     34  C   UNL     1       4.563   7.423   1.845  0.00  0.00    +0.388 C 
ATOM     35  O   UNL     1       4.998   6.384   1.052  0.00  0.00    -0.241 OA
ATOM     36  O   UNL     1       4.014   7.119   2.942  0.00  0.00    -0.241 OA
ENDBRANCH  29  34
ENDBRANCH  25  28
ENDBRANCH  21  22
ENDBRANCH   2  21
BRANCH   1  37
ATOM     37  C   UNL     1      -1.719   6.021  -0.692  0.00  0.00    +0.064 C 
BRANCH  37  39
ATOM     38  C   UNL     1      -2.255   7.861   0.937  0.00  0.00    +0.000 C 
ATOM     39  C   UNL     1      -2.187   7.458  -0.521  0.00  0.00    +0.008 C 
ENDBRANCH  37  39
ENDBRANCH   1  37
TORSDOF 7
ENDMDL
MODEL 5
REMARK VINA RESULT:     -10.1      3.650     10.025
REMARK  Name = 
REMARK  7 active torsions:
REMARK  status: ('A' for Active; 'I' for Inactive)
REMARK    1  A    between atoms: C_2  and  C_3
REMARK    2  A    between atoms: C_3  and  C_4
REMARK    3  A    between atoms: C_9  and  C_10
REMARK    4  A    between atoms: N_23  and  C_24
REMARK    5  A    between atoms: C_24  and  C_25
REMARK    6  A    between atoms: C_28  and  C_29
REMARK    7  A    between atoms: C_34  and  C_35
REMARK                            x       y       z     vdW  Elec       q    Type
REMARK                         _______ _______ _______ _____ _____    ______ ____
ROOT
ATOM      1  C   UNL     1       4.899   5.227  -8.267  0.00  0.00    +0.121 A 
ATOM      2  N   UNL     1       3.766   4.506  -8.080  0.00  0.00    -0.311 N 
ATOM      3  C   UNL     1       3.278   4.871  -6.874  0.00  0.00    +0.079 A 
ATOM      4  C   UNL     1       2.033   4.777  -6.265  0.00  0.00    +0.022 A 
ATOM      5  C   UNL     1       1.910   5.146  -4.934  0.00  0.00    +0.035 A 
ATOM      6  C   UNL     1       3.012   5.664  -4.276  0.00  0.00    +0.000 A 
ATOM      7  C   UNL     1       4.196   5.967  -4.936  0.00  0.00    -0.003 A 
ATOM      8  C   UNL     1       5.097   7.063  -4.463  0.00  0.00    +0.033 C 
ATOM      9  C   UNL     1       4.217   5.721  -6.304  0.00  0.00    +0.094 A 
ATOM     10  N   UNL     1       4.992   6.185  -7.314  0.00  0.00    -0.231 NA
ENDROOT
BRANCH   5  11
ATOM     11  C   UNL     1       0.578   5.288  -4.331  0.00  0.00    +0.144 A 
ATOM     12  N   UNL     1      -0.583   5.627  -4.903  0.00  0.00    -0.309 N 
ATOM     13  C   UNL     1      -0.872   5.429  -6.301  0.00  0.00    +0.132 C 
ATOM     14  C   UNL     1      -1.520   5.767  -3.934  0.00  0.00    +0.079 A 
ATOM     15  C   UNL     1      -0.852   5.762  -2.717  0.00  0.00    +0.099 A 
ATOM     16  C   UNL     1      -1.510   5.788  -1.507  0.00  0.00    +0.021 A 
ATOM     17  C   UNL     1      -2.819   6.236  -1.521  0.00  0.00    +0.002 A 
ATOM     18  C   UNL     1      -3.468   6.415  -2.734  0.00  0.00    +0.002 A 
ATOM     19  C   UNL     1      -2.882   5.914  -3.890  0.00  0.00    +0.019 A 
ATOM     20  N   UNL     1       0.432   5.566  -3.013  0.00  0.00    -0.227 NA
ENDBRANCH   5  11
BRANCH   2  21
ATOM     21  C   UNL     1       2.999   3.861  -9.136  0.00  0.00    +0.134 C 
BRANCH  21  22
ATOM     22  C   UNL     1       2.517   4.839 -10.147  0.00  0.00    +0.000 A 
ATOM     23  C   UNL     1       1.159   5.128 -10.104  0.00  0.00    -0.002 A 
ATOM     24  C   UNL     1       0.621   6.072 -10.963  0.00  0.00    -0.000 A 
ATOM     25  C   UNL     1       1.399   6.724 -11.886  0.00  0.00    +0.000 A 
ATOM     26  C   UNL     1       2.769   6.526 -11.791  0.00  0.00    -0.000 A 
ATOM     27  C   UNL     1       3.335   5.675 -10.855  0.00  0.00    -0.002 A 
BRANCH  25  28
ATOM     28  C   UNL     1       0.864   7.068 -13.210  0.00  0.00    +0.006 A 
ATOM     29  C   UNL     1       0.803   6.124 -14.217  0.00  0.00    +0.080 A 
ATOM     30  C   UNL     1       0.407   6.489 -15.498  0.00  0.00    +0.007 A 
ATOM     31  C   UNL     1       0.302   7.821 -15.845  0.00  0.00    +0.000 A 
ATOM     32  C   UNL     1       0.557   8.760 -14.863  0.00  0.00    +0.000 A 
ATOM     33  C   UNL     1       0.503   8.358 -13.534  0.00  0.00    +0.000 A 
BRANCH  29  34
ATOM     34  C   UNL     1       1.330   4.786 -14.037  0.00  0.00    +0.388 C 
ATOM     35  O   UNL     1       2.623   4.408 -14.327  0.00  0.00    -0.241 OA
ATOM     36  O   UNL     1       0.567   3.901 -13.556  0.00  0.00    -0.241 OA
ENDBRANCH  29  34
ENDBRANCH  25  28
ENDBRANCH  21  22
ENDBRANCH   2  21
BRANCH   1  37
ATOM     37  C   UNL     1       5.865   5.101  -9.403  0.00  0.00    +0.064 C 
BRANCH  37  39
ATOM     38  C   UNL     1       7.365   6.856 -10.401  0.00  0.00    +0.000 C 
ATOM     39  C   UNL     1       7.061   6.014  -9.179  0.00  0.00    +0.008 C 
ENDBRANCH  37  39
ENDBRANCH   1  37
TORSDOF 7
ENDMDL
MODEL 6
REMARK VINA RESULT:     -10.1      2.012      2.826
REMARK  Name = 
REMARK  7 active torsions:
REMARK  status: ('A' for Active; 'I' for Inactive)
REMARK    1  A    between atoms: C_2  and  C_3
REMARK    2  A    between atoms: C_3  and  C_4
REMARK    3  A    between atoms: C_9  and  C_10
REMARK    4  A    between atoms: N_23  and  C_24
REMARK    5  A    between atoms: C_24  and  C_25
REMARK    6  A    between atoms: C_28  and  C_29
REMARK    7  A    between atoms: C_34  and  C_35
REMARK                            x       y       z     vdW  Elec       q    Type
REMARK                         _______ _______ _______ _____ _____    ______ ____
ROOT
ATOM      1  C   UNL     1       1.602   5.190  -5.191  0.00  0.00    +0.121 A 
ATOM      2  N   UNL     1       2.875   4.872  -5.527  0.00  0.00    -0.311 N 
ATOM      3  C   UNL     1       2.955   4.995  -6.871  0.00  0.00    +0.079 A 
ATOM      4  C   UNL     1       4.004   5.145  -7.769  0.00  0.00    +0.022 A 
ATOM      5  C   UNL     1       3.732   5.112  -9.128  0.00  0.00    +0.035 A 
ATOM      6  C   UNL     1       2.417   5.003  -9.547  0.00  0.00    +0.000 A 
ATOM      7  C   UNL     1       1.348   5.076  -8.664  0.00  0.00    -0.003 A 
ATOM      8  C   UNL     1       0.017   5.607  -9.089  0.00  0.00    +0.033 C 
ATOM      9  C   UNL     1       1.670   5.264  -7.325  0.00  0.00    +0.094 A 
ATOM     10  N   UNL     1       0.966   5.725  -6.261  0.00  0.00    -0.231 NA
ENDROOT
BRANCH   5  11
ATOM     11  C   UNL     1       4.767   5.503 -10.094  0.00  0.00    +0.144 A 
ATOM     12  N   UNL     1       4.699   5.585 -11.428  0.00  0.00    -0.309 N 
ATOM     13  C   UNL     1       3.472   5.800 -12.153  0.00  0.00    +0.132 C 
ATOM     14  C   UNL     1       5.936   5.852 -11.910  0.00  0.00    +0.079 A 
ATOM     15  C   UNL     1       6.829   5.677 -10.863  0.00  0.00    +0.099 A 
ATOM     16  C   UNL     1       8.173   5.960 -10.974  0.00  0.00    +0.021 A 
ATOM     17  C   UNL     1       8.689   6.025 -12.256  0.00  0.00    +0.002 A 
ATOM     18  C   UNL     1       7.827   6.033 -13.342  0.00  0.00    +0.002 A 
ATOM     19  C   UNL     1       6.468   6.220 -13.120  0.00  0.00    +0.019 A 
ATOM     20  N   UNL     1       6.083   5.370  -9.802  0.00  0.00    -0.227 NA
ENDBRANCH   5  11
BRANCH   2  21
ATOM     21  C   UNL     1       4.010   4.875  -4.615  0.00  0.00    +0.134 C 
BRANCH  21  22
ATOM     22  C   UNL     1       3.719   5.637  -3.372  0.00  0.00    +0.000 A 
ATOM     23  C   UNL     1       3.743   4.899  -2.195  0.00  0.00    -0.002 A 
ATOM     24  C   UNL     1       3.546   5.526  -0.976  0.00  0.00    -0.000 A 
ATOM     25  C   UNL     1       3.300   6.874  -0.897  0.00  0.00    +0.000 A 
ATOM     26  C   UNL     1       3.442   7.598  -2.073  0.00  0.00    -0.000 A 
ATOM     27  C   UNL     1       3.758   7.001  -3.282  0.00  0.00    -0.002 A 
BRANCH  25  28
ATOM     28  C   UNL     1       2.379   7.411   0.113  0.00  0.00    +0.006 A 
ATOM     29  C   UNL     1       2.855   7.925   1.303  0.00  0.00    +0.080 A 
ATOM     30  C   UNL     1       1.972   8.321   2.300  0.00  0.00    +0.007 A 
ATOM     31  C   UNL     1       0.634   7.990   2.220  0.00  0.00    +0.000 A 
ATOM     32  C   UNL     1       0.210   7.300   1.100  0.00  0.00    +0.000 A 
ATOM     33  C   UNL     1       1.012   7.329  -0.036  0.00  0.00    +0.000 A 
BRANCH  29  34
ATOM     34  C   UNL     1       4.265   7.888   1.637  0.00  0.00    +0.388 C 
ATOM     35  O   UNL     1       4.924   6.783   2.133  0.00  0.00    -0.241 OA
ATOM     36  O   UNL     1       4.955   8.928   1.441  0.00  0.00    -0.241 OA
ENDBRANCH  29  34
ENDBRANCH  25  28
ENDBRANCH  21  22
ENDBRANCH   2  21
BRANCH   1  37
ATOM     37  C   UNL     1       0.984   5.098  -3.830  0.00  0.00    +0.064 C 
BRANCH  37  39
ATOM     38  C   UNL     1      -1.116   5.815  -2.646  0.00  0.00    +0.000 C 
ATOM     39  C   UNL     1      -0.045   6.203  -3.645  0.00  0.00    +0.008 C 
ENDBRANCH  37  39
ENDBRANCH   1  37
TORSDOF 7
ENDMDL
MODEL 7
REMARK VINA RESULT:     -10.0      4.581     10.214
REMARK  Name = 
REMARK  7 active torsions:
REMARK  status: ('A' for Active; 'I' for Inactive)
REMARK    1  A    between atoms: C_2  and  C_3
REMARK    2  A    between atoms: C_3  and  C_4
REMARK    3  A    between atoms: C_9  and  C_10
REMARK    4  A    between atoms: N_23  and  C_24
REMARK    5  A    between atoms: C_24  and  C_25
REMARK    6  A    between atoms: C_28  and  C_29
REMARK    7  A    between atoms: C_34  and  C_35
REMARK                            x       y       z     vdW  Elec       q    Type
REMARK                         _______ _______ _______ _____ _____    ______ ____
ROOT
ATOM      1  C   UNL     1       1.807   6.145  -0.603  0.00  0.00    +0.121 A 
ATOM      2  N   UNL     1       2.890   6.838  -1.032  0.00  0.00    -0.311 N 
ATOM      3  C   UNL     1       2.864   8.023  -0.382  0.00  0.00    +0.079 A 
ATOM      4  C   UNL     1       3.814   9.001  -0.115  0.00  0.00    +0.022 A 
ATOM      5  C   UNL     1       3.406  10.184   0.484  0.00  0.00    +0.035 A 
ATOM      6  C   UNL     1       2.082  10.323   0.861  0.00  0.00    +0.000 A 
ATOM      7  C   UNL     1       1.177   9.271   0.800  0.00  0.00    -0.003 A 
ATOM      8  C   UNL     1       0.023   9.175   1.747  0.00  0.00    +0.033 C 
ATOM      9  C   UNL     1       1.675   8.060   0.335  0.00  0.00    +0.094 A 
ATOM     10  N   UNL     1       1.250   6.778   0.457  0.00  0.00    -0.231 NA
ENDROOT
BRANCH   5  11
ATOM     11  C   UNL     1       4.405  11.130   0.996  0.00  0.00    +0.144 A 
ATOM     12  N   UNL     1       4.980  12.173   0.386  0.00  0.00    -0.309 N 
ATOM     13  C   UNL     1       4.377  12.890  -0.709  0.00  0.00    +0.132 C 
ATOM     14  C   UNL     1       5.944  12.673   1.197  0.00  0.00    +0.079 A 
ATOM     15  C   UNL     1       6.134  11.754   2.220  0.00  0.00    +0.099 A 
ATOM     16  C   UNL     1       6.978  11.987   3.284  0.00  0.00    +0.021 A 
ATOM     17  C   UNL     1       7.942  12.964   3.108  0.00  0.00    +0.002 A 
ATOM     18  C   UNL     1       7.880  13.797   2.001  0.00  0.00    +0.002 A 
ATOM     19  C   UNL     1       6.726  13.798   1.225  0.00  0.00    +0.019 A 
ATOM     20  N   UNL     1       5.244  10.786   2.002  0.00  0.00    -0.227 NA
ENDBRANCH   5  11
BRANCH   2  21
ATOM     21  C   UNL     1       4.062   6.254  -1.667  0.00  0.00    +0.134 C 
BRANCH  21  22
ATOM     22  C   UNL     1       3.953   6.264  -3.150  0.00  0.00    +0.000 A 
ATOM     23  C   UNL     1       3.805   5.019  -3.749  0.00  0.00    -0.002 A 
ATOM     24  C   UNL     1       3.633   4.923  -5.121  0.00  0.00    -0.000 A 
ATOM     25  C   UNL     1       3.628   6.039  -5.919  0.00  0.00    +0.000 A 
ATOM     26  C   UNL     1       3.617   7.266  -5.270  0.00  0.00    -0.000 A 
ATOM     27  C   UNL     1       3.667   7.377  -3.890  0.00  0.00    -0.002 A 
BRANCH  25  28
ATOM     28  C   UNL     1       4.212   6.001  -7.266  0.00  0.00    +0.006 A 
ATOM     29  C   UNL     1       3.554   6.566  -8.340  0.00  0.00    +0.080 A 
ATOM     30  C   UNL     1       4.056   6.421  -9.628  0.00  0.00    +0.007 A 
ATOM     31  C   UNL     1       5.072   5.522  -9.885  0.00  0.00    +0.000 A 
ATOM     32  C   UNL     1       5.591   4.819  -8.814  0.00  0.00    +0.000 A 
ATOM     33  C   UNL     1       5.377   5.315  -7.533  0.00  0.00    +0.000 A 
BRANCH  29  34
ATOM     34  C   UNL     1       2.233   7.149  -8.201  0.00  0.00    +0.388 C 
ATOM     35  O   UNL     1       1.988   8.463  -7.868  0.00  0.00    -0.241 OA
ATOM     36  O   UNL     1       1.229   6.415  -8.424  0.00  0.00    -0.241 OA
ENDBRANCH  29  34
ENDBRANCH  25  28
ENDBRANCH  21  22
ENDBRANCH   2  21
BRANCH   1  37
ATOM     37  C   UNL     1       1.332   4.819  -1.110  0.00  0.00    +0.064 C 
BRANCH  37  39
ATOM     38  C   UNL     1       0.273   5.501  -3.287  0.00  0.00    +0.000 C 
ATOM     39  C   UNL     1       0.032   4.988  -1.882  0.00  0.00    +0.008 C 
ENDBRANCH  37  39
ENDBRANCH   1  37
TORSDOF 7
ENDMDL
MODEL 8
REMARK VINA RESULT:     -10.0      2.263      7.025
REMARK  Name = 
REMARK  7 active torsions:
REMARK  status: ('A' for Active; 'I' for Inactive)
REMARK    1  A    between atoms: C_2  and  C_3
REMARK    2  A    between atoms: C_3  and  C_4
REMARK    3  A    between atoms: C_9  and  C_10
REMARK    4  A    between atoms: N_23  and  C_24
REMARK    5  A    between atoms: C_24  and  C_25
REMARK    6  A    between atoms: C_28  and  C_29
REMARK    7  A    between atoms: C_34  and  C_35
REMARK                            x       y       z     vdW  Elec       q    Type
REMARK                         _______ _______ _______ _____ _____    ______ ____
ROOT
ATOM      1  C   UNL     1       4.740   5.703  -8.642  0.00  0.00    +0.121 A 
ATOM      2  N   UNL     1       4.460   5.948  -7.339  0.00  0.00    -0.311 N 
ATOM      3  C   UNL     1       3.131   6.187  -7.275  0.00  0.00    +0.079 A 
ATOM      4  C   UNL     1       2.192   6.164  -6.252  0.00  0.00    +0.022 A 
ATOM      5  C   UNL     1       0.902   6.599  -6.517  0.00  0.00    +0.035 A 
ATOM      6  C   UNL     1       0.573   6.973  -7.808  0.00  0.00    +0.000 A 
ATOM      7  C   UNL     1       1.439   6.790  -8.879  0.00  0.00    -0.003 A 
ATOM      8  C   UNL     1       0.931   6.557 -10.266  0.00  0.00    +0.033 C 
ATOM      9  C   UNL     1       2.665   6.207  -8.583  0.00  0.00    +0.094 A 
ATOM     10  N   UNL     1       3.587   5.561  -9.338  0.00  0.00    -0.231 NA
ENDROOT
BRANCH   5  11
ATOM     11  C   UNL     1      -0.167   6.366  -5.539  0.00  0.00    +0.144 A 
ATOM     12  N   UNL     1      -1.318   5.698  -5.678  0.00  0.00    -0.309 N 
ATOM     13  C   UNL     1      -1.518   4.647  -6.643  0.00  0.00    +0.132 C 
ATOM     14  C   UNL     1      -2.056   5.864  -4.554  0.00  0.00    +0.079 A 
ATOM     15  C   UNL     1      -1.449   6.867  -3.812  0.00  0.00    +0.099 A 
ATOM     16  C   UNL     1      -1.882   7.230  -2.555  0.00  0.00    +0.021 A 
ATOM     17  C   UNL     1      -3.174   6.870  -2.216  0.00  0.00    +0.002 A 
ATOM     18  C   UNL     1      -3.877   5.993  -3.029  0.00  0.00    +0.002 A 
ATOM     19  C   UNL     1      -3.194   5.309  -4.027  0.00  0.00    +0.019 A 
ATOM     20  N   UNL     1      -0.358   7.210  -4.496  0.00  0.00    -0.227 NA
ENDBRANCH   5  11
BRANCH   2  21
ATOM     21  C   UNL     1       5.299   5.562  -6.214  0.00  0.00    +0.134 C 
BRANCH  21  22
ATOM     22  C   UNL     1       4.707   5.975  -4.914  0.00  0.00    +0.000 A 
ATOM     23  C   UNL     1       4.542   4.961  -3.979  0.00  0.00    -0.002 A 
ATOM     24  C   UNL     1       4.056   5.252  -2.715  0.00  0.00    -0.000 A 
ATOM     25  C   UNL     1       3.706   6.531  -2.361  0.00  0.00    +0.000 A 
ATOM     26  C   UNL     1       4.034   7.534  -3.262  0.00  0.00    -0.000 A 
ATOM     27  C   UNL     1       4.632   7.271  -4.484  0.00  0.00    -0.002 A 
BRANCH  25  28
ATOM     28  C   UNL     1       2.562   6.777  -1.473  0.00  0.00    +0.006 A 
ATOM     29  C   UNL     1       2.676   7.630  -0.392  0.00  0.00    +0.080 A 
ATOM     30  C   UNL     1       1.627   7.764   0.510  0.00  0.00    +0.007 A 
ATOM     31  C   UNL     1       0.563   6.884   0.481  0.00  0.00    +0.000 A 
ATOM     32  C   UNL     1       0.564   5.910  -0.500  0.00  0.00    +0.000 A 
ATOM     33  C   UNL     1       1.373   6.096  -1.615  0.00  0.00    +0.000 A 
BRANCH  29  34
ATOM     34  C   UNL     1       3.938   8.253  -0.045  0.00  0.00    +0.388 C 
ATOM     35  O   UNL     1       5.021   7.587   0.487  0.00  0.00    -0.241 OA
ATOM     36  O   UNL     1       4.075   9.490  -0.264  0.00  0.00    -0.241 OA
ENDBRANCH  29  34
ENDBRANCH  25  28
ENDBRANCH  21  22
ENDBRANCH   2  21
BRANCH   1  37
ATOM     37  C   UNL     1       6.095   5.494  -9.245  0.00  0.00    +0.064 C 
BRANCH  37  39
ATOM     38  C   UNL     1       7.698   6.943 -10.531  0.00  0.00    +0.000 C 
ATOM     39  C   UNL     1       6.283   6.409 -10.444  0.00  0.00    +0.008 C 
ENDBRANCH  37  39
ENDBRANCH   1  37
TORSDOF 7
ENDMDL
MODEL 9
REMARK VINA RESULT:      -9.9      4.491     10.125
REMARK  Name = 
REMARK  7 active torsions:
REMARK  status: ('A' for Active; 'I' for Inactive)
REMARK    1  A    between atoms: C_2  and  C_3
REMARK    2  A    between atoms: C_3  and  C_4
REMARK    3  A    between atoms: C_9  and  C_10
REMARK    4  A    between atoms: N_23  and  C_24
REMARK    5  A    between atoms: C_24  and  C_25
REMARK    6  A    between atoms: C_28  and  C_29
REMARK    7  A    between atoms: C_34  and  C_35
REMARK                            x       y       z     vdW  Elec       q    Type
REMARK                         _______ _______ _______ _____ _____    ______ ____
ROOT
ATOM      1  C   UNL     1       1.929   6.266  -0.641  0.00  0.00    +0.121 A 
ATOM      2  N   UNL     1       2.908   7.030  -1.185  0.00  0.00    -0.311 N 
ATOM      3  C   UNL     1       2.869   8.215  -0.535  0.00  0.00    +0.079 A 
ATOM      4  C   UNL     1       3.771   9.259  -0.372  0.00  0.00    +0.022 A 
ATOM      5  C   UNL     1       3.348  10.415   0.268  0.00  0.00    +0.035 A 
ATOM      6  C   UNL     1       2.065  10.464   0.785  0.00  0.00    +0.000 A 
ATOM      7  C   UNL     1       1.235   9.351   0.822  0.00  0.00    -0.003 A 
ATOM      8  C   UNL     1       0.200   9.181   1.887  0.00  0.00    +0.033 C 
ATOM      9  C   UNL     1       1.765   8.174   0.306  0.00  0.00    +0.094 A 
ATOM     10  N   UNL     1       1.447   6.866   0.473  0.00  0.00    -0.231 NA
ENDROOT
BRANCH   5  11
ATOM     11  C   UNL     1       4.327  11.433   0.669  0.00  0.00    +0.144 A 
ATOM     12  N   UNL     1       4.850  12.438  -0.043  0.00  0.00    -0.309 N 
ATOM     13  C   UNL     1       4.195  13.038  -1.178  0.00  0.00    +0.132 C 
ATOM     14  C   UNL     1       5.817  13.035   0.695  0.00  0.00    +0.079 A 
ATOM     15  C   UNL     1       6.064  12.213   1.786  0.00  0.00    +0.099 A 
ATOM     16  C   UNL     1       6.927  12.563   2.801  0.00  0.00    +0.021 A 
ATOM     17  C   UNL     1       7.853  13.551   2.516  0.00  0.00    +0.002 A 
ATOM     18  C   UNL     1       7.733  14.284   1.345  0.00  0.00    +0.002 A 
ATOM     19  C   UNL     1       6.561  14.183   0.605  0.00  0.00    +0.019 A 
ATOM     20  N   UNL     1       5.202  11.203   1.676  0.00  0.00    -0.227 NA
ENDBRANCH   5  11
BRANCH   2  21
ATOM     21  C   UNL     1       4.044   6.524  -1.942  0.00  0.00    +0.134 C 
BRANCH  21  22
ATOM     22  C   UNL     1       3.669   6.177  -3.338  0.00  0.00    +0.000 A 
ATOM     23  C   UNL     1       3.422   7.254  -4.180  0.00  0.00    -0.002 A 
ATOM     24  C   UNL     1       3.125   7.039  -5.516  0.00  0.00    -0.000 A 
ATOM     25  C   UNL     1       3.044   5.772  -6.035  0.00  0.00    +0.000 A 
ATOM     26  C   UNL     1       3.452   4.736  -5.206  0.00  0.00    -0.000 A 
ATOM     27  C   UNL     1       3.868   4.947  -3.901  0.00  0.00    -0.002 A 
BRANCH  25  28
ATOM     28  C   UNL     1       2.057   5.447  -7.074  0.00  0.00    +0.006 A 
ATOM     29  C   UNL     1       2.425   5.380  -8.403  0.00  0.00    +0.080 A 
ATOM     30  C   UNL     1       1.464   5.191  -9.389  0.00  0.00    +0.007 A 
ATOM     31  C   UNL     1       0.122   5.307  -9.088  0.00  0.00    +0.000 A 
ATOM     32  C   UNL     1      -0.220   5.567  -7.774  0.00  0.00    +0.000 A 
ATOM     33  C   UNL     1       0.718   5.303  -6.783  0.00  0.00    +0.000 A 
BRANCH  29  34
ATOM     34  C   UNL     1       3.772   5.699  -8.837  0.00  0.00    +0.388 C 
ATOM     35  O   UNL     1       4.858   4.862  -8.700  0.00  0.00    -0.241 OA
ATOM     36  O   UNL     1       3.970   6.811  -9.404  0.00  0.00    -0.241 OA
ENDBRANCH  29  34
ENDBRANCH  25  28
ENDBRANCH  21  22
ENDBRANCH   2  21
BRANCH   1  37
ATOM     37  C   UNL     1       1.497   4.906  -1.094  0.00  0.00    +0.064 C 
BRANCH  37  39
ATOM     38  C   UNL     1       0.171   5.482  -3.152  0.00  0.00    +0.000 C 
ATOM     39  C   UNL     1       0.115   4.978  -1.725  0.00  0.00    +0.008 C 
ENDBRANCH  37  39
ENDBRANCH   1  37
TORSDOF 7
ENDMDL
