MODEL 1
REMARK VINA RESULT:      -8.2      0.000      0.000
REMARK  Name = 
REMARK  4 active torsions:
REMARK  status: ('A' for Active; 'I' for Inactive)
REMARK    1  A    between atoms: C_2  and  C_3
REMARK    2  A    between atoms: C_10  and  C_11
REMARK    3  A    between atoms: C_11  and  C_13
REMARK    4  A    between atoms: C_20  and  O_21
REMARK                            x       y       z     vdW  Elec       q    Type
REMARK                         _______ _______ _______ _____ _____    ______ ____
ROOT
ATOM      1  C   UNL     1       2.382   6.585  -4.594  0.00  0.00    +0.189 C 
ATOM      2  O   UNL     1       3.720   7.271  -4.417  0.00  0.00    -0.217 OA
ENDROOT
BRANCH   1   3
ATOM      3  C   UNL     1       2.352   5.835  -3.176  0.00  0.00    +0.012 A 
ATOM      4  C   UNL     1       1.237   5.763  -2.442  0.00  0.00    +0.019 A 
ATOM      5  C   UNL     1       1.359   5.669  -1.058  0.00  0.00    +0.081 A 
ATOM      6  C   UNL     1       0.334   6.281  -0.345  0.00  0.00    +0.022 A 
ATOM      7  C   UNL     1      -0.922   6.218  -0.947  0.00  0.00    +0.038 A 
ATOM      8  C   UNL     1      -1.086   5.700  -2.230  0.00  0.00    +0.139 A 
ATOM      9  N   UNL     1       2.564   5.384  -0.578  0.00  0.00    -0.244 NA
ATOM     10  C   UNL     1       3.443   4.790  -1.428  0.00  0.00    +0.099 A 
ATOM     11  C   UNL     1       0.006   5.821  -3.087  0.00  0.00    +0.038 A 
ATOM     12  C   UNL     1       3.486   5.212  -2.757  0.00  0.00    +0.019 A 
BRANCH   8  13
ATOM     13  O   UNL     1      -2.159   4.837  -2.494  0.00  0.00    -0.471 OA
ATOM     14  C   UNL     1      -3.180   5.201  -3.422  0.00  0.00    +0.252 C 
ENDBRANCH   8  13
ENDBRANCH   1   3
BRANCH   1  18
ATOM     15  C   UNL     1       1.892   6.591  -7.791  0.00  0.00    +0.038 C 
ATOM     16  C   UNL     1       2.724   5.337  -7.023  0.00  0.00    +0.008 C 
ATOM     17  C   UNL     1       3.989   6.099  -6.469  0.00  0.00    +0.019 C 
ATOM     18  C   UNL     1       3.135   5.226  -5.312  0.00  0.00    +0.092 C 
ATOM     19  N   UNL     1       1.805   4.800  -6.043  0.00  0.00    -0.271 NA
ATOM     20  C   UNL     1       2.160   3.828  -7.117  0.00  0.00    +0.072 C 
ATOM     21  C   UNL     1       3.169   4.408  -8.218  0.00  0.00    +0.018 C 
ATOM     22  C   UNL     1       1.030   5.983  -6.499  0.00  0.00    +0.076 C 
BRANCH  15  24
ATOM     23  C   UNL     1       0.659   6.421  -9.775  0.00  0.00    -0.005 C 
ATOM     24  C   UNL     1       1.161   5.617  -8.848  0.00  0.00    -0.025 C 
ENDBRANCH  15  24
ENDBRANCH   1  18
TORSDOF 4
ENDMDL
MODEL 2
REMARK VINA RESULT:      -8.1      2.153      5.125
REMARK  Name = 
REMARK  4 active torsions:
REMARK  status: ('A' for Active; 'I' for Inactive)
REMARK    1  A    between atoms: C_2  and  C_3
REMARK    2  A    between atoms: C_10  and  C_11
REMARK    3  A    between atoms: C_11  and  C_13
REMARK    4  A    between atoms: C_20  and  O_21
REMARK                            x       y       z     vdW  Elec       q    Type
REMARK                         _______ _______ _______ _____ _____    ______ ____
ROOT
ATOM      1  C   UNL     1       2.248   4.887  -4.912  0.00  0.00    +0.189 C 
ATOM      2  O   UNL     1       2.916   3.809  -5.740  0.00  0.00    -0.217 OA
ENDROOT
BRANCH   1   3
ATOM      3  C   UNL     1       1.281   5.452  -6.061  0.00  0.00    +0.012 A 
ATOM      4  C   UNL     1       0.003   5.758  -5.817  0.00  0.00    +0.019 A 
ATOM      5  C   UNL     1      -0.915   5.658  -6.860  0.00  0.00    +0.081 A 
ATOM      6  C   UNL     1      -2.197   5.289  -6.469  0.00  0.00    +0.022 A 
ATOM      7  C   UNL     1      -2.597   5.775  -5.225  0.00  0.00    +0.038 A 
ATOM      8  C   UNL     1      -1.709   6.459  -4.395  0.00  0.00    +0.139 A 
ATOM      9  N   UNL     1      -0.420   5.531  -8.086  0.00  0.00    -0.244 NA
ATOM     10  C   UNL     1       0.862   5.940  -8.280  0.00  0.00    +0.099 A 
ATOM     11  C   UNL     1      -0.363   6.126  -4.527  0.00  0.00    +0.038 A 
ATOM     12  C   UNL     1       1.812   5.674  -7.293  0.00  0.00    +0.019 A 
BRANCH   8  13
ATOM     13  O   UNL     1      -2.139   7.616  -3.730  0.00  0.00    -0.471 OA
ATOM     14  C   UNL     1      -2.221   7.654  -2.306  0.00  0.00    +0.252 C 
ENDBRANCH   8  13
ENDBRANCH   1   3
BRANCH   1  18
ATOM     15  C   UNL     1       4.181   5.501  -2.393  0.00  0.00    +0.038 C 
ATOM     16  C   UNL     1       4.371   6.295  -3.871  0.00  0.00    +0.008 C 
ATOM     17  C   UNL     1       4.754   5.095  -4.821  0.00  0.00    +0.019 C 
ATOM     18  C   UNL     1       3.454   6.020  -5.352  0.00  0.00    +0.092 C 
ATOM     19  N   UNL     1       3.108   6.952  -4.129  0.00  0.00    -0.271 NA
ATOM     20  C   UNL     1       4.241   7.903  -3.939  0.00  0.00    +0.072 C 
ATOM     21  C   UNL     1       5.648   7.194  -3.643  0.00  0.00    +0.018 C 
ATOM     22  C   UNL     1       2.745   6.161  -2.925  0.00  0.00    +0.076 C 
BRANCH  15  24
ATOM     23  C   UNL     1       4.275   6.465  -0.260  0.00  0.00    -0.005 C 
ATOM     24  C   UNL     1       4.552   6.801  -1.513  0.00  0.00    -0.025 C 
ENDBRANCH  15  24
ENDBRANCH   1  18
TORSDOF 4
ENDMDL
MODEL 3
REMARK VINA RESULT:      -7.9      4.386      9.209
REMARK  Name = 
REMARK  4 active torsions:
REMARK  status: ('A' for Active; 'I' for Inactive)
REMARK    1  A    between atoms: C_2  and  C_3
REMARK    2  A    between atoms: C_10  and  C_11
REMARK    3  A    between atoms: C_11  and  C_13
REMARK    4  A    between atoms: C_20  and  O_21
REMARK                            x       y       z     vdW  Elec       q    Type
REMARK                         _______ _______ _______ _____ _____    ______ ____
ROOT
ATOM      1  C   UNL     1       1.875   6.484 -10.442  0.00  0.00    +0.189 C 
ATOM      2  O   UNL     1       0.436   6.943 -10.549  0.00  0.00    -0.217 OA
ENDROOT
BRANCH   1   3
ATOM      3  C   UNL     1       1.942   5.705 -11.843  0.00  0.00    +0.012 A 
ATOM      4  C   UNL     1       3.065   5.652 -12.566  0.00  0.00    +0.019 A 
ATOM      5  C   UNL     1       2.959   5.524 -13.949  0.00  0.00    +0.081 A 
ATOM      6  C   UNL     1       3.972   6.152 -14.666  0.00  0.00    +0.022 A 
ATOM      7  C   UNL     1       5.223   6.141 -14.052  0.00  0.00    +0.038 A 
ATOM      8  C   UNL     1       5.390   5.656 -12.756  0.00  0.00    +0.139 A 
ATOM      9  N   UNL     1       1.768   5.192 -14.433  0.00  0.00    -0.244 NA
ATOM     10  C   UNL     1       0.899   4.590 -13.578  0.00  0.00    +0.099 A 
ATOM     11  C   UNL     1       4.287   5.762 -11.913  0.00  0.00    +0.038 A 
ATOM     12  C   UNL     1       0.831   5.038 -12.259  0.00  0.00    +0.019 A 
BRANCH   8  13
ATOM     13  O   UNL     1       6.487   4.833 -12.465  0.00  0.00    -0.471 OA
ATOM     14  C   UNL     1       7.810   5.367 -12.411  0.00  0.00    +0.252 C 
ENDBRANCH   8  13
ENDBRANCH   1   3
BRANCH   1  18
ATOM     15  C   UNL     1       2.225   6.796  -7.243  0.00  0.00    +0.038 C 
ATOM     16  C   UNL     1       1.704   5.349  -7.941  0.00  0.00    +0.008 C 
ATOM     17  C   UNL     1       0.331   5.790  -8.580  0.00  0.00    +0.019 C 
ATOM     18  C   UNL     1       1.394   5.045  -9.650  0.00  0.00    +0.092 C 
ATOM     19  N   UNL     1       2.753   4.957  -8.857  0.00  0.00    -0.271 NA
ATOM     20  C   UNL     1       2.566   4.001  -7.727  0.00  0.00    +0.072 C 
ATOM     21  C   UNL     1       1.415   4.425  -6.695  0.00  0.00    +0.018 C 
ATOM     22  C   UNL     1       3.245   6.303  -8.466  0.00  0.00    +0.076 C 
BRANCH  15  24
ATOM     23  C   UNL     1       3.807   7.034  -5.532  0.00  0.00    -0.005 C 
ATOM     24  C   UNL     1       3.101   6.067  -6.101  0.00  0.00    -0.025 C 
ENDBRANCH  15  24
ENDBRANCH   1  18
TORSDOF 4
ENDMDL
MODEL 4
REMARK VINA RESULT:      -7.9      2.237      4.088
REMARK  Name = 
REMARK  4 active torsions:
REMARK  status: ('A' for Active; 'I' for Inactive)
REMARK    1  A    between atoms: C_2  and  C_3
REMARK    2  A    between atoms: C_10  and  C_11
REMARK    3  A    between atoms: C_11  and  C_13
REMARK    4  A    between atoms: C_20  and  O_21
REMARK                            x       y       z     vdW  Elec       q    Type
REMARK                         _______ _______ _______ _____ _____    ______ ____
ROOT
ATOM      1  C   UNL     1       2.669   4.540  -6.145  0.00  0.00    +0.189 C 
ATOM      2  O   UNL     1       1.985   3.209  -6.376  0.00  0.00    -0.217 OA
ENDROOT
BRANCH   1   3
ATOM      3  C   UNL     1       1.504   5.216  -5.274  0.00  0.00    +0.012 A 
ATOM      4  C   UNL     1       1.759   5.834  -4.117  0.00  0.00    +0.019 A 
ATOM      5  C   UNL     1       0.760   5.865  -3.146  0.00  0.00    +0.081 A 
ATOM      6  C   UNL     1       1.227   5.844  -1.836  0.00  0.00    +0.022 A 
ATOM      7  C   UNL     1       2.431   6.515  -1.628  0.00  0.00    +0.038 A 
ATOM      8  C   UNL     1       3.162   7.039  -2.694  0.00  0.00    +0.139 A 
ATOM      9  N   UNL     1      -0.463   5.521  -3.531  0.00  0.00    -0.244 NA
ATOM     10  C   UNL     1      -0.738   5.597  -4.860  0.00  0.00    +0.099 A 
ATOM     11  C   UNL     1       3.019   6.388  -3.917  0.00  0.00    +0.038 A 
ATOM     12  C   UNL     1       0.239   5.200  -5.774  0.00  0.00    +0.019 A 
BRANCH   8  13
ATOM     13  O   UNL     1       3.727   8.317  -2.581  0.00  0.00    -0.471 OA
ATOM     14  C   UNL     1       3.701   9.022  -1.340  0.00  0.00    +0.252 C 
ENDBRANCH   8  13
ENDBRANCH   1   3
BRANCH   1  18
ATOM     15  C   UNL     1       4.907   4.704  -8.474  0.00  0.00    +0.038 C 
ATOM     16  C   UNL     1       3.333   5.266  -8.715  0.00  0.00    +0.008 C 
ATOM     17  C   UNL     1       2.504   3.931  -8.581  0.00  0.00    +0.019 C 
ATOM     18  C   UNL     1       1.987   5.179  -7.578  0.00  0.00    +0.092 C 
ATOM     19  N   UNL     1       3.116   6.273  -7.699  0.00  0.00    -0.271 NA
ATOM     20  C   UNL     1       3.085   6.817  -9.087  0.00  0.00    +0.072 C 
ATOM     21  C   UNL     1       3.333   5.718 -10.227  0.00  0.00    +0.018 C 
ATOM     22  C   UNL     1       4.435   5.746  -7.261  0.00  0.00    +0.076 C 
BRANCH  15  24
ATOM     23  C   UNL     1       6.891   5.647  -9.287  0.00  0.00    -0.005 C 
ATOM     24  C   UNL     1       5.587   5.883  -9.340  0.00  0.00    -0.025 C 
ENDBRANCH  15  24
ENDBRANCH   1  18
TORSDOF 4
ENDMDL
MODEL 5
REMARK VINA RESULT:      -7.9      3.636      7.892
REMARK  Name = 
REMARK  4 active torsions:
REMARK  status: ('A' for Active; 'I' for Inactive)
REMARK    1  A    between atoms: C_2  and  C_3
REMARK    2  A    between atoms: C_10  and  C_11
REMARK    3  A    between atoms: C_11  and  C_13
REMARK    4  A    between atoms: C_20  and  O_21
REMARK                            x       y       z     vdW  Elec       q    Type
REMARK                         _______ _______ _______ _____ _____    ______ ____
ROOT
ATOM      1  C   UNL     1       2.008   4.573  -9.046  0.00  0.00    +0.189 C 
ATOM      2  O   UNL     1       2.821   3.370  -8.618  0.00  0.00    -0.217 OA
ENDROOT
BRANCH   1   3
ATOM      3  C   UNL     1       3.128   5.253  -9.972  0.00  0.00    +0.012 A 
ATOM      4  C   UNL     1       2.853   5.688 -11.206  0.00  0.00    +0.019 A 
ATOM      5  C   UNL     1       3.877   5.700 -12.150  0.00  0.00    +0.081 A 
ATOM      6  C   UNL     1       3.463   5.463 -13.455  0.00  0.00    +0.022 A 
ATOM      7  C   UNL     1       2.204   5.970 -13.776  0.00  0.00    +0.038 A 
ATOM      8  C   UNL     1       1.385   6.544 -12.805  0.00  0.00    +0.139 A 
ATOM      9  N   UNL     1       5.115   5.540 -11.696  0.00  0.00    -0.244 NA
ATOM     10  C   UNL     1       5.332   5.814 -10.382  0.00  0.00    +0.099 A 
ATOM     11  C   UNL     1       1.551   6.074 -11.504  0.00  0.00    +0.038 A 
ATOM     12  C   UNL     1       4.369   5.435  -9.446  0.00  0.00    +0.019 A 
BRANCH   8  13
ATOM     13  O   UNL     1       0.697   7.730 -13.097  0.00  0.00    -0.471 OA
ATOM     14  C   UNL     1       0.709   8.279 -14.414  0.00  0.00    +0.252 C 
ENDBRANCH   8  13
ENDBRANCH   1   3
BRANCH   1  18
ATOM     15  C   UNL     1      -0.321   4.781  -6.811  0.00  0.00    +0.038 C 
ATOM     16  C   UNL     1       1.171   5.549  -6.613  0.00  0.00    +0.008 C 
ATOM     17  C   UNL     1       2.149   4.313  -6.547  0.00  0.00    +0.019 C 
ATOM     18  C   UNL     1       2.559   5.470  -7.697  0.00  0.00    +0.092 C 
ATOM     19  N   UNL     1       1.312   6.431  -7.751  0.00  0.00    -0.271 NA
ATOM     20  C   UNL     1       1.230   7.153  -6.448  0.00  0.00    +0.072 C 
ATOM     21  C   UNL     1       1.063   6.192  -5.176  0.00  0.00    +0.018 C 
ATOM     22  C   UNL     1       0.078   5.703  -8.143  0.00  0.00    +0.076 C 
BRANCH  15  24
ATOM     23  C   UNL     1      -2.430   5.711  -6.398  0.00  0.00    -0.005 C 
ATOM     24  C   UNL     1      -1.160   5.977  -6.127  0.00  0.00    -0.025 C 
ENDBRANCH  15  24
ENDBRANCH   1  18
TORSDOF 4
ENDMDL
MODEL 6
REMARK VINA RESULT:      -7.8      2.389      4.956
REMARK  Name = 
REMARK  4 active torsions:
REMARK  status: ('A' for Active; 'I' for Inactive)
REMARK    1  A    between atoms: C_2  and  C_3
REMARK    2  A    between atoms: C_10  and  C_11
REMARK    3  A    between atoms: C_11  and  C_13
REMARK    4  A    between atoms: C_20  and  O_21
REMARK                            x       y       z     vdW  Elec       q    Type
REMARK                         _______ _______ _______ _____ _____    ______ ____
ROOT
ATOM      1  C   UNL     1      -0.558   5.444  -2.283  0.00  0.00    +0.189 C 
ATOM      2  O   UNL     1      -1.493   5.253  -1.108  0.00  0.00    -0.217 OA
ENDROOT
BRANCH   1   3
ATOM      3  C   UNL     1       0.632   6.159  -1.480  0.00  0.00    +0.012 A 
ATOM      4  C   UNL     1       1.912   6.005  -1.833  0.00  0.00    +0.019 A 
ATOM      5  C   UNL     1       2.890   6.108  -0.846  0.00  0.00    +0.081 A 
ATOM      6  C   UNL     1       4.004   5.301  -1.051  0.00  0.00    +0.022 A 
ATOM      7  C   UNL     1       4.366   5.124  -2.386  0.00  0.00    +0.038 A 
ATOM      8  C   UNL     1       3.574   5.613  -3.423  0.00  0.00    +0.139 A 
ATOM      9  N   UNL     1       2.515   6.617   0.322  0.00  0.00    -0.244 NA
ATOM     10  C   UNL     1       1.390   7.379   0.331  0.00  0.00    +0.099 A 
ATOM     11  C   UNL     1       2.210   5.715  -3.160  0.00  0.00    +0.038 A 
ATOM     12  C   UNL     1       0.303   6.987  -0.451  0.00  0.00    +0.019 A 
BRANCH   8  13
ATOM     13  O   UNL     1       4.182   6.252  -4.512  0.00  0.00    -0.471 OA
ATOM     14  C   UNL     1       4.851   7.502  -4.348  0.00  0.00    +0.252 C 
ENDBRANCH   8  13
ENDBRANCH   1   3
BRANCH   1  18
ATOM     15  C   UNL     1      -2.317   5.272  -4.992  0.00  0.00    +0.038 C 
ATOM     16  C   UNL     1      -2.114   6.726  -4.156  0.00  0.00    +0.008 C 
ATOM     17  C   UNL     1      -2.830   6.399  -2.789  0.00  0.00    +0.019 C 
ATOM     18  C   UNL     1      -1.254   6.967  -2.635  0.00  0.00    +0.092 C 
ATOM     19  N   UNL     1      -0.687   6.953  -4.106  0.00  0.00    -0.271 NA
ATOM     20  C   UNL     1      -1.423   7.984  -4.893  0.00  0.00    +0.072 C 
ATOM     21  C   UNL     1      -3.005   7.743  -4.969  0.00  0.00    +0.018 C 
ATOM     22  C   UNL     1      -0.708   5.586  -4.686  0.00  0.00    +0.076 C 
BRANCH  15  24
ATOM     23  C   UNL     1      -1.401   5.243  -7.147  0.00  0.00    -0.005 C 
ATOM     24  C   UNL     1      -2.265   5.966  -6.447  0.00  0.00    -0.025 C 
ENDBRANCH  15  24
ENDBRANCH   1  18
TORSDOF 4
ENDMDL
MODEL 7
REMARK VINA RESULT:      -7.5      3.969      6.502
REMARK  Name = 
REMARK  4 active torsions:
REMARK  status: ('A' for Active; 'I' for Inactive)
REMARK    1  A    between atoms: C_2  and  C_3
REMARK    2  A    between atoms: C_10  and  C_11
REMARK    3  A    between atoms: C_11  and  C_13
REMARK    4  A    between atoms: C_20  and  O_21
REMARK                            x       y       z     vdW  Elec       q    Type
REMARK                         _______ _______ _______ _____ _____    ______ ____
ROOT
ATOM      1  C   UNL     1       4.678   5.372  -9.261  0.00  0.00    +0.189 C 
ATOM      2  O   UNL     1       3.787   4.398 -10.004  0.00  0.00    -0.217 OA
ENDROOT
BRANCH   1   3
ATOM      3  C   UNL     1       3.528   6.063  -8.381  0.00  0.00    +0.012 A 
ATOM      4  C   UNL     1       3.499   5.953  -7.049  0.00  0.00    +0.019 A 
ATOM      5  C   UNL     1       2.266   6.018  -6.404  0.00  0.00    +0.081 A 
ATOM      6  C   UNL     1       2.176   5.245  -5.252  0.00  0.00    +0.022 A 
ATOM      7  C   UNL     1       3.353   5.149  -4.512  0.00  0.00    +0.038 A 
ATOM      8  C   UNL     1       4.552   5.681  -4.985  0.00  0.00    +0.139 A 
ATOM      9  N   UNL     1       1.236   6.455  -7.119  0.00  0.00    -0.244 NA
ATOM     10  C   UNL     1       1.519   7.194  -8.224  0.00  0.00    +0.099 A 
ATOM     11  C   UNL     1       4.694   5.743  -6.369  0.00  0.00    +0.038 A 
ATOM     12  C   UNL     1       2.602   6.826  -9.022  0.00  0.00    +0.019 A 
BRANCH   8  13
ATOM     13  O   UNL     1       5.384   6.391  -4.108  0.00  0.00    -0.471 OA
ATOM     14  C   UNL     1       4.997   7.669  -3.604  0.00  0.00    +0.252 C 
ENDBRANCH   8  13
ENDBRANCH   1   3
BRANCH   1  18
ATOM     15  C   UNL     1       7.221   5.376 -11.258  0.00  0.00    +0.038 C 
ATOM     16  C   UNL     1       5.951   6.474 -11.437  0.00  0.00    +0.008 C 
ATOM     17  C   UNL     1       4.751   5.507 -11.773  0.00  0.00    +0.019 C 
ATOM     18  C   UNL     1       4.469   6.550 -10.484  0.00  0.00    +0.092 C 
ATOM     19  N   UNL     1       5.876   7.195 -10.185  0.00  0.00    -0.271 NA
ATOM     20  C   UNL     1       6.243   8.059 -11.345  0.00  0.00    +0.072 C 
ATOM     21  C   UNL     1       6.340   7.276 -12.740  0.00  0.00    +0.018 C 
ATOM     22  C   UNL     1       6.884   6.164  -9.827  0.00  0.00    +0.076 C 
BRANCH  15  24
ATOM     23  C   UNL     1       9.328   5.720 -12.221  0.00  0.00    -0.005 C 
ATOM     24  C   UNL     1       8.357   6.441 -11.677  0.00  0.00    -0.025 C 
ENDBRANCH  15  24
ENDBRANCH   1  18
TORSDOF 4
ENDMDL
MODEL 8
REMARK VINA RESULT:      -7.4      2.337      5.944
REMARK  Name = 
REMARK  4 active torsions:
REMARK  status: ('A' for Active; 'I' for Inactive)
REMARK    1  A    between atoms: C_2  and  C_3
REMARK    2  A    between atoms: C_10  and  C_11
REMARK    3  A    between atoms: C_11  and  C_13
REMARK    4  A    between atoms: C_20  and  O_21
REMARK                            x       y       z     vdW  Elec       q    Type
REMARK                         _______ _______ _______ _____ _____    ______ ____
ROOT
ATOM      1  C   UNL     1       0.207   6.844  -4.468  0.00  0.00    +0.189 C 
ATOM      2  O   UNL     1      -0.057   7.482  -5.816  0.00  0.00    -0.217 OA
ENDROOT
BRANCH   1   3
ATOM      3  C   UNL     1       1.102   5.622  -4.997  0.00  0.00    +0.012 A 
ATOM      4  C   UNL     1       2.346   5.417  -4.553  0.00  0.00    +0.019 A 
ATOM      5  C   UNL     1       3.258   4.790  -5.399  0.00  0.00    +0.081 A 
ATOM      6  C   UNL     1       4.575   5.209  -5.242  0.00  0.00    +0.022 A 
ATOM      7  C   UNL     1       4.937   5.539  -3.937  0.00  0.00    +0.038 A 
ATOM      8  C   UNL     1       3.995   5.571  -2.910  0.00  0.00    +0.139 A 
ATOM      9  N   UNL     1       2.765   4.195  -6.479  0.00  0.00    -0.244 NA
ATOM     10  C   UNL     1       1.447   3.863  -6.455  0.00  0.00    +0.099 A 
ATOM     11  C   UNL     1       2.687   5.870  -3.284  0.00  0.00    +0.038 A 
ATOM     12  C   UNL     1       0.539   4.749  -5.875  0.00  0.00    +0.019 A 
BRANCH   8  13
ATOM     13  O   UNL     1       4.316   5.017  -1.663  0.00  0.00    -0.471 OA
ATOM     14  C   UNL     1       3.427   4.107  -1.016  0.00  0.00    +0.252 C 
ENDBRANCH   8  13
ENDBRANCH   1   3
BRANCH   1  18
ATOM     15  C   UNL     1      -1.964   7.726  -2.240  0.00  0.00    +0.038 C 
ATOM     16  C   UNL     1      -2.249   6.438  -3.295  0.00  0.00    +0.008 C 
ATOM     17  C   UNL     1      -2.277   7.180  -4.687  0.00  0.00    +0.019 C 
ATOM     18  C   UNL     1      -1.205   5.887  -4.605  0.00  0.00    +0.092 C 
ATOM     19  N   UNL     1      -1.166   5.505  -3.076  0.00  0.00    -0.271 NA
ATOM     20  C   UNL     1      -2.503   4.958  -2.703  0.00  0.00    +0.072 C 
ATOM     21  C   UNL     1      -3.715   5.982  -2.929  0.00  0.00    +0.018 C 
ATOM     22  C   UNL     1      -0.697   6.641  -2.241  0.00  0.00    +0.076 C 
BRANCH  15  24
ATOM     23  C   UNL     1      -2.037   7.446   0.085  0.00  0.00    -0.005 C 
ATOM     24  C   UNL     1      -2.687   7.012  -0.987  0.00  0.00    -0.025 C 
ENDBRANCH  15  24
ENDBRANCH   1  18
TORSDOF 4
ENDMDL
MODEL 9
REMARK VINA RESULT:      -7.3      2.025      3.923
REMARK  Name = 
REMARK  4 active torsions:
REMARK  status: ('A' for Active; 'I' for Inactive)
REMARK    1  A    between atoms: C_2  and  C_3
REMARK    2  A    between atoms: C_10  and  C_11
REMARK    3  A    between atoms: C_11  and  C_13
REMARK    4  A    between atoms: C_20  and  O_21
REMARK                            x       y       z     vdW  Elec       q    Type
REMARK                         _______ _______ _______ _____ _____    ______ ____
ROOT
ATOM      1  C   UNL     1       0.305   5.053  -6.015  0.00  0.00    +0.189 C 
ATOM      2  O   UNL     1      -0.938   4.516  -6.693  0.00  0.00    -0.217 OA
ENDROOT
BRANCH   1   3
ATOM      3  C   UNL     1      -0.438   5.902  -4.875  0.00  0.00    +0.012 A 
ATOM      4  C   UNL     1       0.031   5.965  -3.625  0.00  0.00    +0.019 A 
ATOM      5  C   UNL     1      -0.874   6.167  -2.586  0.00  0.00    +0.081 A 
ATOM      6  C   UNL     1      -0.526   5.552  -1.388  0.00  0.00    +0.022 A 
ATOM      7  C   UNL     1       0.843   5.498  -1.129  0.00  0.00    +0.038 A 
ATOM      8  C   UNL     1       1.777   5.911  -2.079  0.00  0.00    +0.139 A 
ATOM      9  N   UNL     1      -2.099   6.555  -2.922  0.00  0.00    -0.244 NA
ATOM     10  C   UNL     1      -2.251   7.134  -4.142  0.00  0.00    +0.099 A 
ATOM     11  C   UNL     1       1.394   5.789  -3.412  0.00  0.00    +0.038 A 
ATOM     12  C   UNL     1      -1.540   6.618  -5.227  0.00  0.00    +0.019 A 
BRANCH   8  13
ATOM     13  O   UNL     1       2.872   6.689  -1.676  0.00  0.00    -0.471 OA
ATOM     14  C   UNL     1       3.535   7.552  -2.598  0.00  0.00    +0.252 C 
ENDBRANCH   8  13
ENDBRANCH   1   3
BRANCH   1  18
ATOM     15  C   UNL     1       2.683   4.794  -8.192  0.00  0.00    +0.038 C 
ATOM     16  C   UNL     1       1.695   6.161  -8.116  0.00  0.00    +0.008 C 
ATOM     17  C   UNL     1       0.288   5.548  -8.483  0.00  0.00    +0.019 C 
ATOM     18  C   UNL     1       0.318   6.420  -7.045  0.00  0.00    +0.092 C 
ATOM     19  N   UNL     1       1.849   6.683  -6.776  0.00  0.00    -0.271 NA
ATOM     20  C   UNL     1       2.350   7.609  -7.832  0.00  0.00    +0.072 C 
ATOM     21  C   UNL     1       2.197   7.044  -9.324  0.00  0.00    +0.018 C 
ATOM     22  C   UNL     1       2.606   5.411  -6.645  0.00  0.00    +0.076 C 
BRANCH  15  24
ATOM     23  C   UNL     1       4.990   5.041  -7.876  0.00  0.00    -0.005 C 
ATOM     24  C   UNL     1       4.014   5.631  -8.552  0.00  0.00    -0.025 C 
ENDBRANCH  15  24
ENDBRANCH   1  18
TORSDOF 4
ENDMDL
