MODEL 1
REMARK VINA RESULT:     -11.5      0.000      0.000
REMARK  Name = 
REMARK  8 active torsions:
REMARK  status: ('A' for Active; 'I' for Inactive)
REMARK    1  A    between atoms: O_2  and  C_3
REMARK    2  A    between atoms: C_7  and  O_8
REMARK    3  A    between atoms: O_8  and  C_9
REMARK    4  A    between atoms: C_15  and  C_16
REMARK    5  A    between atoms: N_18  and  S_19
REMARK    6  A    between atoms: S_19  and  C_22
REMARK    7  A    between atoms: C_40  and  C_41
REMARK    8  A    between atoms: C_43  and  C_44
REMARK                            x       y       z     vdW  Elec       q    Type
REMARK                         _______ _______ _______ _____ _____    ______ ____
ROOT
ATOM      1  C   UNL     1       1.697   5.696  -6.683  0.00  0.00    +0.167 C 
ATOM      2  C   UNL     1       0.960   6.986  -5.996  0.00  0.00    +0.053 C 
ATOM      3  C   UNL     1       0.539   6.572  -4.497  0.00  0.00    +0.089 C 
ATOM      4  C   UNL     1       1.291   5.019  -4.430  0.00  0.00    +0.090 C 
ATOM      5  C   UNL     1       2.767   5.517  -4.867  0.00  0.00    +0.242 C 
ATOM      6  N   UNL     1       3.392   6.082  -3.764  0.00  0.00    -0.200 NA
ATOM      7  C   UNL     1       3.015   6.524  -2.530  0.00  0.00    +0.154 C 
ATOM      8  C   UNL     1       1.976   5.433  -1.811  0.00  0.00    +0.051 C 
ATOM      9  C   UNL     1       1.657   6.424  -0.490  0.00  0.00    -0.029 C 
ATOM     10  C   UNL     1       0.387   6.783  -0.569  0.00  0.00    -0.031 C 
ATOM     11  C   UNL     1      -0.584   5.647  -0.705  0.00  0.00    +0.026 C 
ATOM     12  C   UNL     1      -1.963   6.129  -0.311  0.00  0.00    +0.006 C 
ATOM     13  C   UNL     1      -2.703   6.438  -1.607  0.00  0.00    +0.022 C 
ATOM     14  C   UNL     1      -1.659   6.804  -2.641  0.00  0.00    +0.093 C 
ATOM     15  N   UNL     1      -1.807   5.894  -3.777  0.00  0.00    -0.278 N 
ATOM     16  C   UNL     1      -3.138   5.386  -4.041  0.00  0.00    +0.115 C 
ATOM     17  C   UNL     1       3.626   5.364  -1.464  0.00  0.00    +0.036 C 
ATOM     18  O   UNL     1       3.389   4.500  -5.325  0.00  0.00    -0.273 OA
ATOM     19  C   UNL     1      -0.897   5.923  -4.886  0.00  0.00    +0.226 C 
ATOM     20  O   UNL     1      -1.361   6.118  -6.003  0.00  0.00    -0.275 OA
ATOM     21  C   UNL     1       0.699   4.618  -5.903  0.00  0.00    +0.053 C 
ENDROOT
BRANCH   7  22
ATOM     22  C   UNL     1       3.150   7.803  -1.910  0.00  0.00    +0.280 C 
ATOM     23  N   UNL     1       3.180   8.069  -0.499  0.00  0.00    -0.062 NA
ATOM     24  O   UNL     1       3.849   8.647  -2.552  0.00  0.00    -0.270 OA
BRANCH  23  25
ATOM     25  S   UNL     1       3.569   9.596   0.167  0.00  0.00    +0.074 S 
ATOM     26  O   UNL     1       4.986   9.524   0.693  0.00  0.00    -0.153 OA
ATOM     27  O   UNL     1       3.599  10.692  -0.876  0.00  0.00    -0.153 OA
BRANCH  25  28
ATOM     28  C   UNL     1       2.491  10.021   1.519  0.00  0.00    +0.151 C 
ATOM     29  C   UNL     1       0.998   9.923   1.098  0.00  0.00    +0.027 C 
ATOM     30  C   UNL     1       1.590   8.935   2.083  0.00  0.00    +0.027 C 
ENDBRANCH  25  28
ENDBRANCH  23  25
ENDBRANCH   7  22
BRANCH   1  31
ATOM     31  O   UNL     1       0.764   5.757  -7.945  0.00  0.00    -0.479 OA
BRANCH  31  37
ATOM     32  C   UNL     1       0.709   4.916 -12.882  0.00  0.00    +0.136 A 
ATOM     33  C   UNL     1       1.454   6.070 -12.662  0.00  0.00    +0.030 A 
ATOM     34  C   UNL     1       2.407   6.434 -13.758  0.00  0.00    +0.036 C 
ATOM     35  C   UNL     1       1.807   6.492 -11.384  0.00  0.00    +0.083 A 
ATOM     36  C   UNL     1       0.960   6.100 -10.352  0.00  0.00    +0.052 A 
ATOM     37  C   UNL     1       1.451   6.259  -9.058  0.00  0.00    +0.141 A 
ATOM     38  C   UNL     1       2.823   6.395  -8.855  0.00  0.00    +0.058 A 
ATOM     39  C   UNL     1       3.696   6.548  -9.930  0.00  0.00    +0.108 A 
ATOM     40  C   UNL     1      -0.012   5.138 -10.603  0.00  0.00    +0.008 A 
ATOM     41  N   UNL     1       3.042   6.949 -11.056  0.00  0.00    -0.243 NA
ATOM     42  C   UNL     1      -0.176   4.576 -11.866  0.00  0.00    +0.037 A 
BRANCH  39  43
ATOM     43  C   UNL     1       4.967   5.797  -9.995  0.00  0.00    +0.128 A 
ATOM     44  S   UNL     1       6.130   5.426  -8.792  0.00  0.00    -0.065 S 
ATOM     45  C   UNL     1       7.499   5.278  -9.824  0.00  0.00    +0.052 A 
ATOM     46  C   UNL     1       6.959   5.748 -11.021  0.00  0.00    +0.066 A 
ATOM     47  N   UNL     1       5.653   5.410 -11.099  0.00  0.00    -0.241 NA
BRANCH  46  48
ATOM     48  C   UNL     1       7.742   6.331 -12.166  0.00  0.00    +0.041 C 
ATOM     49  C   UNL     1       9.180   5.824 -12.115  0.00  0.00    +0.006 C 
ATOM     50  C   UNL     1       7.166   5.793 -13.475  0.00  0.00    +0.006 C 
ENDBRANCH  46  48
ENDBRANCH  39  43
BRANCH  32  52
ATOM     51  C   UNL     1       0.127   3.284 -14.601  0.00  0.00    +0.252 C 
ATOM     52  O   UNL     1       1.084   3.934 -13.805  0.00  0.00    -0.472 OA
ENDBRANCH  32  52
ENDBRANCH  31  37
ENDBRANCH   1  31
TORSDOF 8
ENDMDL
MODEL 2
REMARK VINA RESULT:     -10.2      2.838     10.915
REMARK  Name = 
REMARK  8 active torsions:
REMARK  status: ('A' for Active; 'I' for Inactive)
REMARK    1  A    between atoms: O_2  and  C_3
REMARK    2  A    between atoms: C_7  and  O_8
REMARK    3  A    between atoms: O_8  and  C_9
REMARK    4  A    between atoms: C_15  and  C_16
REMARK    5  A    between atoms: N_18  and  S_19
REMARK    6  A    between atoms: S_19  and  C_22
REMARK    7  A    between atoms: C_40  and  C_41
REMARK    8  A    between atoms: C_43  and  C_44
REMARK                            x       y       z     vdW  Elec       q    Type
REMARK                         _______ _______ _______ _____ _____    ______ ____
ROOT
ATOM      1  C   UNL     1       0.882   6.279  -8.452  0.00  0.00    +0.167 C 
ATOM      2  C   UNL     1       1.776   7.396  -9.248  0.00  0.00    +0.053 C 
ATOM      3  C   UNL     1       2.676   6.621 -10.337  0.00  0.00    +0.089 C 
ATOM      4  C   UNL     1       2.022   5.035 -10.142  0.00  0.00    +0.090 C 
ATOM      5  C   UNL     1       0.474   5.454 -10.357  0.00  0.00    +0.242 C 
ATOM      6  N   UNL     1       0.236   5.596 -11.718  0.00  0.00    -0.200 NA
ATOM      7  C   UNL     1       0.988   5.705 -12.849  0.00  0.00    +0.154 C 
ATOM      8  C   UNL     1       2.228   4.588 -12.835  0.00  0.00    +0.051 C 
ATOM      9  C   UNL     1       2.944   5.187 -14.235  0.00  0.00    -0.029 C 
ATOM     10  C   UNL     1       4.109   5.705 -13.888  0.00  0.00    -0.031 C 
ATOM     11  C   UNL     1       5.005   4.784 -13.111  0.00  0.00    +0.026 C 
ATOM     12  C   UNL     1       6.427   5.296 -13.193  0.00  0.00    +0.006 C 
ATOM     13  C   UNL     1       6.691   6.055 -11.898  0.00  0.00    +0.022 C 
ATOM     14  C   UNL     1       5.358   6.574 -11.404  0.00  0.00    +0.093 C 
ATOM     15  N   UNL     1       5.143   6.055 -10.053  0.00  0.00    -0.278 N 
ATOM     16  C   UNL     1       6.323   5.812  -9.248  0.00  0.00    +0.115 C 
ATOM     17  C   UNL     1       0.787   4.221 -13.632  0.00  0.00    +0.036 C 
ATOM     18  O   UNL     1      -0.243   4.545  -9.818  0.00  0.00    -0.273 OA
ATOM     19  C   UNL     1       3.918   6.292  -9.344  0.00  0.00    +0.226 C 
ATOM     20  O   UNL     1       3.984   6.857  -8.258  0.00  0.00    -0.275 OA
ATOM     21  C   UNL     1       2.104   5.152  -8.511  0.00  0.00    +0.053 C 
ENDROOT
BRANCH   7  22
ATOM     22  C   UNL     1       1.038   6.724 -13.848  0.00  0.00    +0.280 C 
ATOM     23  N   UNL     1       0.868   6.542 -15.263  0.00  0.00    -0.062 NA
ATOM     24  O   UNL     1       0.627   7.867 -13.480  0.00  0.00    -0.270 OA
BRANCH  23  25
ATOM     25  S   UNL     1       0.718   7.836 -16.371  0.00  0.00    +0.074 S 
ATOM     26  O   UNL     1       1.121   7.325 -17.737  0.00  0.00    -0.153 OA
ATOM     27  O   UNL     1      -0.715   8.293 -16.538  0.00  0.00    -0.153 OA
BRANCH  25  28
ATOM     28  C   UNL     1       1.783   9.198 -15.946  0.00  0.00    +0.151 C 
ATOM     29  C   UNL     1       1.805  10.266 -17.074  0.00  0.00    +0.027 C 
ATOM     30  C   UNL     1       1.149  10.563 -15.740  0.00  0.00    +0.027 C 
ENDBRANCH  25  28
ENDBRANCH  23  25
ENDBRANCH   7  22
BRANCH   1  31
ATOM     31  O   UNL     1       1.345   6.815  -7.051  0.00  0.00    -0.479 OA
BRANCH  31  37
ATOM     32  C   UNL     1      -2.119   7.365  -3.476  0.00  0.00    +0.136 A 
ATOM     33  C   UNL     1      -1.767   6.020  -3.516  0.00  0.00    +0.030 A 
ATOM     34  C   UNL     1      -2.062   5.246  -2.269  0.00  0.00    +0.036 C 
ATOM     35  C   UNL     1      -0.707   5.553  -4.286  0.00  0.00    +0.083 A 
ATOM     36  C   UNL     1      -0.386   6.307  -5.411  0.00  0.00    +0.052 A 
ATOM     37  C   UNL     1       0.837   6.023  -6.013  0.00  0.00    +0.141 A 
ATOM     38  C   UNL     1       1.820   5.349  -5.291  0.00  0.00    +0.058 A 
ATOM     39  C   UNL     1       1.542   4.801  -4.041  0.00  0.00    +0.108 A 
ATOM     40  C   UNL     1      -0.950   7.567  -5.564  0.00  0.00    +0.008 A 
ATOM     41  N   UNL     1       0.203   4.648  -3.844  0.00  0.00    -0.243 NA
ATOM     42  C   UNL     1      -1.847   8.086  -4.633  0.00  0.00    +0.037 A 
BRANCH  39  43
ATOM     43  C   UNL     1       2.480   4.963  -2.910  0.00  0.00    +0.128 A 
ATOM     44  S   UNL     1       2.234   4.924  -1.215  0.00  0.00    -0.065 S 
ATOM     45  C   UNL     1       3.558   5.926  -0.760  0.00  0.00    +0.052 A 
ATOM     46  C   UNL     1       3.962   6.386  -2.013  0.00  0.00    +0.066 A 
ATOM     47  N   UNL     1       3.755   5.427  -2.942  0.00  0.00    -0.241 NA
BRANCH  46  48
ATOM     48  C   UNL     1       4.732   7.652  -2.275  0.00  0.00    +0.041 C 
ATOM     49  C   UNL     1       4.872   7.864  -3.780  0.00  0.00    +0.006 C 
ATOM     50  C   UNL     1       3.908   8.837  -1.773  0.00  0.00    +0.006 C 
ENDBRANCH  46  48
ENDBRANCH  39  43
BRANCH  32  52
ATOM     51  C   UNL     1      -1.529   7.813  -1.150  0.00  0.00    +0.252 C 
ATOM     52  O   UNL     1      -2.323   8.062  -2.281  0.00  0.00    -0.472 OA
ENDBRANCH  32  52
ENDBRANCH  31  37
ENDBRANCH   1  31
TORSDOF 8
ENDMDL
MODEL 3
REMARK VINA RESULT:     -10.1      2.918     11.543
REMARK  Name = 
REMARK  8 active torsions:
REMARK  status: ('A' for Active; 'I' for Inactive)
REMARK    1  A    between atoms: O_2  and  C_3
REMARK    2  A    between atoms: C_7  and  O_8
REMARK    3  A    between atoms: O_8  and  C_9
REMARK    4  A    between atoms: C_15  and  C_16
REMARK    5  A    between atoms: N_18  and  S_19
REMARK    6  A    between atoms: S_19  and  C_22
REMARK    7  A    between atoms: C_40  and  C_41
REMARK    8  A    between atoms: C_43  and  C_44
REMARK                            x       y       z     vdW  Elec       q    Type
REMARK                         _______ _______ _______ _____ _____    ______ ____
ROOT
ATOM      1  C   UNL     1       2.943   5.798  -8.419  0.00  0.00    +0.167 C 
ATOM      2  C   UNL     1       3.584   7.072  -9.223  0.00  0.00    +0.053 C 
ATOM      3  C   UNL     1       4.104   6.541 -10.652  0.00  0.00    +0.089 C 
ATOM      4  C   UNL     1       3.505   4.923 -10.569  0.00  0.00    +0.090 C 
ATOM      5  C   UNL     1       1.972   5.319 -10.236  0.00  0.00    +0.242 C 
ATOM      6  N   UNL     1       1.344   5.697 -11.415  0.00  0.00    -0.200 NA
ATOM      7  C   UNL     1       1.728   6.037 -12.678  0.00  0.00    +0.154 C 
ATOM      8  C   UNL     1       2.894   4.982 -13.237  0.00  0.00    +0.051 C 
ATOM      9  C   UNL     1       3.175   5.851 -14.651  0.00  0.00    -0.029 C 
ATOM     10  C   UNL     1       4.401   6.338 -14.573  0.00  0.00    -0.031 C 
ATOM     11  C   UNL     1       5.467   5.324 -14.279  0.00  0.00    +0.026 C 
ATOM     12  C   UNL     1       6.811   5.893 -14.681  0.00  0.00    +0.006 C 
ATOM     13  C   UNL     1       7.463   6.412 -13.406  0.00  0.00    +0.022 C 
ATOM     14  C   UNL     1       6.347   6.784 -12.453  0.00  0.00    +0.093 C 
ATOM     15  N   UNL     1       6.532   6.021 -11.218  0.00  0.00    -0.278 N 
ATOM     16  C   UNL     1       7.892   5.678 -10.857  0.00  0.00    +0.115 C 
ATOM     17  C   UNL     1       1.274   4.715 -13.626  0.00  0.00    +0.036 C 
ATOM     18  O   UNL     1       1.429   4.301  -9.687  0.00  0.00    -0.273 OA
ATOM     19  C   UNL     1       5.577   6.082 -10.148  0.00  0.00    +0.226 C 
ATOM     20  O   UNL     1       5.974   6.440  -9.046  0.00  0.00    -0.275 OA
ATOM     21  C   UNL     1       4.070   4.744  -9.042  0.00  0.00    +0.053 C 
ENDROOT
BRANCH   7  22
ATOM     22  C   UNL     1       1.500   7.222 -13.442  0.00  0.00    +0.280 C 
ATOM     23  N   UNL     1       1.528   7.335 -14.873  0.00  0.00    -0.062 NA
ATOM     24  O   UNL     1       0.682   8.048 -12.932  0.00  0.00    -0.270 OA
BRANCH  23  25
ATOM     25  S   UNL     1       1.025   8.732 -15.722  0.00  0.00    +0.074 S 
ATOM     26  O   UNL     1      -0.372   8.478 -16.245  0.00  0.00    -0.153 OA
ATOM     27  O   UNL     1       0.886   9.939 -14.819  0.00  0.00    -0.153 OA
BRANCH  25  28
ATOM     28  C   UNL     1       2.087   9.082 -17.107  0.00  0.00    +0.151 C 
ATOM     29  C   UNL     1       3.130  10.179 -16.752  0.00  0.00    +0.027 C 
ATOM     30  C   UNL     1       3.563   8.743 -16.979  0.00  0.00    +0.027 C 
ENDBRANCH  25  28
ENDBRANCH  23  25
ENDBRANCH   7  22
BRANCH   1  31
ATOM     31  O   UNL     1       3.812   6.086  -7.144  0.00  0.00    -0.479 OA
BRANCH  31  37
ATOM     32  C   UNL     1       3.662   5.489  -2.173  0.00  0.00    +0.136 A 
ATOM     33  C   UNL     1       2.835   6.561  -2.491  0.00  0.00    +0.030 A 
ATOM     34  C   UNL     1       1.796   6.892  -1.466  0.00  0.00    +0.036 C 
ATOM     35  C   UNL     1       2.520   6.889  -3.806  0.00  0.00    +0.083 A 
ATOM     36  C   UNL     1       3.453   6.524  -4.771  0.00  0.00    +0.052 A 
ATOM     37  C   UNL     1       3.024   6.578  -6.095  0.00  0.00    +0.141 A 
ATOM     38  C   UNL     1       1.659   6.583  -6.375  0.00  0.00    +0.058 A 
ATOM     39  C   UNL     1       0.718   6.710  -5.356  0.00  0.00    +0.108 A 
ATOM     40  C   UNL     1       4.488   5.665  -4.420  0.00  0.00    +0.008 A 
ATOM     41  N   UNL     1       1.270   7.220  -4.221  0.00  0.00    -0.243 NA
ATOM     42  C   UNL     1       4.629   5.180  -3.123  0.00  0.00    +0.037 A 
BRANCH  39  43
ATOM     43  C   UNL     1      -0.487   5.854  -5.318  0.00  0.00    +0.128 A 
ATOM     44  S   UNL     1      -1.836   5.744  -6.368  0.00  0.00    -0.065 S 
ATOM     45  C   UNL     1      -2.983   5.167  -5.221  0.00  0.00    +0.052 A 
ATOM     46  C   UNL     1      -2.250   5.312  -4.044  0.00  0.00    +0.066 A 
ATOM     47  N   UNL     1      -0.939   5.094  -4.289  0.00  0.00    -0.241 NA
BRANCH  46  48
ATOM     48  C   UNL     1      -2.829   5.452  -2.662  0.00  0.00    +0.041 C 
ATOM     49  C   UNL     1      -1.713   5.752  -1.666  0.00  0.00    +0.006 C 
ATOM     50  C   UNL     1      -3.738   6.680  -2.636  0.00  0.00    +0.006 C 
ENDBRANCH  46  48
ENDBRANCH  39  43
BRANCH  32  52
ATOM     51  C   UNL     1       4.222   3.506  -0.864  0.00  0.00    +0.252 C 
ATOM     52  O   UNL     1       3.322   4.523  -1.221  0.00  0.00    -0.472 OA
ENDBRANCH  32  52
ENDBRANCH  31  37
ENDBRANCH   1  31
TORSDOF 8
ENDMDL
MODEL 4
REMARK VINA RESULT:      -9.0      2.604     11.157
REMARK  Name = 
REMARK  8 active torsions:
REMARK  status: ('A' for Active; 'I' for Inactive)
REMARK    1  A    between atoms: O_2  and  C_3
REMARK    2  A    between atoms: C_7  and  O_8
REMARK    3  A    between atoms: O_8  and  C_9
REMARK    4  A    between atoms: C_15  and  C_16
REMARK    5  A    between atoms: N_18  and  S_19
REMARK    6  A    between atoms: S_19  and  C_22
REMARK    7  A    between atoms: C_40  and  C_41
REMARK    8  A    between atoms: C_43  and  C_44
REMARK                            x       y       z     vdW  Elec       q    Type
REMARK                         _______ _______ _______ _____ _____    ______ ____
ROOT
ATOM      1  C   UNL     1       1.703   6.594  -7.937  0.00  0.00    +0.167 C 
ATOM      2  C   UNL     1       2.578   7.624  -8.860  0.00  0.00    +0.053 C 
ATOM      3  C   UNL     1       3.221   6.778 -10.069  0.00  0.00    +0.089 C 
ATOM      4  C   UNL     1       2.444   5.263  -9.776  0.00  0.00    +0.090 C 
ATOM      5  C   UNL     1       0.933   5.840  -9.757  0.00  0.00    +0.242 C 
ATOM      6  N   UNL     1       0.509   6.023 -11.067  0.00  0.00    -0.200 NA
ATOM      7  C   UNL     1       1.091   6.071 -12.299  0.00  0.00    +0.154 C 
ATOM      8  C   UNL     1       2.199   4.834 -12.469  0.00  0.00    +0.051 C 
ATOM      9  C   UNL     1       2.755   5.376 -13.962  0.00  0.00    -0.029 C 
ATOM     10  C   UNL     1       4.006   5.769 -13.794  0.00  0.00    -0.031 C 
ATOM     11  C   UNL     1       4.909   4.752 -13.159  0.00  0.00    +0.026 C 
ATOM     12  C   UNL     1       6.347   5.119 -13.454  0.00  0.00    +0.006 C 
ATOM     13  C   UNL     1       6.878   5.829 -12.215  0.00  0.00    +0.022 C 
ATOM     14  C   UNL     1       5.694   6.473 -11.527  0.00  0.00    +0.093 C 
ATOM     15  N   UNL     1       5.631   5.961 -10.158  0.00  0.00    -0.278 N 
ATOM     16  C   UNL     1       6.887   5.589  -9.539  0.00  0.00    +0.115 C 
ATOM     17  C   UNL     1       0.625   4.626 -13.040  0.00  0.00    +0.036 C 
ATOM     18  O   UNL     1       0.215   5.000  -9.115  0.00  0.00    -0.273 OA
ATOM     19  C   UNL     1       4.556   6.311  -9.274  0.00  0.00    +0.226 C 
ATOM     20  O   UNL     1       4.841   6.851  -8.211  0.00  0.00    -0.275 OA
ATOM     21  C   UNL     1       2.781   5.349  -8.176  0.00  0.00    +0.053 C 
ENDROOT
BRANCH   7  22
ATOM     22  C   UNL     1       1.095   7.093 -13.296  0.00  0.00    +0.280 C 
ATOM     23  N   UNL     1       0.943   6.906 -14.712  0.00  0.00    -0.062 NA
ATOM     24  O   UNL     1       0.625   8.214 -12.928  0.00  0.00    -0.270 OA
BRANCH  23  25
ATOM     25  S   UNL     1       0.734   8.193 -15.819  0.00  0.00    +0.074 S 
ATOM     26  O   UNL     1      -0.602   8.001 -16.504  0.00  0.00    -0.153 OA
ATOM     27  O   UNL     1       0.625   9.536 -15.131  0.00  0.00    -0.153 OA
BRANCH  25  28
ATOM     28  C   UNL     1       2.005   8.206 -17.065  0.00  0.00    +0.151 C 
ATOM     29  C   UNL     1       2.963   9.416 -16.875  0.00  0.00    +0.027 C 
ATOM     30  C   UNL     1       3.443   8.000 -16.620  0.00  0.00    +0.027 C 
ENDBRANCH  25  28
ENDBRANCH  23  25
ENDBRANCH   7  22
BRANCH   1  31
ATOM     31  O   UNL     1       2.423   7.061  -6.622  0.00  0.00    -0.479 OA
BRANCH  31  37
ATOM     32  C   UNL     1      -1.698   6.673  -3.802  0.00  0.00    +0.136 A 
ATOM     33  C   UNL     1      -0.880   5.591  -3.499  0.00  0.00    +0.030 A 
ATOM     34  C   UNL     1      -1.137   4.948  -2.172  0.00  0.00    +0.036 C 
ATOM     35  C   UNL     1       0.420   5.485  -3.984  0.00  0.00    +0.083 A 
ATOM     36  C   UNL     1       0.682   6.137  -5.185  0.00  0.00    +0.052 A 
ATOM     37  C   UNL     1       2.025   6.286  -5.525  0.00  0.00    +0.141 A 
ATOM     38  C   UNL     1       3.001   6.172  -4.537  0.00  0.00    +0.058 A 
ATOM     39  C   UNL     1       2.674   5.740  -3.253  0.00  0.00    +0.108 A 
ATOM     40  C   UNL     1      -0.256   7.031  -5.688  0.00  0.00    +0.008 A 
ATOM     41  N   UNL     1       1.477   5.092  -3.228  0.00  0.00    -0.243 NA
ATOM     42  C   UNL     1      -1.462   7.272  -5.034  0.00  0.00    +0.037 A 
BRANCH  39  43
ATOM     43  C   UNL     1       3.214   6.422  -2.058  0.00  0.00    +0.128 A 
ATOM     44  S   UNL     1       4.390   5.941  -0.909  0.00  0.00    -0.065 S 
ATOM     45  C   UNL     1       3.822   6.877   0.419  0.00  0.00    +0.052 A 
ATOM     46  C   UNL     1       2.612   7.335  -0.101  0.00  0.00    +0.066 A 
ATOM     47  N   UNL     1       2.727   7.524  -1.434  0.00  0.00    -0.241 NA
BRANCH  46  48
ATOM     48  C   UNL     1       1.424   7.783   0.707  0.00  0.00    +0.041 C 
ATOM     49  C   UNL     1       1.380   9.308   0.751  0.00  0.00    +0.006 C 
ATOM     50  C   UNL     1       0.149   7.360  -0.022  0.00  0.00    +0.006 C 
ENDBRANCH  46  48
ENDBRANCH  39  43
BRANCH  32  52
ATOM     51  C   UNL     1      -3.572   6.875  -2.250  0.00  0.00    +0.252 C 
ATOM     52  O   UNL     1      -2.401   7.391  -2.830  0.00  0.00    -0.472 OA
ENDBRANCH  32  52
ENDBRANCH  31  37
ENDBRANCH   1  31
TORSDOF 8
ENDMDL
MODEL 5
REMARK VINA RESULT:      -8.7      2.159      3.902
REMARK  Name = 
REMARK  8 active torsions:
REMARK  status: ('A' for Active; 'I' for Inactive)
REMARK    1  A    between atoms: O_2  and  C_3
REMARK    2  A    between atoms: C_7  and  O_8
REMARK    3  A    between atoms: O_8  and  C_9
REMARK    4  A    between atoms: C_15  and  C_16
REMARK    5  A    between atoms: N_18  and  S_19
REMARK    6  A    between atoms: S_19  and  C_22
REMARK    7  A    between atoms: C_40  and  C_41
REMARK    8  A    between atoms: C_43  and  C_44
REMARK                            x       y       z     vdW  Elec       q    Type
REMARK                         _______ _______ _______ _____ _____    ______ ____
ROOT
ATOM      1  C   UNL     1       3.425   6.801  -7.362  0.00  0.00    +0.167 C 
ATOM      2  C   UNL     1       2.443   7.817  -6.537  0.00  0.00    +0.053 C 
ATOM      3  C   UNL     1       1.666   6.954  -5.421  0.00  0.00    +0.089 C 
ATOM      4  C   UNL     1       2.480   5.446  -5.638  0.00  0.00    +0.090 C 
ATOM      5  C   UNL     1       3.980   6.029  -5.472  0.00  0.00    +0.242 C 
ATOM      6  N   UNL     1       4.245   6.199  -4.120  0.00  0.00    -0.200 NA
ATOM      7  C   UNL     1       3.522   6.230  -2.964  0.00  0.00    +0.154 C 
ATOM      8  C   UNL     1       2.408   4.987  -2.939  0.00  0.00    +0.051 C 
ATOM      9  C   UNL     1       1.677   5.510  -1.517  0.00  0.00    -0.029 C 
ATOM     10  C   UNL     1       0.453   5.899  -1.827  0.00  0.00    -0.031 C 
ATOM     11  C   UNL     1      -0.363   4.886  -2.575  0.00  0.00    +0.026 C 
ATOM     12  C   UNL     1      -1.829   5.243  -2.447  0.00  0.00    +0.006 C 
ATOM     13  C   UNL     1      -2.214   5.965  -3.732  0.00  0.00    +0.022 C 
ATOM     14  C   UNL     1      -0.960   6.623  -4.269  0.00  0.00    +0.093 C 
ATOM     15  N   UNL     1      -0.733   6.127  -5.627  0.00  0.00    -0.278 N 
ATOM     16  C   UNL     1      -1.906   5.757  -6.393  0.00  0.00    +0.115 C 
ATOM     17  C   UNL     1       3.905   4.779  -2.190  0.00  0.00    +0.036 C 
ATOM     18  O   UNL     1       4.772   5.200  -6.034  0.00  0.00    -0.273 OA
ATOM     19  C   UNL     1       0.436   6.492  -6.374  0.00  0.00    +0.226 C 
ATOM     20  O   UNL     1       0.275   7.043  -7.456  0.00  0.00    -0.275 OA
ATOM     21  C   UNL     1       2.334   5.549  -7.265  0.00  0.00    +0.053 C 
ENDROOT
BRANCH   7  22
ATOM     22  C   UNL     1       3.395   7.240  -1.964  0.00  0.00    +0.280 C 
ATOM     23  N   UNL     1       3.936   7.198  -0.634  0.00  0.00    -0.062 NA
ATOM     24  O   UNL     1       3.337   8.432  -2.398  0.00  0.00    -0.270 OA
BRANCH  23  25
ATOM     25  S   UNL     1       3.935   8.537   0.430  0.00  0.00    +0.074 S 
ATOM     26  O   UNL     1       5.173   8.442   1.295  0.00  0.00    -0.153 OA
ATOM     27  O   UNL     1       4.074   9.856  -0.298  0.00  0.00    -0.153 OA
BRANCH  25  28
ATOM     28  C   UNL     1       2.508   8.535   1.494  0.00  0.00    +0.151 C 
ATOM     29  C   UNL     1       1.293   9.215   0.804  0.00  0.00    +0.027 C 
ATOM     30  C   UNL     1       1.298   7.721   1.065  0.00  0.00    +0.027 C 
ENDBRANCH  25  28
ENDBRANCH  23  25
ENDBRANCH   7  22
BRANCH   1  31
ATOM     31  O   UNL     1       2.863   7.281  -8.747  0.00  0.00    -0.479 OA
BRANCH  31  37
ATOM     32  C   UNL     1       6.268   7.109 -12.416  0.00  0.00    +0.136 A 
ATOM     33  C   UNL     1       5.690   5.847 -12.321  0.00  0.00    +0.030 A 
ATOM     34  C   UNL     1       5.811   4.996 -13.547  0.00  0.00    +0.036 C 
ATOM     35  C   UNL     1       4.587   5.596 -11.512  0.00  0.00    +0.083 A 
ATOM     36  C   UNL     1       4.433   6.428 -10.407  0.00  0.00    +0.052 A 
ATOM     37  C   UNL     1       3.197   6.381  -9.768  0.00  0.00    +0.141 A 
ATOM     38  C   UNL     1       2.092   5.866 -10.444  0.00  0.00    +0.058 A 
ATOM     39  C   UNL     1       2.236   5.239 -11.680  0.00  0.00    +0.108 A 
ATOM     40  C   UNL     1       5.211   7.576 -10.312  0.00  0.00    +0.008 A 
ATOM     41  N   UNL     1       3.522   4.850 -11.901  0.00  0.00    -0.243 NA
ATOM     42  C   UNL     1       6.157   7.901 -11.280  0.00  0.00    +0.037 A 
BRANCH  39  43
ATOM     43  C   UNL     1       1.308   5.527 -12.794  0.00  0.00    +0.128 A 
ATOM     44  S   UNL     1       0.741   4.550 -14.082  0.00  0.00    -0.065 S 
ATOM     45  C   UNL     1       0.420   5.809 -15.211  0.00  0.00    +0.052 A 
ATOM     46  C   UNL     1       0.993   6.892 -14.545  0.00  0.00    +0.066 A 
ATOM     47  N   UNL     1       0.852   6.736 -13.210  0.00  0.00    -0.241 NA
BRANCH  46  48
ATOM     48  C   UNL     1       1.484   8.159 -15.191  0.00  0.00    +0.041 C 
ATOM     49  C   UNL     1       2.569   7.827 -16.211  0.00  0.00    +0.006 C 
ATOM     50  C   UNL     1       0.339   8.769 -15.999  0.00  0.00    +0.006 C 
ENDBRANCH  46  48
ENDBRANCH  39  43
BRANCH  32  52
ATOM     51  C   UNL     1       5.900   7.336 -14.819  0.00  0.00    +0.252 C 
ATOM     52  O   UNL     1       6.555   7.723 -13.640  0.00  0.00    -0.472 OA
ENDBRANCH  32  52
ENDBRANCH  31  37
ENDBRANCH   1  31
TORSDOF 8
ENDMDL
