MODEL 1
REMARK VINA RESULT:      -4.7      0.000      0.000
REMARK  Name = 
REMARK  8 active torsions:
REMARK  status: ('A' for Active; 'I' for Inactive)
REMARK    1  A    between atoms: N_2  and  O_4
REMARK    2  A    between atoms: O_4  and  C_5
REMARK    3  A    between atoms: C_5  and  C_6
REMARK    4  A    between atoms: C_6  and  C_7
REMARK    5  A    between atoms: C_6  and  O_12
REMARK    6  A    between atoms: C_7  and  O_8
REMARK    7  A    between atoms: O_8  and  N_9
REMARK    8  A    between atoms: O_12  and  N_13
REMARK                            x       y       z     vdW  Elec       q    Type
REMARK                         _______ _______ _______ _____ _____    ______ ____
ROOT
ATOM      1  C   UNL     1       1.126   5.144  -5.027  0.00  0.00    +0.351 C 
ENDROOT
BRANCH   1   2
ATOM      2  C   UNL     1       2.483   5.649  -5.417  0.00  0.00    +0.351 C 
BRANCH   2   3
ATOM      3  O   UNL     1       2.484   7.027  -5.764  0.00  0.00    -0.196 OA
BRANCH   3   5
ATOM      4  O   UNL     1       3.289   6.361  -7.751  0.00  0.00    +0.093 OA
ATOM      5  N   UNL     1       2.833   7.314  -7.072  0.00  0.00    +0.285 N 
ATOM      6  O   UNL     1       2.089   8.243  -7.776  0.00  0.00    -0.534 OA
ENDBRANCH   3   5
ENDBRANCH   2   3
ENDBRANCH   1   2
BRANCH   1   7
ATOM      7  C   UNL     1       0.303   6.153  -4.266  0.00  0.00    +0.351 C 
BRANCH   7   8
ATOM      8  O   UNL     1      -0.477   5.443  -3.328  0.00  0.00    -0.196 OA
BRANCH   8   9
ATOM      9  N   UNL     1      -1.850   5.510  -3.381  0.00  0.00    +0.285 N 
ATOM     10  O   UNL     1      -2.637   4.651  -2.644  0.00  0.00    -0.534 OA
ATOM     11  O   UNL     1      -2.340   6.537  -3.917  0.00  0.00    +0.093 OA
ENDBRANCH   8   9
ENDBRANCH   7   8
ENDBRANCH   1   7
BRANCH   1  12
ATOM     12  O   UNL     1       0.392   4.602  -6.089  0.00  0.00    -0.196 OA
BRANCH  12  13
ATOM     13  N   UNL     1      -0.504   5.270  -6.868  0.00  0.00    +0.285 N 
ATOM     14  O   UNL     1      -0.044   5.629  -8.125  0.00  0.00    -0.534 OA
ATOM     15  O   UNL     1      -1.745   5.067  -6.822  0.00  0.00    +0.093 OA
ENDBRANCH  12  13
ENDBRANCH   1  12
TORSDOF 8
ENDMDL
MODEL 2
REMARK VINA RESULT:      -4.6      1.372      5.057
REMARK  Name = 
REMARK  8 active torsions:
REMARK  status: ('A' for Active; 'I' for Inactive)
REMARK    1  A    between atoms: N_2  and  O_4
REMARK    2  A    between atoms: O_4  and  C_5
REMARK    3  A    between atoms: C_5  and  C_6
REMARK    4  A    between atoms: C_6  and  C_7
REMARK    5  A    between atoms: C_6  and  O_12
REMARK    6  A    between atoms: C_7  and  O_8
REMARK    7  A    between atoms: O_8  and  N_9
REMARK    8  A    between atoms: O_12  and  N_13
REMARK                            x       y       z     vdW  Elec       q    Type
REMARK                         _______ _______ _______ _____ _____    ______ ____
ROOT
ATOM      1  C   UNL     1       0.603   5.964  -4.438  0.00  0.00    +0.351 C 
ENDROOT
BRANCH   1   2
ATOM      2  C   UNL     1       0.738   5.770  -2.957  0.00  0.00    +0.351 C 
BRANCH   2   3
ATOM      3  O   UNL     1      -0.213   4.858  -2.428  0.00  0.00    -0.196 OA
BRANCH   3   5
ATOM      4  O   UNL     1      -1.211   6.658  -1.533  0.00  0.00    +0.093 OA
ATOM      5  N   UNL     1      -1.293   5.429  -1.777  0.00  0.00    +0.285 N 
ATOM      6  O   UNL     1      -2.564   4.959  -2.049  0.00  0.00    -0.534 OA
ENDBRANCH   3   5
ENDBRANCH   2   3
ENDBRANCH   1   2
BRANCH   1   7
ATOM      7  C   UNL     1       1.830   5.553  -5.213  0.00  0.00    +0.351 C 
BRANCH   7   8
ATOM      8  O   UNL     1       1.742   6.147  -6.491  0.00  0.00    -0.196 OA
BRANCH   8   9
ATOM      9  N   UNL     1       2.524   7.235  -6.801  0.00  0.00    +0.285 N 
ATOM     10  O   UNL     1       2.105   8.181  -7.713  0.00  0.00    -0.534 OA
ATOM     11  O   UNL     1       3.498   7.461  -6.038  0.00  0.00    +0.093 OA
ENDBRANCH   8   9
ENDBRANCH   7   8
ENDBRANCH   1   7
BRANCH   1  12
ATOM     12  O   UNL     1      -0.549   5.388  -4.986  0.00  0.00    -0.196 OA
BRANCH  12  13
ATOM     13  N   UNL     1      -1.706   6.041  -5.287  0.00  0.00    +0.285 N 
ATOM     14  O   UNL     1      -1.723   7.391  -4.972  0.00  0.00    -0.534 OA
ATOM     15  O   UNL     1      -2.433   5.742  -6.270  0.00  0.00    +0.093 OA
ENDBRANCH  12  13
ENDBRANCH   1  12
TORSDOF 8
ENDMDL
MODEL 3
REMARK VINA RESULT:      -4.6      1.748      3.028
REMARK  Name = 
REMARK  8 active torsions:
REMARK  status: ('A' for Active; 'I' for Inactive)
REMARK    1  A    between atoms: N_2  and  O_4
REMARK    2  A    between atoms: O_4  and  C_5
REMARK    3  A    between atoms: C_5  and  C_6
REMARK    4  A    between atoms: C_6  and  C_7
REMARK    5  A    between atoms: C_6  and  O_12
REMARK    6  A    between atoms: C_7  and  O_8
REMARK    7  A    between atoms: O_8  and  N_9
REMARK    8  A    between atoms: O_12  and  N_13
REMARK                            x       y       z     vdW  Elec       q    Type
REMARK                         _______ _______ _______ _____ _____    ______ ____
ROOT
ATOM      1  C   UNL     1      -0.016   6.212  -5.822  0.00  0.00    +0.351 C 
ENDROOT
BRANCH   1   2
ATOM      2  C   UNL     1       0.338   5.065  -6.721  0.00  0.00    +0.351 C 
BRANCH   2   3
ATOM      3  O   UNL     1       0.945   3.984  -6.028  0.00  0.00    -0.196 OA
BRANCH   3   5
ATOM      4  O   UNL     1       2.738   4.047  -7.377  0.00  0.00    +0.093 OA
ATOM      5  N   UNL     1       2.310   3.845  -6.214  0.00  0.00    +0.285 N 
ATOM      6  O   UNL     1       3.166   4.210  -5.192  0.00  0.00    -0.534 OA
ENDBRANCH   3   5
ENDBRANCH   2   3
ENDBRANCH   1   2
BRANCH   1   7
ATOM      7  C   UNL     1      -0.434   5.786  -4.438  0.00  0.00    +0.351 C 
BRANCH   7   8
ATOM      8  O   UNL     1      -1.844   5.735  -4.417  0.00  0.00    -0.196 OA
BRANCH   8   9
ATOM      9  N   UNL     1      -2.519   5.755  -3.219  0.00  0.00    +0.285 N 
ATOM     10  O   UNL     1      -3.126   6.904  -2.759  0.00  0.00    -0.534 OA
ATOM     11  O   UNL     1      -2.774   4.638  -2.701  0.00  0.00    +0.093 OA
ENDBRANCH   8   9
ENDBRANCH   7   8
ENDBRANCH   1   7
BRANCH   1  12
ATOM     12  O   UNL     1       0.962   7.213  -5.762  0.00  0.00    -0.196 OA
BRANCH  12  13
ATOM     13  N   UNL     1       2.034   7.338  -6.593  0.00  0.00    +0.285 N 
ATOM     14  O   UNL     1       1.827   8.133  -7.710  0.00  0.00    -0.534 OA
ATOM     15  O   UNL     1       3.225   7.332  -6.190  0.00  0.00    +0.093 OA
ENDBRANCH  12  13
ENDBRANCH   1  12
TORSDOF 8
ENDMDL
MODEL 4
REMARK VINA RESULT:      -4.6      7.094      9.394
REMARK  Name = 
REMARK  8 active torsions:
REMARK  status: ('A' for Active; 'I' for Inactive)
REMARK    1  A    between atoms: N_2  and  O_4
REMARK    2  A    between atoms: O_4  and  C_5
REMARK    3  A    between atoms: C_5  and  C_6
REMARK    4  A    between atoms: C_6  and  C_7
REMARK    5  A    between atoms: C_6  and  O_12
REMARK    6  A    between atoms: C_7  and  O_8
REMARK    7  A    between atoms: O_8  and  N_9
REMARK    8  A    between atoms: O_12  and  N_13
REMARK                            x       y       z     vdW  Elec       q    Type
REMARK                         _______ _______ _______ _____ _____    ______ ____
ROOT
ATOM      1  C   UNL     1       4.691   5.711 -13.102  0.00  0.00    +0.351 C 
ENDROOT
BRANCH   1   2
ATOM      2  C   UNL     1       3.396   5.487 -13.824  0.00  0.00    +0.351 C 
BRANCH   2   3
ATOM      3  O   UNL     1       2.259   5.797 -13.031  0.00  0.00    -0.196 OA
BRANCH   3   5
ATOM      4  O   UNL     1       1.246   4.123 -14.131  0.00  0.00    +0.093 OA
ATOM      5  N   UNL     1       1.163   4.970 -13.207  0.00  0.00    +0.285 N 
ATOM      6  O   UNL     1       0.437   4.574 -12.099  0.00  0.00    -0.534 OA
ENDBRANCH   3   5
ENDBRANCH   2   3
ENDBRANCH   1   2
BRANCH   1   7
ATOM      7  C   UNL     1       4.555   5.698 -11.601  0.00  0.00    +0.351 C 
BRANCH   7   8
ATOM      8  O   UNL     1       4.797   7.011 -11.142  0.00  0.00    -0.196 OA
BRANCH   8   9
ATOM      9  N   UNL     1       6.085   7.441 -10.927  0.00  0.00    +0.285 N 
ATOM     10  O   UNL     1       7.024   6.622 -10.336  0.00  0.00    -0.534 OA
ATOM     11  O   UNL     1       6.430   8.496 -11.519  0.00  0.00    +0.093 OA
ENDBRANCH   8   9
ENDBRANCH   7   8
ENDBRANCH   1   7
BRANCH   1  12
ATOM     12  O   UNL     1       5.728   4.865 -13.515  0.00  0.00    -0.196 OA
BRANCH  12  13
ATOM     13  N   UNL     1       7.041   5.208 -13.640  0.00  0.00    +0.285 N 
ATOM     14  O   UNL     1       7.276   6.517 -14.030  0.00  0.00    -0.534 OA
ATOM     15  O   UNL     1       7.952   4.722 -12.922  0.00  0.00    +0.093 OA
ENDBRANCH  12  13
ENDBRANCH   1  12
TORSDOF 8
ENDMDL
MODEL 5
REMARK VINA RESULT:      -4.6      1.775      5.085
REMARK  Name = 
REMARK  8 active torsions:
REMARK  status: ('A' for Active; 'I' for Inactive)
REMARK    1  A    between atoms: N_2  and  O_4
REMARK    2  A    between atoms: O_4  and  C_5
REMARK    3  A    between atoms: C_5  and  C_6
REMARK    4  A    between atoms: C_6  and  C_7
REMARK    5  A    between atoms: C_6  and  O_12
REMARK    6  A    between atoms: C_7  and  O_8
REMARK    7  A    between atoms: O_8  and  N_9
REMARK    8  A    between atoms: O_12  and  N_13
REMARK                            x       y       z     vdW  Elec       q    Type
REMARK                         _______ _______ _______ _____ _____    ______ ____
ROOT
ATOM      1  C   UNL     1       0.902   6.185  -4.653  0.00  0.00    +0.351 C 
ENDROOT
BRANCH   1   2
ATOM      2  C   UNL     1      -0.423   6.640  -4.118  0.00  0.00    +0.351 C 
BRANCH   2   3
ATOM      3  O   UNL     1      -1.300   5.563  -3.821  0.00  0.00    -0.196 OA
BRANCH   3   5
ATOM      4  O   UNL     1      -2.650   4.901  -2.154  0.00  0.00    +0.093 OA
ATOM      5  N   UNL     1      -1.509   5.315  -2.475  0.00  0.00    +0.285 N 
ATOM      6  O   UNL     1      -0.462   4.828  -1.714  0.00  0.00    -0.534 OA
ENDBRANCH   3   5
ENDBRANCH   2   3
ENDBRANCH   1   2
BRANCH   1   7
ATOM      7  C   UNL     1       2.072   6.603  -3.798  0.00  0.00    +0.351 C 
BRANCH   7   8
ATOM      8  O   UNL     1       3.103   7.023  -4.666  0.00  0.00    -0.196 OA
BRANCH   8   9
ATOM      9  N   UNL     1       4.018   6.114  -5.143  0.00  0.00    +0.285 N 
ATOM     10  O   UNL     1       4.479   5.081  -4.354  0.00  0.00    -0.534 OA
ATOM     11  O   UNL     1       4.210   6.113  -6.386  0.00  0.00    +0.093 OA
ENDBRANCH   8   9
ENDBRANCH   7   8
ENDBRANCH   1   7
BRANCH   1  12
ATOM     12  O   UNL     1       0.961   4.817  -4.944  0.00  0.00    -0.196 OA
BRANCH  12  13
ATOM     13  N   UNL     1       1.216   4.267  -6.164  0.00  0.00    +0.285 N 
ATOM     14  O   UNL     1       0.992   5.103  -7.248  0.00  0.00    -0.534 OA
ATOM     15  O   UNL     1       2.118   3.413  -6.362  0.00  0.00    +0.093 OA
ENDBRANCH  12  13
ENDBRANCH   1  12
TORSDOF 8
ENDMDL
MODEL 6
REMARK VINA RESULT:      -4.5      6.395      9.099
REMARK  Name = 
REMARK  8 active torsions:
REMARK  status: ('A' for Active; 'I' for Inactive)
REMARK    1  A    between atoms: N_2  and  O_4
REMARK    2  A    between atoms: O_4  and  C_5
REMARK    3  A    between atoms: C_5  and  C_6
REMARK    4  A    between atoms: C_6  and  C_7
REMARK    5  A    between atoms: C_6  and  O_12
REMARK    6  A    between atoms: C_7  and  O_8
REMARK    7  A    between atoms: O_8  and  N_9
REMARK    8  A    between atoms: O_12  and  N_13
REMARK                            x       y       z     vdW  Elec       q    Type
REMARK                         _______ _______ _______ _____ _____    ______ ____
ROOT
ATOM      1  C   UNL     1       4.567   5.128 -13.115  0.00  0.00    +0.351 C 
ENDROOT
BRANCH   1   2
ATOM      2  C   UNL     1       4.586   5.861 -11.806  0.00  0.00    +0.351 C 
BRANCH   2   3
ATOM      3  O   UNL     1       3.602   5.393 -10.895  0.00  0.00    -0.196 OA
BRANCH   3   5
ATOM      4  O   UNL     1       4.091   6.153  -8.840  0.00  0.00    +0.093 OA
ATOM      5  N   UNL     1       4.046   5.158  -9.605  0.00  0.00    +0.285 N 
ATOM      6  O   UNL     1       3.737   3.954  -8.999  0.00  0.00    -0.534 OA
ENDBRANCH   3   5
ENDBRANCH   2   3
ENDBRANCH   1   2
BRANCH   1   7
ATOM      7  C   UNL     1       3.744   5.813 -14.177  0.00  0.00    +0.351 C 
BRANCH   7   8
ATOM      8  O   UNL     1       2.641   4.979 -14.461  0.00  0.00    -0.196 OA
BRANCH   8   9
ATOM      9  N   UNL     1       1.359   5.444 -14.280  0.00  0.00    +0.285 N 
ATOM     10  O   UNL     1       0.597   5.877 -15.344  0.00  0.00    -0.534 OA
ATOM     11  O   UNL     1       0.834   5.215 -13.160  0.00  0.00    +0.093 OA
ENDBRANCH   8   9
ENDBRANCH   7   8
ENDBRANCH   1   7
BRANCH   1  12
ATOM     12  O   UNL     1       5.838   4.800 -13.604  0.00  0.00    -0.196 OA
BRANCH  12  13
ATOM     13  N   UNL     1       7.000   5.447 -13.313  0.00  0.00    +0.285 N 
ATOM     14  O   UNL     1       7.986   4.663 -12.734  0.00  0.00    -0.534 OA
ATOM     15  O   UNL     1       7.450   6.401 -13.999  0.00  0.00    +0.093 OA
ENDBRANCH  12  13
ENDBRANCH   1  12
TORSDOF 8
ENDMDL
MODEL 7
REMARK VINA RESULT:      -4.5      5.133      8.724
REMARK  Name = 
REMARK  8 active torsions:
REMARK  status: ('A' for Active; 'I' for Inactive)
REMARK    1  A    between atoms: N_2  and  O_4
REMARK    2  A    between atoms: O_4  and  C_5
REMARK    3  A    between atoms: C_5  and  C_6
REMARK    4  A    between atoms: C_6  and  C_7
REMARK    5  A    between atoms: C_6  and  O_12
REMARK    6  A    between atoms: C_7  and  O_8
REMARK    7  A    between atoms: O_8  and  N_9
REMARK    8  A    between atoms: O_12  and  N_13
REMARK                            x       y       z     vdW  Elec       q    Type
REMARK                         _______ _______ _______ _____ _____    ______ ____
ROOT
ATOM      1  C   UNL     1       4.476   5.708 -10.965  0.00  0.00    +0.351 C 
ENDROOT
BRANCH   1   2
ATOM      2  C   UNL     1       3.135   6.170 -10.477  0.00  0.00    +0.351 C 
BRANCH   2   3
ATOM      3  O   UNL     1       2.246   5.097 -10.200  0.00  0.00    -0.196 OA
BRANCH   3   5
ATOM      4  O   UNL     1       2.659   3.525  -8.651  0.00  0.00    +0.093 OA
ATOM      5  N   UNL     1       2.211   4.675  -8.882  0.00  0.00    +0.285 N 
ATOM      6  O   UNL     1       2.405   5.604  -7.876  0.00  0.00    -0.534 OA
ENDBRANCH   3   5
ENDBRANCH   2   3
ENDBRANCH   1   2
BRANCH   1   7
ATOM      7  C   UNL     1       4.625   5.767 -12.464  0.00  0.00    +0.351 C 
BRANCH   7   8
ATOM      8  O   UNL     1       5.656   4.871 -12.823  0.00  0.00    -0.196 OA
BRANCH   8   9
ATOM      9  N   UNL     1       6.908   5.349 -13.129  0.00  0.00    +0.285 N 
ATOM     10  O   UNL     1       7.100   6.655 -13.525  0.00  0.00    -0.534 OA
ATOM     11  O   UNL     1       7.881   4.629 -12.786  0.00  0.00    +0.093 OA
ENDBRANCH   8   9
ENDBRANCH   7   8
ENDBRANCH   1   7
BRANCH   1  12
ATOM     12  O   UNL     1       5.558   6.331 -10.332  0.00  0.00    -0.196 OA
BRANCH  12  13
ATOM     13  N   UNL     1       6.339   5.787  -9.358  0.00  0.00    +0.285 N 
ATOM     14  O   UNL     1       5.679   4.959  -8.463  0.00  0.00    -0.534 OA
ATOM     15  O   UNL     1       7.548   5.483  -9.531  0.00  0.00    +0.093 OA
ENDBRANCH  12  13
ENDBRANCH   1  12
TORSDOF 8
ENDMDL
MODEL 8
REMARK VINA RESULT:      -4.5      5.263      7.262
REMARK  Name = 
REMARK  8 active torsions:
REMARK  status: ('A' for Active; 'I' for Inactive)
REMARK    1  A    between atoms: N_2  and  O_4
REMARK    2  A    between atoms: O_4  and  C_5
REMARK    3  A    between atoms: C_5  and  C_6
REMARK    4  A    between atoms: C_6  and  C_7
REMARK    5  A    between atoms: C_6  and  O_12
REMARK    6  A    between atoms: C_7  and  O_8
REMARK    7  A    between atoms: O_8  and  N_9
REMARK    8  A    between atoms: O_12  and  N_13
REMARK                            x       y       z     vdW  Elec       q    Type
REMARK                         _______ _______ _______ _____ _____    ______ ____
ROOT
ATOM      1  C   UNL     1       4.213   5.918 -11.293  0.00  0.00    +0.351 C 
ENDROOT
BRANCH   1   2
ATOM      2  C   UNL     1       5.454   6.715 -11.028  0.00  0.00    +0.351 C 
BRANCH   2   3
ATOM      3  O   UNL     1       6.498   6.440 -11.951  0.00  0.00    -0.196 OA
BRANCH   3   5
ATOM      4  O   UNL     1       7.707   4.692 -12.671  0.00  0.00    +0.093 OA
ATOM      5  N   UNL     1       7.257   5.316 -11.678  0.00  0.00    +0.285 N 
ATOM      6  O   UNL     1       8.062   5.307 -10.554  0.00  0.00    -0.534 OA
ENDBRANCH   3   5
ENDBRANCH   2   3
ENDBRANCH   1   2
BRANCH   1   7
ATOM      7  C   UNL     1       3.207   5.976 -10.171  0.00  0.00    +0.351 C 
BRANCH   7   8
ATOM      8  O   UNL     1       3.688   6.900  -9.218  0.00  0.00    -0.196 OA
BRANCH   8   9
ATOM      9  N   UNL     1       2.960   7.162  -8.082  0.00  0.00    +0.285 N 
ATOM     10  O   UNL     1       2.196   8.305  -7.968  0.00  0.00    -0.534 OA
ATOM     11  O   UNL     1       2.817   6.207  -7.276  0.00  0.00    +0.093 OA
ENDBRANCH   8   9
ENDBRANCH   7   8
ENDBRANCH   1   7
BRANCH   1  12
ATOM     12  O   UNL     1       3.604   6.202 -12.522  0.00  0.00    -0.196 OA
BRANCH  12  13
ATOM     13  N   UNL     1       3.777   5.509 -13.682  0.00  0.00    +0.285 N 
ATOM     14  O   UNL     1       4.480   4.319 -13.561  0.00  0.00    -0.534 OA
ATOM     15  O   UNL     1       2.938   5.508 -14.618  0.00  0.00    +0.093 OA
ENDBRANCH  12  13
ENDBRANCH   1  12
TORSDOF 8
ENDMDL
MODEL 9
REMARK VINA RESULT:      -4.4      2.062      4.351
REMARK  Name = 
REMARK  8 active torsions:
REMARK  status: ('A' for Active; 'I' for Inactive)
REMARK    1  A    between atoms: N_2  and  O_4
REMARK    2  A    between atoms: O_4  and  C_5
REMARK    3  A    between atoms: C_5  and  C_6
REMARK    4  A    between atoms: C_6  and  C_7
REMARK    5  A    between atoms: C_6  and  O_12
REMARK    6  A    between atoms: C_7  and  O_8
REMARK    7  A    between atoms: O_8  and  N_9
REMARK    8  A    between atoms: O_12  and  N_13
REMARK                            x       y       z     vdW  Elec       q    Type
REMARK                         _______ _______ _______ _____ _____    ______ ____
ROOT
ATOM      1  C   UNL     1       0.792   6.099  -4.506  0.00  0.00    +0.351 C 
ENDROOT
BRANCH   1   2
ATOM      2  C   UNL     1      -0.571   6.662  -4.233  0.00  0.00    +0.351 C 
BRANCH   2   3
ATOM      3  O   UNL     1      -1.584   5.667  -4.191  0.00  0.00    -0.196 OA
BRANCH   3   5
ATOM      4  O   UNL     1      -2.832   4.686  -2.605  0.00  0.00    +0.093 OA
ATOM      5  N   UNL     1      -2.476   5.766  -3.138  0.00  0.00    +0.285 N 
ATOM      6  O   UNL     1      -2.388   6.851  -2.285  0.00  0.00    -0.534 OA
ENDBRANCH   3   5
ENDBRANCH   2   3
ENDBRANCH   1   2
BRANCH   1   7
ATOM      7  C   UNL     1       1.769   6.311  -3.378  0.00  0.00    +0.351 C 
BRANCH   7   8
ATOM      8  O   UNL     1       1.019   6.484  -2.194  0.00  0.00    -0.196 OA
BRANCH   8   9
ATOM      9  N   UNL     1       0.959   5.475  -1.261  0.00  0.00    +0.285 N 
ATOM     10  O   UNL     1       0.286   4.300  -1.520  0.00  0.00    -0.534 OA
ATOM     11  O   UNL     1       1.749   5.566  -0.286  0.00  0.00    +0.093 OA
ENDBRANCH   8   9
ENDBRANCH   7   8
ENDBRANCH   1   7
BRANCH   1  12
ATOM     12  O   UNL     1       0.785   4.759  -4.914  0.00  0.00    -0.196 OA
BRANCH  12  13
ATOM     13  N   UNL     1       1.089   4.299  -6.160  0.00  0.00    +0.285 N 
ATOM     14  O   UNL     1       0.833   5.183  -7.197  0.00  0.00    -0.534 OA
ATOM     15  O   UNL     1       2.042   3.511  -6.391  0.00  0.00    +0.093 OA
ENDBRANCH  12  13
ENDBRANCH   1  12
TORSDOF 8
ENDMDL
