MODEL 1
REMARK VINA RESULT:     -11.2      0.000      0.000
REMARK  Name = 
REMARK  2 active torsions:
REMARK  status: ('A' for Active; 'I' for Inactive)
REMARK    1  A    between atoms: O_2  and  C_3
REMARK    2  A    between atoms: C_3  and  C_5
REMARK                            x       y       z     vdW  Elec       q    Type
REMARK                         _______ _______ _______ _____ _____    ______ ____
ROOT
ATOM      1  C   UNL     1       2.432   5.627 -10.806  0.00  0.00    +0.105 C 
ATOM      2  C   UNL     1       2.669   5.574  -9.325  0.00  0.00    +0.039 C 
ATOM      3  C   UNL     1       4.070   5.519  -8.792  0.00  0.00    +0.121 C 
ATOM      4  C   UNL     1       4.307   5.466  -7.311  0.00  0.00    +0.140 C 
ATOM      5  C   UNL     1       3.144   5.468  -6.365  0.00  0.00    +0.035 C 
ATOM      6  C   UNL     1       1.742   5.522  -6.899  0.00  0.00    +0.036 C 
ATOM      7  C   UNL     1       0.408   5.536  -6.214  0.00  0.00    +0.136 C 
ATOM      8  O   UNL     1       1.470   5.474  -5.157  0.00  0.00    -0.456 OA
ATOM      9  C   UNL     1       0.791   5.450  -3.820  0.00  0.00    +0.317 C 
ATOM     10  O   UNL     1       1.475   5.390  -2.486  0.00  0.00    -0.250 OA
ATOM     11  C   UNL     1      -0.690   5.497  -4.050  0.00  0.00    +0.113 C 
ATOM     12  C   UNL     1      -0.927   5.550  -5.530  0.00  0.00    +0.052 C 
ATOM     13  C   UNL     1      -0.654   5.598  -7.272  0.00  0.00    +0.040 C 
ATOM     14  C   UNL     1       0.024   5.622  -8.610  0.00  0.00    +0.004 C 
ATOM     15  C   UNL     1       2.183   5.465  -5.466  0.00  0.00    +0.004 C 
ATOM     16  O   UNL     1       5.471   5.465  -8.259  0.00  0.00    -0.356 OA
ATOM     17  C   UNL     1       5.234   5.518  -9.738  0.00  0.00    +0.041 C 
ATOM     18  C   UNL     1       4.996   5.571 -11.219  0.00  0.00    -0.039 C 
ATOM     19  C   UNL     1       6.160   5.570 -12.165  0.00  0.00    +0.029 C 
ATOM     20  C   UNL     1       7.560   5.515 -11.631  0.00  0.00    +0.173 C 
ATOM     21  C   UNL     1       7.798   5.462 -10.151  0.00  0.00    +0.070 C 
ATOM     22  O   UNL     1       8.724   5.514 -12.578  0.00  0.00    -0.291 OA
ATOM     23  C   UNL     1       5.546   5.486  -9.005  0.00  0.00    +0.006 C 
ATOM     24  C   UNL     1       6.634   5.464  -9.205  0.00  0.00    +0.014 C 
ATOM     25  C   UNL     1       1.505   5.575  -8.378  0.00  0.00    +0.006 C 
ATOM     26  C   UNL     1       3.595   5.625 -11.752  0.00  0.00    +0.033 C 
ENDROOT
BRANCH   1  27
ATOM     27  C   UNL     1       1.032   5.681 -11.339  0.00  0.00    +0.317 C 
ATOM     28  O   UNL     1       0.266   4.411 -11.569  0.00  0.00    -0.250 OA
BRANCH  27  30
ATOM     29  C   UNL     1       0.417   7.544 -13.042  0.00  0.00    +0.256 C 
ATOM     30  O   UNL     1       0.395   7.005 -11.643  0.00  0.00    -0.444 OA
ENDBRANCH  27  30
ENDBRANCH   1  27
TORSDOF 2
ENDMDL
MODEL 2
REMARK VINA RESULT:     -11.1      2.094      7.969
REMARK  Name = 
REMARK  2 active torsions:
REMARK  status: ('A' for Active; 'I' for Inactive)
REMARK    1  A    between atoms: O_2  and  C_3
REMARK    2  A    between atoms: C_3  and  C_5
REMARK                            x       y       z     vdW  Elec       q    Type
REMARK                         _______ _______ _______ _____ _____    ______ ____
ROOT
ATOM      1  C   UNL     1       2.593   5.619  -5.348  0.00  0.00    +0.105 C 
ATOM      2  C   UNL     1       2.233   5.583  -6.803  0.00  0.00    +0.039 C 
ATOM      3  C   UNL     1       0.793   5.524  -7.218  0.00  0.00    +0.121 C 
ATOM      4  C   UNL     1       0.432   5.488  -8.674  0.00  0.00    +0.140 C 
ATOM      5  C   UNL     1       1.512   5.511  -9.714  0.00  0.00    +0.035 C 
ATOM      6  C   UNL     1       2.953   5.569  -9.300  0.00  0.00    +0.036 C 
ATOM      7  C   UNL     1       4.225   5.602 -10.093  0.00  0.00    +0.136 C 
ATOM      8  O   UNL     1       3.078   5.546 -11.058  0.00  0.00    -0.456 OA
ATOM      9  C   UNL     1       3.643   5.544 -12.448  0.00  0.00    +0.317 C 
ATOM     10  O   UNL     1       2.850   5.495 -13.720  0.00  0.00    -0.250 OA
ATOM     11  C   UNL     1       5.138   5.599 -12.342  0.00  0.00    +0.113 C 
ATOM     12  C   UNL     1       5.498   5.635 -10.886  0.00  0.00    +0.052 C 
ATOM     13  C   UNL     1       5.372   5.658  -9.127  0.00  0.00    +0.040 C 
ATOM     14  C   UNL     1       4.808   5.660  -7.737  0.00  0.00    +0.004 C 
ATOM     15  C   UNL     1       2.394   5.527 -10.691  0.00  0.00    +0.004 C 
ATOM     16  O   UNL     1      -0.647   5.466  -7.633  0.00  0.00    -0.356 OA
ATOM     17  C   UNL     1      -0.288   5.502  -6.177  0.00  0.00    +0.041 C 
ATOM     18  C   UNL     1       0.073   5.538  -4.722  0.00  0.00    -0.039 C 
ATOM     19  C   UNL     1      -1.007   5.516  -3.681  0.00  0.00    +0.029 C 
ATOM     20  C   UNL     1      -2.447   5.458  -4.096  0.00  0.00    +0.173 C 
ATOM     21  C   UNL     1      -2.807   5.422  -5.552  0.00  0.00    +0.070 C 
ATOM     22  O   UNL     1      -3.528   5.435  -3.055  0.00  0.00    -0.291 OA
ATOM     23  C   UNL     1      -0.661   5.478  -6.882  0.00  0.00    +0.006 C 
ATOM     24  C   UNL     1      -1.727   5.444  -6.592  0.00  0.00    +0.014 C 
ATOM     25  C   UNL     1       3.313   5.605  -7.844  0.00  0.00    +0.006 C 
ATOM     26  C   UNL     1       1.513   5.596  -4.307  0.00  0.00    +0.033 C 
ENDROOT
BRANCH   1  27
ATOM     27  C   UNL     1       4.033   5.677  -4.933  0.00  0.00    +0.317 C 
ATOM     28  O   UNL     1       4.757   4.417  -4.558  0.00  0.00    -0.250 OA
BRANCH  27  30
ATOM     29  C   UNL     1       4.753   7.807  -3.631  0.00  0.00    +0.256 C 
ATOM     30  O   UNL     1       4.749   6.994  -4.892  0.00  0.00    -0.444 OA
ENDBRANCH  27  30
ENDBRANCH   1  27
TORSDOF 2
ENDMDL
MODEL 3
REMARK VINA RESULT:     -10.8      1.294      6.653
REMARK  Name = 
REMARK  2 active torsions:
REMARK  status: ('A' for Active; 'I' for Inactive)
REMARK    1  A    between atoms: O_2  and  C_3
REMARK    2  A    between atoms: C_3  and  C_5
REMARK                            x       y       z     vdW  Elec       q    Type
REMARK                         _______ _______ _______ _____ _____    ______ ____
ROOT
ATOM      1  C   UNL     1       1.489   5.842  -8.822  0.00  0.00    +0.105 C 
ATOM      2  C   UNL     1       2.962   5.734  -9.087  0.00  0.00    +0.039 C 
ATOM      3  C   UNL     1       3.923   5.609  -7.942  0.00  0.00    +0.121 C 
ATOM      4  C   UNL     1       5.395   5.501  -8.206  0.00  0.00    +0.140 C 
ATOM      5  C   UNL     1       5.907   5.519  -9.616  0.00  0.00    +0.035 C 
ATOM      6  C   UNL     1       4.946   5.644 -10.762  0.00  0.00    +0.036 C 
ATOM      7  C   UNL     1       5.155   5.690 -12.246  0.00  0.00    +0.136 C 
ATOM      8  O   UNL     1       6.498   5.554 -11.593  0.00  0.00    -0.456 OA
ATOM      9  C   UNL     1       7.537   5.515 -12.675  0.00  0.00    +0.317 C 
ATOM     10  O   UNL     1       9.017   5.387 -12.470  0.00  0.00    -0.250 OA
ATOM     11  C   UNL     1       6.836   5.627 -13.996  0.00  0.00    +0.113 C 
ATOM     12  C   UNL     1       5.363   5.735 -13.731  0.00  0.00    +0.052 C 
ATOM     13  C   UNL     1       3.811   5.826 -12.899  0.00  0.00    +0.040 C 
ATOM     14  C   UNL     1       2.772   5.864 -11.818  0.00  0.00    +0.004 C 
ATOM     15  C   UNL     1       6.440   5.526 -10.819  0.00  0.00    +0.004 C 
ATOM     16  O   UNL     1       4.883   5.483  -6.796  0.00  0.00    -0.356 OA
ATOM     17  C   UNL     1       3.411   5.591  -6.531  0.00  0.00    +0.041 C 
ATOM     18  C   UNL     1       1.938   5.699  -6.267  0.00  0.00    -0.039 C 
ATOM     19  C   UNL     1       1.427   5.681  -4.857  0.00  0.00    +0.029 C 
ATOM     20  C   UNL     1       2.387   5.555  -3.713  0.00  0.00    +0.173 C 
ATOM     21  C   UNL     1       3.860   5.447  -3.977  0.00  0.00    +0.070 C 
ATOM     22  O   UNL     1       1.875   5.538  -2.302  0.00  0.00    -0.291 OA
ATOM     23  C   UNL     1       4.204   5.525  -6.478  0.00  0.00    +0.006 C 
ATOM     24  C   UNL     1       4.371   5.465  -5.387  0.00  0.00    +0.014 C 
ATOM     25  C   UNL     1       3.474   5.752 -10.497  0.00  0.00    +0.006 C 
ATOM     26  C   UNL     1       0.978   5.825  -7.412  0.00  0.00    +0.033 C 
ENDROOT
BRANCH   1  27
ATOM     27  C   UNL     1       0.529   5.968  -9.967  0.00  0.00    +0.317 C 
ATOM     28  O   UNL     1      -0.109   4.741 -10.549  0.00  0.00    -0.250 OA
BRANCH  27  30
ATOM     29  C   UNL     1      -0.788   7.449 -11.646  0.00  0.00    +0.256 C 
ATOM     30  O   UNL     1       0.205   7.320 -10.529  0.00  0.00    -0.444 OA
ENDBRANCH  27  30
ENDBRANCH   1  27
TORSDOF 2
ENDMDL
MODEL 4
REMARK VINA RESULT:     -10.4      2.506      5.176
REMARK  Name = 
REMARK  2 active torsions:
REMARK  status: ('A' for Active; 'I' for Inactive)
REMARK    1  A    between atoms: O_2  and  C_3
REMARK    2  A    between atoms: C_3  and  C_5
REMARK                            x       y       z     vdW  Elec       q    Type
REMARK                         _______ _______ _______ _____ _____    ______ ____
ROOT
ATOM      1  C   UNL     1       3.145   6.055  -6.849  0.00  0.00    +0.105 C 
ATOM      2  C   UNL     1       1.686   5.913  -6.529  0.00  0.00    +0.039 C 
ATOM      3  C   UNL     1       0.688   5.743  -7.635  0.00  0.00    +0.121 C 
ATOM      4  C   UNL     1      -0.770   5.600  -7.314  0.00  0.00    +0.140 C 
ATOM      5  C   UNL     1      -1.230   5.629  -5.887  0.00  0.00    +0.035 C 
ATOM      6  C   UNL     1      -0.232   5.800  -4.780  0.00  0.00    +0.036 C 
ATOM      7  C   UNL     1      -0.387   5.865  -3.289  0.00  0.00    +0.136 C 
ATOM      8  O   UNL     1      -1.750   5.682  -3.890  0.00  0.00    -0.456 OA
ATOM      9  C   UNL     1      -2.747   5.635  -2.770  0.00  0.00    +0.317 C 
ATOM     10  O   UNL     1      -4.229   5.464  -2.918  0.00  0.00    -0.250 OA
ATOM     11  C   UNL     1      -2.001   5.788  -1.478  0.00  0.00    +0.113 C 
ATOM     12  C   UNL     1      -0.542   5.930  -1.799  0.00  0.00    +0.052 C 
ATOM     13  C   UNL     1       0.975   6.048  -2.690  0.00  0.00    +0.040 C 
ATOM     14  C   UNL     1       1.973   6.095  -3.809  0.00  0.00    +0.004 C 
ATOM     15  C   UNL     1      -1.719   5.643  -4.666  0.00  0.00    +0.004 C 
ATOM     16  O   UNL     1      -0.309   5.572  -8.742  0.00  0.00    -0.356 OA
ATOM     17  C   UNL     1       1.148   5.714  -9.063  0.00  0.00    +0.041 C 
ATOM     18  C   UNL     1       2.607   5.856  -9.383  0.00  0.00    -0.039 C 
ATOM     19  C   UNL     1       3.067   5.828 -10.811  0.00  0.00    +0.029 C 
ATOM     20  C   UNL     1       2.069   5.657 -11.917  0.00  0.00    +0.173 C 
ATOM     21  C   UNL     1       0.610   5.515 -11.596  0.00  0.00    +0.070 C 
ATOM     22  O   UNL     1       2.529   5.629 -13.345  0.00  0.00    -0.291 OA
ATOM     23  C   UNL     1       0.356   5.626  -9.085  0.00  0.00    +0.006 C 
ATOM     24  C   UNL     1       0.150   5.543 -10.169  0.00  0.00    +0.014 C 
ATOM     25  C   UNL     1       1.226   5.942  -5.101  0.00  0.00    +0.006 C 
ATOM     26  C   UNL     1       3.605   6.027  -8.277  0.00  0.00    +0.033 C 
ENDROOT
BRANCH   1  27
ATOM     27  C   UNL     1       4.143   6.226  -5.743  0.00  0.00    +0.317 C 
ATOM     28  O   UNL     1       4.834   5.026  -5.165  0.00  0.00    -0.250 OA
BRANCH  27  30
ATOM     29  C   UNL     1       5.370   7.757  -4.041  0.00  0.00    +0.256 C 
ATOM     30  O   UNL     1       4.451   7.596  -5.215  0.00  0.00    -0.444 OA
ENDBRANCH  27  30
ENDBRANCH   1  27
TORSDOF 2
ENDMDL
MODEL 5
REMARK VINA RESULT:     -10.1      1.272      6.840
REMARK  Name = 
REMARK  2 active torsions:
REMARK  status: ('A' for Active; 'I' for Inactive)
REMARK    1  A    between atoms: O_2  and  C_3
REMARK    2  A    between atoms: C_3  and  C_5
REMARK                            x       y       z     vdW  Elec       q    Type
REMARK                         _______ _______ _______ _____ _____    ______ ____
ROOT
ATOM      1  C   UNL     1       1.176   5.628 -10.291  0.00  0.00    +0.105 C 
ATOM      2  C   UNL     1       2.671   5.629 -10.165  0.00  0.00    +0.039 C 
ATOM      3  C   UNL     1       3.309   5.554  -8.810  0.00  0.00    +0.121 C 
ATOM      4  C   UNL     1       4.804   5.555  -8.684  0.00  0.00    +0.140 C 
ATOM      5  C   UNL     1       5.660   5.632  -9.913  0.00  0.00    +0.035 C 
ATOM      6  C   UNL     1       5.021   5.708 -11.269  0.00  0.00    +0.036 C 
ATOM      7  C   UNL     1       5.603   5.792 -12.649  0.00  0.00    +0.136 C 
ATOM      8  O   UNL     1       6.738   5.741 -11.670  0.00  0.00    -0.456 OA
ATOM      9  C   UNL     1       8.021   5.794 -12.445  0.00  0.00    +0.317 C 
ATOM     10  O   UNL     1       9.403   5.768 -11.864  0.00  0.00    -0.250 OA
ATOM     11  C   UNL     1       7.679   5.877 -13.903  0.00  0.00    +0.113 C 
ATOM     12  C   UNL     1       6.184   5.876 -14.029  0.00  0.00    +0.052 C 
ATOM     13  C   UNL     1       4.467   5.843 -13.628  0.00  0.00    +0.040 C 
ATOM     14  C   UNL     1       3.184   5.790 -12.853  0.00  0.00    +0.004 C 
ATOM     15  C   UNL     1       6.484   5.697 -10.936  0.00  0.00    +0.004 C 
ATOM     16  O   UNL     1       3.947   5.478  -7.455  0.00  0.00    -0.356 OA
ATOM     17  C   UNL     1       2.453   5.477  -7.581  0.00  0.00    +0.041 C 
ATOM     18  C   UNL     1       0.958   5.475  -7.707  0.00  0.00    -0.039 C 
ATOM     19  C   UNL     1       0.102   5.398  -6.478  0.00  0.00    +0.029 C 
ATOM     20  C   UNL     1       0.740   5.323  -5.123  0.00  0.00    +0.173 C 
ATOM     21  C   UNL     1       2.235   5.324  -4.997  0.00  0.00    +0.070 C 
ATOM     22  O   UNL     1      -0.116   5.245  -3.893  0.00  0.00    -0.291 OA
ATOM     23  C   UNL     1       3.208   5.466  -7.324  0.00  0.00    +0.006 C 
ATOM     24  C   UNL     1       3.091   5.401  -6.226  0.00  0.00    +0.014 C 
ATOM     25  C   UNL     1       3.527   5.706 -11.395  0.00  0.00    +0.006 C 
ATOM     26  C   UNL     1       0.320   5.551  -9.062  0.00  0.00    +0.033 C 
ENDROOT
BRANCH   1  27
ATOM     27  C   UNL     1       0.537   5.704 -11.646  0.00  0.00    +0.317 C 
ATOM     28  O   UNL     1       0.201   7.039 -12.244  0.00  0.00    -0.250 OA
BRANCH  27  30
ATOM     29  C   UNL     1       0.483   4.383 -13.882  0.00  0.00    +0.256 C 
ATOM     30  O   UNL     1       0.234   4.445 -12.404  0.00  0.00    -0.444 OA
ENDBRANCH  27  30
ENDBRANCH   1  27
TORSDOF 2
ENDMDL
MODEL 6
REMARK VINA RESULT:     -10.0      1.099      6.641
REMARK  Name = 
REMARK  2 active torsions:
REMARK  status: ('A' for Active; 'I' for Inactive)
REMARK    1  A    between atoms: O_2  and  C_3
REMARK    2  A    between atoms: C_3  and  C_5
REMARK                            x       y       z     vdW  Elec       q    Type
REMARK                         _______ _______ _______ _____ _____    ______ ____
ROOT
ATOM      1  C   UNL     1       0.410   5.753  -8.998  0.00  0.00    +0.105 C 
ATOM      2  C   UNL     1       1.866   5.624  -8.659  0.00  0.00    +0.039 C 
ATOM      3  C   UNL     1       2.293   5.485  -7.228  0.00  0.00    +0.121 C 
ATOM      4  C   UNL     1       3.749   5.355  -6.889  0.00  0.00    +0.140 C 
ATOM      5  C   UNL     1       4.777   5.365  -7.981  0.00  0.00    +0.035 C 
ATOM      6  C   UNL     1       4.349   5.504  -9.413  0.00  0.00    +0.036 C 
ATOM      7  C   UNL     1       5.129   5.545 -10.694  0.00  0.00    +0.136 C 
ATOM      8  O   UNL     1       6.103   5.390  -9.563  0.00  0.00    -0.456 OA
ATOM      9  C   UNL     1       7.484   5.335 -10.146  0.00  0.00    +0.317 C 
ATOM     10  O   UNL     1       8.760   5.186  -9.373  0.00  0.00    -0.250 OA
ATOM     11  C   UNL     1       7.364   5.457 -11.636  0.00  0.00    +0.113 C 
ATOM     12  C   UNL     1       5.908   5.586 -11.975  0.00  0.00    +0.052 C 
ATOM     13  C   UNL     1       4.155   5.700 -11.824  0.00  0.00    +0.040 C 
ATOM     14  C   UNL     1       2.773   5.754 -11.242  0.00  0.00    +0.004 C 
ATOM     15  C   UNL     1       5.742   5.363  -8.875  0.00  0.00    +0.004 C 
ATOM     16  O   UNL     1       2.720   5.346  -5.797  0.00  0.00    -0.356 OA
ATOM     17  C   UNL     1       1.265   5.475  -6.135  0.00  0.00    +0.041 C 
ATOM     18  C   UNL     1      -0.191   5.605  -6.474  0.00  0.00    -0.039 C 
ATOM     19  C   UNL     1      -1.218   5.595  -5.382  0.00  0.00    +0.029 C 
ATOM     20  C   UNL     1      -0.791   5.457  -3.951  0.00  0.00    +0.173 C 
ATOM     21  C   UNL     1       0.665   5.327  -3.612  0.00  0.00    +0.070 C 
ATOM     22  O   UNL     1      -1.819   5.447  -2.859  0.00  0.00    -0.291 OA
ATOM     23  C   UNL     1       1.971   5.398  -5.773  0.00  0.00    +0.006 C 
ATOM     24  C   UNL     1       1.693   5.337  -4.705  0.00  0.00    +0.014 C 
ATOM     25  C   UNL     1       2.894   5.633  -9.752  0.00  0.00    +0.006 C 
ATOM     26  C   UNL     1      -0.617   5.744  -7.905  0.00  0.00    +0.033 C 
ENDROOT
BRANCH   1  27
ATOM     27  C   UNL     1      -0.017   5.892 -10.428  0.00  0.00    +0.317 C 
ATOM     28  O   UNL     1      -0.271   4.667 -11.258  0.00  0.00    -0.250 OA
BRANCH  27  30
ATOM     29  C   UNL     1      -0.007   7.451 -12.506  0.00  0.00    +0.256 C 
ATOM     30  O   UNL     1      -0.192   7.255 -11.031  0.00  0.00    -0.444 OA
ENDBRANCH  27  30
ENDBRANCH   1  27
TORSDOF 2
ENDMDL
MODEL 7
REMARK VINA RESULT:      -9.6      2.714      8.357
REMARK  Name = 
REMARK  2 active torsions:
REMARK  status: ('A' for Active; 'I' for Inactive)
REMARK    1  A    between atoms: O_2  and  C_3
REMARK    2  A    between atoms: C_3  and  C_5
REMARK                            x       y       z     vdW  Elec       q    Type
REMARK                         _______ _______ _______ _____ _____    ______ ____
ROOT
ATOM      1  C   UNL     1       2.590   6.473  -3.980  0.00  0.00    +0.105 C 
ATOM      2  C   UNL     1       1.689   6.157  -5.137  0.00  0.00    +0.039 C 
ATOM      3  C   UNL     1       0.231   5.898  -4.903  0.00  0.00    +0.121 C 
ATOM      4  C   UNL     1      -0.671   5.582  -6.060  0.00  0.00    +0.140 C 
ATOM      5  C   UNL     1      -0.113   5.526  -7.451  0.00  0.00    +0.035 C 
ATOM      6  C   UNL     1       1.346   5.785  -7.686  0.00  0.00    +0.036 C 
ATOM      7  C   UNL     1       2.174   5.798  -8.936  0.00  0.00    +0.136 C 
ATOM      8  O   UNL     1       0.761   5.474  -9.320  0.00  0.00    -0.456 OA
ATOM      9  C   UNL     1       0.717   5.288 -10.807  0.00  0.00    +0.317 C 
ATOM     10  O   UNL     1      -0.500   4.951 -11.617  0.00  0.00    -0.250 OA
ATOM     11  C   UNL     1       2.102   5.496 -11.343  0.00  0.00    +0.113 C 
ATOM     12  C   UNL     1       3.004   5.812 -10.186  0.00  0.00    +0.052 C 
ATOM     13  C   UNL     1       3.588   6.123  -8.551  0.00  0.00    +0.040 C 
ATOM     14  C   UNL     1       3.633   6.309  -7.063  0.00  0.00    +0.004 C 
ATOM     15  C   UNL     1       0.292   5.456  -8.701  0.00  0.00    +0.004 C 
ATOM     16  O   UNL     1      -1.228   5.639  -4.668  0.00  0.00    -0.356 OA
ATOM     17  C   UNL     1      -0.328   5.955  -3.511  0.00  0.00    +0.041 C 
ATOM     18  C   UNL     1       0.574   6.271  -2.354  0.00  0.00    -0.039 C 
ATOM     19  C   UNL     1       0.016   6.327  -0.963  0.00  0.00    +0.029 C 
ATOM     20  C   UNL     1      -1.442   6.068  -0.729  0.00  0.00    +0.173 C 
ATOM     21  C   UNL     1      -2.344   5.753  -1.886  0.00  0.00    +0.070 C 
ATOM     22  O   UNL     1      -2.000   6.125   0.663  0.00  0.00    -0.291 OA
ATOM     23  C   UNL     1      -0.942   5.777  -3.987  0.00  0.00    +0.006 C 
ATOM     24  C   UNL     1      -1.786   5.696  -3.277  0.00  0.00    +0.014 C 
ATOM     25  C   UNL     1       2.247   6.101  -6.529  0.00  0.00    +0.006 C 
ATOM     26  C   UNL     1       2.032   6.530  -2.589  0.00  0.00    +0.033 C 
ENDROOT
BRANCH   1  27
ATOM     27  C   UNL     1       4.048   6.732  -4.214  0.00  0.00    +0.317 C 
ATOM     28  O   UNL     1       4.527   8.125  -4.500  0.00  0.00    -0.250 OA
BRANCH  27  30
ATOM     29  C   UNL     1       4.537   4.182  -4.125  0.00  0.00    +0.256 C 
ATOM     30  O   UNL     1       5.030   5.598  -4.163  0.00  0.00    -0.444 OA
ENDBRANCH  27  30
ENDBRANCH   1  27
TORSDOF 2
ENDMDL
MODEL 8
REMARK VINA RESULT:      -9.5      2.877      7.512
REMARK  Name = 
REMARK  2 active torsions:
REMARK  status: ('A' for Active; 'I' for Inactive)
REMARK    1  A    between atoms: O_2  and  C_3
REMARK    2  A    between atoms: C_3  and  C_5
REMARK                            x       y       z     vdW  Elec       q    Type
REMARK                         _______ _______ _______ _____ _____    ______ ____
ROOT
ATOM      1  C   UNL     1      -0.248   6.109  -3.138  0.00  0.00    +0.105 C 
ATOM      2  C   UNL     1       0.769   6.030  -4.239  0.00  0.00    +0.039 C 
ATOM      3  C   UNL     1       2.226   6.193  -3.927  0.00  0.00    +0.121 C 
ATOM      4  C   UNL     1       3.243   6.113  -5.028  0.00  0.00    +0.140 C 
ATOM      5  C   UNL     1       2.801   5.870  -6.440  0.00  0.00    +0.035 C 
ATOM      6  C   UNL     1       1.342   5.706  -6.752  0.00  0.00    +0.036 C 
ATOM      7  C   UNL     1       0.613   5.458  -8.039  0.00  0.00    +0.136 C 
ATOM      8  O   UNL     1       2.080   5.532  -8.344  0.00  0.00    -0.456 OA
ATOM      9  C   UNL     1       2.257   5.329  -9.820  0.00  0.00    +0.317 C 
ATOM     10  O   UNL     1       3.562   5.325 -10.558  0.00  0.00    -0.250 OA
ATOM     11  C   UNL     1       0.900   5.130 -10.427  0.00  0.00    +0.113 C 
ATOM     12  C   UNL     1      -0.117   5.210  -9.326  0.00  0.00    +0.052 C 
ATOM     13  C   UNL     1      -0.854   5.384  -7.733  0.00  0.00    +0.040 C 
ATOM     14  C   UNL     1      -1.031   5.587  -6.258  0.00  0.00    +0.004 C 
ATOM     15  C   UNL     1       2.501   5.660  -7.703  0.00  0.00    +0.004 C 
ATOM     16  O   UNL     1       3.684   6.357  -3.614  0.00  0.00    -0.356 OA
ATOM     17  C   UNL     1       2.669   6.437  -2.514  0.00  0.00    +0.041 C 
ATOM     18  C   UNL     1       1.652   6.517  -1.413  0.00  0.00    -0.039 C 
ATOM     19  C   UNL     1       2.095   6.760  -0.001  0.00  0.00    +0.029 C 
ATOM     20  C   UNL     1       3.552   6.924   0.311  0.00  0.00    +0.173 C 
ATOM     21  C   UNL     1       4.569   6.844  -0.790  0.00  0.00    +0.070 C 
ATOM     22  O   UNL     1       3.995   7.167   1.724  0.00  0.00    -0.291 OA
ATOM     23  C   UNL     1       3.334   6.426  -2.954  0.00  0.00    +0.006 C 
ATOM     24  C   UNL     1       4.126   6.600  -2.202  0.00  0.00    +0.014 C 
ATOM     25  C   UNL     1       0.326   5.786  -5.652  0.00  0.00    +0.006 C 
ATOM     26  C   UNL     1       0.195   6.353  -1.726  0.00  0.00    +0.033 C 
ENDROOT
BRANCH   1  27
ATOM     27  C   UNL     1      -1.705   5.946  -3.450  0.00  0.00    +0.317 C 
ATOM     28  O   UNL     1      -2.422   4.691  -3.047  0.00  0.00    -0.250 OA
BRANCH  27  30
ATOM     29  C   UNL     1      -1.940   8.447  -4.111  0.00  0.00    +0.256 C 
ATOM     30  O   UNL     1      -2.447   7.037  -4.164  0.00  0.00    -0.444 OA
ENDBRANCH  27  30
ENDBRANCH   1  27
TORSDOF 2
ENDMDL
MODEL 9
REMARK VINA RESULT:      -9.3      1.551      2.207
REMARK  Name = 
REMARK  2 active torsions:
REMARK  status: ('A' for Active; 'I' for Inactive)
REMARK    1  A    between atoms: O_2  and  C_3
REMARK    2  A    between atoms: C_3  and  C_5
REMARK                            x       y       z     vdW  Elec       q    Type
REMARK                         _______ _______ _______ _____ _____    ______ ____
ROOT
ATOM      1  C   UNL     1       2.410   5.850 -12.003  0.00  0.00    +0.105 C 
ATOM      2  C   UNL     1       3.082   5.719 -10.668  0.00  0.00    +0.039 C 
ATOM      3  C   UNL     1       4.578   5.752 -10.575  0.00  0.00    +0.121 C 
ATOM      4  C   UNL     1       5.251   5.620  -9.241  0.00  0.00    +0.140 C 
ATOM      5  C   UNL     1       4.426   5.456  -7.999  0.00  0.00    +0.035 C 
ATOM      6  C   UNL     1       2.929   5.422  -8.091  0.00  0.00    +0.036 C 
ATOM      7  C   UNL     1       1.862   5.273  -7.047  0.00  0.00    +0.136 C 
ATOM      8  O   UNL     1       3.194   5.234  -6.358  0.00  0.00    -0.456 OA
ATOM      9  C   UNL     1       2.949   5.060  -4.888  0.00  0.00    +0.317 C 
ATOM     10  O   UNL     1       4.003   4.971  -3.825  0.00  0.00    -0.250 OA
ATOM     11  C   UNL     1       1.467   4.992  -4.669  0.00  0.00    +0.113 C 
ATOM     12  C   UNL     1       0.795   5.124  -6.004  0.00  0.00    +0.052 C 
ATOM     13  C   UNL     1       0.531   5.312  -7.737  0.00  0.00    +0.040 C 
ATOM     14  C   UNL     1       0.775   5.486  -9.208  0.00  0.00    +0.004 C 
ATOM     15  C   UNL     1       3.781   5.308  -6.862  0.00  0.00    +0.004 C 
ATOM     16  O   UNL     1       6.075   5.785 -10.484  0.00  0.00    -0.356 OA
ATOM     17  C   UNL     1       5.404   5.917 -11.818  0.00  0.00    +0.041 C 
ATOM     18  C   UNL     1       4.731   6.048 -13.152  0.00  0.00    -0.039 C 
ATOM     19  C   UNL     1       5.556   6.213 -14.394  0.00  0.00    +0.029 C 
ATOM     20  C   UNL     1       7.052   6.246 -14.302  0.00  0.00    +0.173 C 
ATOM     21  C   UNL     1       7.725   6.114 -12.967  0.00  0.00    +0.070 C 
ATOM     22  O   UNL     1       7.877   6.411 -15.544  0.00  0.00    -0.291 OA
ATOM     23  C   UNL     1       5.923   5.863 -11.215  0.00  0.00    +0.006 C 
ATOM     24  C   UNL     1       6.900   5.950 -11.725  0.00  0.00    +0.014 C 
ATOM     25  C   UNL     1       2.257   5.554  -9.425  0.00  0.00    +0.006 C 
ATOM     26  C   UNL     1       3.234   6.015 -13.244  0.00  0.00    +0.033 C 
ENDROOT
BRANCH   1  27
ATOM     27  C   UNL     1       0.913   5.817 -12.095  0.00  0.00    +0.317 C 
ATOM     28  O   UNL     1       0.113   7.040 -11.755  0.00  0.00    -0.250 OA
BRANCH  27  30
ATOM     29  C   UNL     1       0.426   4.027 -13.914  0.00  0.00    +0.256 C 
ATOM     30  O   UNL     1       0.216   4.561 -12.528  0.00  0.00    -0.444 OA
ENDBRANCH  27  30
ENDBRANCH   1  27
TORSDOF 2
ENDMDL
