MODEL 1
REMARK VINA RESULT:      -7.5      0.000      0.000
REMARK  Name = 
REMARK  2 active torsions:
REMARK  status: ('A' for Active; 'I' for Inactive)
REMARK    1  A    between atoms: C_2  and  C_4
REMARK    2  A    between atoms: C_6  and  C_7
REMARK                            x       y       z     vdW  Elec       q    Type
REMARK                         _______ _______ _______ _____ _____    ______ ____
ROOT
ATOM      1  C   UNL     1       1.030   5.159  -6.180  0.00  0.00    +0.119 A 
ATOM      2  C   UNL     1       0.729   5.486  -7.486  0.00  0.00    +0.202 A 
ATOM      3  O   UNL     1       1.763   5.912  -8.318  0.00  0.00    -0.286 OA
ATOM      4  C   UNL     1      -0.605   5.602  -7.840  0.00  0.00    +0.042 A 
ATOM      5  C   UNL     1      -1.604   5.397  -6.896  0.00  0.00    +0.003 A 
ATOM      6  C   UNL     1      -1.298   5.452  -5.542  0.00  0.00    +0.003 A 
ATOM      7  C   UNL     1       0.040   5.280  -5.226  0.00  0.00    +0.010 A 
ENDROOT
BRANCH   6   8
ATOM      8  C   UNL     1      -2.142   6.191  -4.595  0.00  0.00    +0.028 A 
ATOM      9  C   UNL     1      -1.808   7.472  -4.167  0.00  0.00    +0.142 A 
ATOM     10  F   UNL     1      -1.123   8.244  -5.036  0.00  0.00    -0.204 F 
ATOM     11  C   UNL     1      -2.019   7.823  -2.839  0.00  0.00    +0.059 A 
ATOM     12  C   UNL     1      -2.690   6.979  -1.967  0.00  0.00    +0.142 A 
ATOM     13  F   UNL     1      -2.515   6.999  -0.629  0.00  0.00    -0.204 F 
ATOM     14  C   UNL     1      -3.490   6.023  -2.579  0.00  0.00    +0.030 A 
ATOM     15  C   UNL     1      -3.082   5.532  -3.814  0.00  0.00    +0.005 A 
ENDBRANCH   6   8
BRANCH   1  17
ATOM     16  O   UNL     1       2.227   3.189  -6.260  0.00  0.00    -0.240 OA
ATOM     17  C   UNL     1       2.272   4.414  -5.931  0.00  0.00    +0.391 C 
ATOM     18  O   UNL     1       2.985   4.763  -4.785  0.00  0.00    -0.240 OA
ENDBRANCH   1  17
TORSDOF 2
ENDMDL
MODEL 2
REMARK VINA RESULT:      -7.4      3.293      5.478
REMARK  Name = 
REMARK  2 active torsions:
REMARK  status: ('A' for Active; 'I' for Inactive)
REMARK    1  A    between atoms: C_2  and  C_4
REMARK    2  A    between atoms: C_6  and  C_7
REMARK                            x       y       z     vdW  Elec       q    Type
REMARK                         _______ _______ _______ _____ _____    ______ ____
ROOT
ATOM      1  C   UNL     1      -0.655   5.491  -3.162  0.00  0.00    +0.119 A 
ATOM      2  C   UNL     1      -2.019   5.517  -3.360  0.00  0.00    +0.202 A 
ATOM      3  O   UNL     1      -2.823   4.720  -2.546  0.00  0.00    -0.286 OA
ATOM      4  C   UNL     1      -2.504   6.144  -4.496  0.00  0.00    +0.042 A 
ATOM      5  C   UNL     1      -1.628   6.722  -5.407  0.00  0.00    +0.003 A 
ATOM      6  C   UNL     1      -0.286   6.363  -5.401  0.00  0.00    +0.003 A 
ATOM      7  C   UNL     1       0.171   5.787  -4.228  0.00  0.00    +0.010 A 
ENDROOT
BRANCH   6   8
ATOM      8  C   UNL     1       0.430   6.060  -6.646  0.00  0.00    +0.028 A 
ATOM      9  C   UNL     1       1.552   6.784  -7.036  0.00  0.00    +0.142 A 
ATOM     10  F   UNL     1       2.321   7.292  -6.050  0.00  0.00    -0.204 F 
ATOM     11  C   UNL     1       1.723   7.106  -8.378  0.00  0.00    +0.059 A 
ATOM     12  C   UNL     1       0.881   6.598  -9.354  0.00  0.00    +0.142 A 
ATOM     13  F   UNL     1       0.663   7.206 -10.539  0.00  0.00    -0.204 F 
ATOM     14  C   UNL     1       0.184   5.454  -8.987  0.00  0.00    +0.030 A 
ATOM     15  C   UNL     1      -0.172   5.314  -7.651  0.00  0.00    +0.005 A 
ENDBRANCH   6   8
BRANCH   1  17
ATOM     16  O   UNL     1       0.206   6.584  -1.322  0.00  0.00    -0.240 OA
ATOM     17  C   UNL     1      -0.166   5.459  -1.776  0.00  0.00    +0.391 C 
ATOM     18  O   UNL     1       0.553   4.326  -1.399  0.00  0.00    -0.240 OA
ENDBRANCH   1  17
TORSDOF 2
ENDMDL
MODEL 3
REMARK VINA RESULT:      -7.3      5.949      7.887
REMARK  Name = 
REMARK  2 active torsions:
REMARK  status: ('A' for Active; 'I' for Inactive)
REMARK    1  A    between atoms: C_2  and  C_4
REMARK    2  A    between atoms: C_6  and  C_7
REMARK                            x       y       z     vdW  Elec       q    Type
REMARK                         _______ _______ _______ _____ _____    ______ ____
ROOT
ATOM      1  C   UNL     1       5.310   5.371 -12.343  0.00  0.00    +0.119 A 
ATOM      2  C   UNL     1       6.672   5.429 -12.134  0.00  0.00    +0.202 A 
ATOM      3  O   UNL     1       7.498   4.614 -12.906  0.00  0.00    -0.286 OA
ATOM      4  C   UNL     1       7.134   6.109 -11.019  0.00  0.00    +0.042 A 
ATOM      5  C   UNL     1       6.239   6.708 -10.140  0.00  0.00    +0.003 A 
ATOM      6  C   UNL     1       4.903   6.326 -10.145  0.00  0.00    +0.003 A 
ATOM      7  C   UNL     1       4.468   5.695 -11.298  0.00  0.00    +0.010 A 
ENDROOT
BRANCH   6   8
ATOM      8  C   UNL     1       4.179   6.060  -8.896  0.00  0.00    +0.028 A 
ATOM      9  C   UNL     1       2.996   6.722  -8.584  0.00  0.00    +0.142 A 
ATOM     10  F   UNL     1       2.217   7.096  -9.621  0.00  0.00    -0.204 F 
ATOM     11  C   UNL     1       2.766   7.127  -7.275  0.00  0.00    +0.059 A 
ATOM     12  C   UNL     1       3.618   6.758  -6.245  0.00  0.00    +0.142 A 
ATOM     13  F   UNL     1       3.759   7.467  -5.106  0.00  0.00    -0.204 F 
ATOM     14  C   UNL     1       4.409   5.648  -6.511  0.00  0.00    +0.030 A 
ATOM     15  C   UNL     1       4.809   5.438  -7.826  0.00  0.00    +0.005 A 
ENDBRANCH   6   8
BRANCH   1  17
ATOM     16  O   UNL     1       5.143   6.266 -14.463  0.00  0.00    -0.240 OA
ATOM     17  C   UNL     1       4.837   5.275 -13.731  0.00  0.00    +0.391 C 
ATOM     18  O   UNL     1       3.593   4.674 -13.921  0.00  0.00    -0.240 OA
ENDBRANCH   1  17
TORSDOF 2
ENDMDL
MODEL 4
REMARK VINA RESULT:      -7.2      3.280      5.553
REMARK  Name = 
REMARK  2 active torsions:
REMARK  status: ('A' for Active; 'I' for Inactive)
REMARK    1  A    between atoms: C_2  and  C_4
REMARK    2  A    between atoms: C_6  and  C_7
REMARK                            x       y       z     vdW  Elec       q    Type
REMARK                         _______ _______ _______ _____ _____    ______ ____
ROOT
ATOM      1  C   UNL     1      -0.670   5.600  -3.007  0.00  0.00    +0.119 A 
ATOM      2  C   UNL     1      -2.029   5.610  -3.238  0.00  0.00    +0.202 A 
ATOM      3  O   UNL     1      -2.827   4.701  -2.546  0.00  0.00    -0.286 OA
ATOM      4  C   UNL     1      -2.505   6.352  -4.307  0.00  0.00    +0.042 A 
ATOM      5  C   UNL     1      -1.626   7.057  -5.120  0.00  0.00    +0.003 A 
ATOM      6  C   UNL     1      -0.274   6.738  -5.119  0.00  0.00    +0.003 A 
ATOM      7  C   UNL     1       0.172   6.042  -4.008  0.00  0.00    +0.010 A 
ENDROOT
BRANCH   6   8
ATOM      8  C   UNL     1       0.482   6.602  -6.370  0.00  0.00    +0.028 A 
ATOM      9  C   UNL     1       0.349   5.482  -7.184  0.00  0.00    +0.142 A 
ATOM     10  F   UNL     1      -0.852   4.865  -7.178  0.00  0.00    -0.204 F 
ATOM     11  C   UNL     1       1.476   4.950  -7.800  0.00  0.00    +0.059 A 
ATOM     12  C   UNL     1       2.702   5.594  -7.742  0.00  0.00    +0.142 A 
ATOM     13  F   UNL     1       3.884   4.956  -7.864  0.00  0.00    -0.204 F 
ATOM     14  C   UNL     1       2.636   6.948  -7.441  0.00  0.00    +0.030 A 
ATOM     15  C   UNL     1       1.609   7.377  -6.608  0.00  0.00    +0.005 A 
ENDBRANCH   6   8
BRANCH   1  17
ATOM     16  O   UNL     1       0.027   6.500  -1.001  0.00  0.00    -0.240 OA
ATOM     17  C   UNL     1      -0.214   5.419  -1.622  0.00  0.00    +0.391 C 
ATOM     18  O   UNL     1       0.611   4.322  -1.379  0.00  0.00    -0.240 OA
ENDBRANCH   1  17
TORSDOF 2
ENDMDL
MODEL 5
REMARK VINA RESULT:      -7.2      3.510      5.593
REMARK  Name = 
REMARK  2 active torsions:
REMARK  status: ('A' for Active; 'I' for Inactive)
REMARK    1  A    between atoms: C_2  and  C_4
REMARK    2  A    between atoms: C_6  and  C_7
REMARK                            x       y       z     vdW  Elec       q    Type
REMARK                         _______ _______ _______ _____ _____    ______ ____
ROOT
ATOM      1  C   UNL     1      -1.252   6.692  -4.824  0.00  0.00    +0.119 A 
ATOM      2  C   UNL     1      -1.986   5.775  -5.548  0.00  0.00    +0.202 A 
ATOM      3  O   UNL     1      -3.110   5.206  -4.952  0.00  0.00    -0.286 OA
ATOM      4  C   UNL     1      -1.447   5.291  -6.729  0.00  0.00    +0.042 A 
ATOM      5  C   UNL     1      -0.197   5.721  -7.159  0.00  0.00    +0.003 A 
ATOM      6  C   UNL     1       0.675   6.323  -6.260  0.00  0.00    +0.003 A 
ATOM      7  C   UNL     1       0.089   6.840  -5.117  0.00  0.00    +0.010 A 
ENDROOT
BRANCH   6   8
ATOM      8  C   UNL     1       2.093   5.948  -6.202  0.00  0.00    +0.028 A 
ATOM      9  C   UNL     1       2.497   4.693  -5.759  0.00  0.00    +0.142 A 
ATOM     10  F   UNL     1       1.649   3.667  -5.984  0.00  0.00    -0.204 F 
ATOM     11  C   UNL     1       3.630   4.583  -4.961  0.00  0.00    +0.059 A 
ATOM     12  C   UNL     1       4.450   5.675  -4.718  0.00  0.00    +0.142 A 
ATOM     13  F   UNL     1       5.233   5.788  -3.626  0.00  0.00    -0.204 F 
ATOM     14  C   UNL     1       4.331   6.710  -5.637  0.00  0.00    +0.030 A 
ATOM     15  C   UNL     1       3.087   6.917  -6.221  0.00  0.00    +0.005 A 
ENDBRANCH   6   8
BRANCH   1  17
ATOM     16  O   UNL     1      -1.929   8.862  -4.434  0.00  0.00    -0.240 OA
ATOM     17  C   UNL     1      -1.990   7.667  -4.009  0.00  0.00    +0.391 C 
ATOM     18  O   UNL     1      -1.982   7.456  -2.631  0.00  0.00    -0.240 OA
ENDBRANCH   1  17
TORSDOF 2
ENDMDL
MODEL 6
REMARK VINA RESULT:      -7.1      5.710      8.068
REMARK  Name = 
REMARK  2 active torsions:
REMARK  status: ('A' for Active; 'I' for Inactive)
REMARK    1  A    between atoms: C_2  and  C_4
REMARK    2  A    between atoms: C_6  and  C_7
REMARK                            x       y       z     vdW  Elec       q    Type
REMARK                         _______ _______ _______ _____ _____    ______ ____
ROOT
ATOM      1  C   UNL     1       5.230   5.643 -12.597  0.00  0.00    +0.119 A 
ATOM      2  C   UNL     1       6.539   5.456 -12.206  0.00  0.00    +0.202 A 
ATOM      3  O   UNL     1       7.339   4.595 -12.957  0.00  0.00    -0.286 OA
ATOM      4  C   UNL     1       6.928   5.939 -10.968  0.00  0.00    +0.042 A 
ATOM      5  C   UNL     1       6.012   6.589 -10.148  0.00  0.00    +0.003 A 
ATOM      6  C   UNL     1       4.650   6.432 -10.372  0.00  0.00    +0.003 A 
ATOM      7  C   UNL     1       4.301   5.997 -11.640  0.00  0.00    +0.010 A 
ENDROOT
BRANCH   6   8
ATOM      8  C   UNL     1       3.718   6.169  -9.269  0.00  0.00    +0.028 A 
ATOM      9  C   UNL     1       3.287   4.880  -8.971  0.00  0.00    +0.142 A 
ATOM     10  F   UNL     1       4.147   3.875  -9.238  0.00  0.00    -0.204 F 
ATOM     11  C   UNL     1       1.963   4.672  -8.603  0.00  0.00    +0.059 A 
ATOM     12  C   UNL     1       1.100   5.735  -8.383  0.00  0.00    +0.142 A 
ATOM     13  F   UNL     1      -0.240   5.643  -8.510  0.00  0.00    -0.204 F 
ATOM     14  C   UNL     1       1.723   6.948  -8.120  0.00  0.00    +0.030 A 
ATOM     15  C   UNL     1       2.950   7.190  -8.726  0.00  0.00    +0.005 A 
ENDBRANCH   6   8
BRANCH   1  17
ATOM     16  O   UNL     1       5.551   6.725 -14.608  0.00  0.00    -0.240 OA
ATOM     17  C   UNL     1       4.956   5.761 -14.036  0.00  0.00    +0.391 C 
ATOM     18  O   UNL     1       3.663   5.446 -14.450  0.00  0.00    -0.240 OA
ENDBRANCH   1  17
TORSDOF 2
ENDMDL
MODEL 7
REMARK VINA RESULT:      -7.0      6.475      9.539
REMARK  Name = 
REMARK  2 active torsions:
REMARK  status: ('A' for Active; 'I' for Inactive)
REMARK    1  A    between atoms: C_2  and  C_4
REMARK    2  A    between atoms: C_6  and  C_7
REMARK                            x       y       z     vdW  Elec       q    Type
REMARK                         _______ _______ _______ _____ _____    ______ ____
ROOT
ATOM      1  C   UNL     1       2.148   6.369  -9.629  0.00  0.00    +0.119 A 
ATOM      2  C   UNL     1       2.556   6.303  -8.313  0.00  0.00    +0.202 A 
ATOM      3  O   UNL     1       1.821   7.001  -7.355  0.00  0.00    -0.286 OA
ATOM      4  C   UNL     1       3.795   5.748  -8.038  0.00  0.00    +0.042 A 
ATOM      5  C   UNL     1       4.599   5.279  -9.070  0.00  0.00    +0.003 A 
ATOM      6  C   UNL     1       4.360   5.691 -10.376  0.00  0.00    +0.003 A 
ATOM      7  C   UNL     1       3.093   6.191 -10.620  0.00  0.00    +0.010 A 
ENDROOT
BRANCH   6   8
ATOM      8  C   UNL     1       5.455   6.120 -11.255  0.00  0.00    +0.028 A 
ATOM      9  C   UNL     1       5.832   5.373 -12.366  0.00  0.00    +0.142 A 
ATOM     10  F   UNL     1       4.862   4.661 -12.977  0.00  0.00    -0.204 F 
ATOM     11  C   UNL     1       7.181   5.246 -12.677  0.00  0.00    +0.059 A 
ATOM     12  C   UNL     1       8.149   5.964 -11.993  0.00  0.00    +0.142 A 
ATOM     13  F   UNL     1       9.432   5.561 -11.880  0.00  0.00    -0.204 F 
ATOM     14  C   UNL     1       7.682   7.091 -11.331  0.00  0.00    +0.030 A 
ATOM     15  C   UNL     1       6.387   7.056 -10.827  0.00  0.00    +0.005 A 
ENDBRANCH   6   8
BRANCH   1  17
ATOM     16  O   UNL     1       0.190   5.159  -9.776  0.00  0.00    -0.240 OA
ATOM     17  C   UNL     1       0.705   6.313  -9.901  0.00  0.00    +0.391 C 
ATOM     18  O   UNL     1       0.234   7.138 -10.922  0.00  0.00    -0.240 OA
ENDBRANCH   1  17
TORSDOF 2
ENDMDL
MODEL 8
REMARK VINA RESULT:      -6.9      3.530      5.794
REMARK  Name = 
REMARK  2 active torsions:
REMARK  status: ('A' for Active; 'I' for Inactive)
REMARK    1  A    between atoms: C_2  and  C_4
REMARK    2  A    between atoms: C_6  and  C_7
REMARK                            x       y       z     vdW  Elec       q    Type
REMARK                         _______ _______ _______ _____ _____    ______ ____
ROOT
ATOM      1  C   UNL     1      -1.747   6.545  -3.806  0.00  0.00    +0.119 A 
ATOM      2  C   UNL     1      -2.733   5.703  -4.276  0.00  0.00    +0.202 A 
ATOM      3  O   UNL     1      -3.649   5.179  -3.365  0.00  0.00    -0.286 OA
ATOM      4  C   UNL     1      -2.629   5.234  -5.575  0.00  0.00    +0.042 A 
ATOM      5  C   UNL     1      -1.551   5.605  -6.372  0.00  0.00    +0.003 A 
ATOM      6  C   UNL     1      -0.401   6.118  -5.785  0.00  0.00    +0.003 A 
ATOM      7  C   UNL     1      -0.560   6.624  -4.506  0.00  0.00    +0.010 A 
ENDROOT
BRANCH   6   8
ATOM      8  C   UNL     1       0.933   5.657  -6.187  0.00  0.00    +0.028 A 
ATOM      9  C   UNL     1       1.645   6.282  -7.205  0.00  0.00    +0.142 A 
ATOM     10  F   UNL     1       1.428   7.604  -7.375  0.00  0.00    -0.204 F 
ATOM     11  C   UNL     1       2.379   5.511  -8.098  0.00  0.00    +0.059 A 
ATOM     12  C   UNL     1       2.539   4.146  -7.910  0.00  0.00    +0.142 A 
ATOM     13  F   UNL     1       2.786   3.281  -8.915  0.00  0.00    -0.204 F 
ATOM     14  C   UNL     1       2.320   3.706  -6.611  0.00  0.00    +0.030 A 
ATOM     15  C   UNL     1       1.380   4.387  -5.847  0.00  0.00    +0.005 A 
ENDBRANCH   6   8
BRANCH   1  17
ATOM     16  O   UNL     1      -2.051   8.739  -3.163  0.00  0.00    -0.240 OA
ATOM     17  C   UNL     1      -2.121   7.530  -2.782  0.00  0.00    +0.391 C 
ATOM     18  O   UNL     1      -1.754   7.230  -1.470  0.00  0.00    -0.240 OA
ENDBRANCH   1  17
TORSDOF 2
ENDMDL
MODEL 9
REMARK VINA RESULT:      -6.9      1.778      2.261
REMARK  Name = 
REMARK  2 active torsions:
REMARK  status: ('A' for Active; 'I' for Inactive)
REMARK    1  A    between atoms: C_2  and  C_4
REMARK    2  A    between atoms: C_6  and  C_7
REMARK                            x       y       z     vdW  Elec       q    Type
REMARK                         _______ _______ _______ _____ _____    ______ ____
ROOT
ATOM      1  C   UNL     1       1.721   5.421  -7.480  0.00  0.00    +0.119 A 
ATOM      2  C   UNL     1       0.818   5.561  -8.513  0.00  0.00    +0.202 A 
ATOM      3  O   UNL     1       1.289   5.997  -9.751  0.00  0.00    -0.286 OA
ATOM      4  C   UNL     1      -0.533   5.492  -8.216  0.00  0.00    +0.042 A 
ATOM      5  C   UNL     1      -0.955   5.291  -6.906  0.00  0.00    +0.003 A 
ATOM      6  C   UNL     1      -0.082   5.534  -5.853  0.00  0.00    +0.003 A 
ATOM      7  C   UNL     1       1.263   5.544  -6.184  0.00  0.00    +0.010 A 
ENDROOT
BRANCH   6   8
ATOM      8  C   UNL     1      -0.508   6.282  -4.664  0.00  0.00    +0.028 A 
ATOM      9  C   UNL     1      -0.512   5.701  -3.400  0.00  0.00    +0.142 A 
ATOM     10  F   UNL     1       0.414   4.746  -3.167  0.00  0.00    -0.204 F 
ATOM     11  C   UNL     1      -1.554   5.980  -2.524  0.00  0.00    +0.059 A 
ATOM     12  C   UNL     1      -2.511   6.938  -2.824  0.00  0.00    +0.142 A 
ATOM     13  F   UNL     1      -3.760   6.928  -2.312  0.00  0.00    -0.204 F 
ATOM     14  C   UNL     1      -2.128   7.866  -3.784  0.00  0.00    +0.030 A 
ATOM     15  C   UNL     1      -1.261   7.442  -4.784  0.00  0.00    +0.005 A 
ENDBRANCH   6   8
BRANCH   1  17
ATOM     16  O   UNL     1       3.956   5.705  -7.975  0.00  0.00    -0.240 OA
ATOM     17  C   UNL     1       3.037   4.848  -7.796  0.00  0.00    +0.391 C 
ATOM     18  O   UNL     1       3.040   3.702  -8.591  0.00  0.00    -0.240 OA
ENDBRANCH   1  17
TORSDOF 2
ENDMDL
