MODEL 1
REMARK VINA RESULT:      -9.0      0.000      0.000
REMARK  Name = 
REMARK  10 active torsions:
REMARK  status: ('A' for Active; 'I' for Inactive)
REMARK    1  A    between atoms: C_2  and  O_3
REMARK    2  A    between atoms: O_3  and  N_4
REMARK    3  A    between atoms: C_5  and  C_6
REMARK    4  A    between atoms: C_5  and  C_34
REMARK    5  A    between atoms: N_8  and  CA_9
REMARK    6  A    between atoms: CA_13  and  C_14
REMARK    7  A    between atoms: C_17  and  S_18
REMARK    8  A    between atoms: S_18  and  C_19
REMARK    9  A    between atoms: C_21  and  C_22
REMARK   10  A    between atoms: N_38  and  P_39
REMARK                            x       y       z     vdW  Elec       q    Type
REMARK                         _______ _______ _______ _____ _____    ______ ____
ROOT
ATOM      1  CA  UNL     1       3.916   6.745  -5.205  0.00  0.00    +0.201 C 
ATOM      2  C   UNL     1       2.654   7.106  -4.139  0.00  0.00    +0.157 C 
ATOM      3  N   UNL     1       3.330   6.047  -3.282  0.00  0.00    -0.241 N 
ATOM      4  CA  UNL     1       2.567   5.790  -2.099  0.00  0.00    +0.138 C 
ATOM      5  C   UNL     1       1.264   6.064  -2.010  0.00  0.00    +0.040 C 
ATOM      6  C   UNL     1       0.329   5.684  -3.118  0.00  0.00    +0.093 C 
ATOM      7  S   UNL     1       1.260   5.914  -4.661  0.00  0.00    -0.113 S 
ATOM      8  C   UNL     1       3.950   5.344  -4.386  0.00  0.00    +0.253 C 
ATOM      9  O   UNL     1       5.130   4.875  -4.226  0.00  0.00    -0.273 OA
ENDROOT
BRANCH   4  10
ATOM     10  C   UNL     1       3.299   5.114  -1.017  0.00  0.00    +0.401 C 
ATOM     11  OXT UNL     1       4.441   5.800  -0.585  0.00  0.00    -0.239 OA
ATOM     12  O   UNL     1       3.485   3.868  -1.177  0.00  0.00    -0.239 OA
ENDBRANCH   4  10
BRANCH   1  14
ATOM     13  C   UNL     1       3.794   6.038  -7.550  0.00  0.00    +0.289 C 
ATOM     14  N   UNL     1       3.000   6.241  -6.405  0.00  0.00    -0.190 NA
ATOM     15  O   UNL     1       4.530   5.039  -7.439  0.00  0.00    -0.266 OA
BRANCH  13  17
ATOM     16  N   UNL     1       2.251   6.562  -9.220  0.00  0.00    -0.075 NA
ATOM     17  C   UNL     1       3.508   6.556  -8.883  0.00  0.00    +0.210 C 
BRANCH  17  18
ATOM     18  C   UNL     1       4.552   6.285  -9.889  0.00  0.00    +0.197 A 
ATOM     19  N   UNL     1       4.456   5.165 -10.650  0.00  0.00    -0.200 NA
ATOM     20  C   UNL     1       5.060   5.347 -11.844  0.00  0.00    +0.207 A 
ATOM     21  N   UNL     1       4.694   4.836 -13.131  0.00  0.00    -0.114 NA
ATOM     22  S   UNL     1       6.428   6.239 -11.315  0.00  0.00    +0.051 S 
ATOM     23  N   UNL     1       5.854   6.652  -9.771  0.00  0.00    -0.185 NA
BRANCH  21  24
ATOM     24  P   UNL     1       3.219   5.439 -13.882  0.00  0.00    +0.502 P 
ATOM     25  O   UNL     1       3.713   6.368 -15.217  0.00  0.00    -0.121 OA
ATOM     26  O   UNL     1       2.351   6.423 -12.843  0.00  0.00    -0.121 OA
ATOM     27  O   UNL     1       2.420   4.281 -14.410  0.00  0.00    -0.230 OA
ENDBRANCH  21  24
ENDBRANCH  17  18
BRANCH  16  28
ATOM     28  O   UNL     1       1.255   5.998  -8.468  0.00  0.00    -0.377 OA
BRANCH  28  30
ATOM     29  C   UNL     1       0.344   5.057 -10.369  0.00  0.00    +0.054 C 
ATOM     30  C   UNL     1       0.143   5.379  -9.110  0.00  0.00    +0.239 C 
ENDBRANCH  28  30
ENDBRANCH  16  28
ENDBRANCH  13  17
ENDBRANCH   1  14
BRANCH   5  31
ATOM     31  S   UNL     1       0.588   6.090  -0.347  0.00  0.00    -0.064 S 
BRANCH  31  32
ATOM     32  C   UNL     1       0.934   7.729   0.282  0.00  0.00    +0.140 A 
ATOM     33  S   UNL     1      -0.036   8.909   1.053  0.00  0.00    -0.059 S 
ATOM     34  C   UNL     1       1.208  10.068   1.312  0.00  0.00    +0.056 A 
ATOM     35  C   UNL     1       2.193   9.571   0.466  0.00  0.00    +0.089 A 
ATOM     36  N   UNL     1       2.134   8.259   0.335  0.00  0.00    -0.232 NA
BRANCH  35  37
ATOM     37  C   UNL     1       3.469  10.291   0.284  0.00  0.00    +0.030 A 
ATOM     38  C   UNL     1       4.224  10.571   1.418  0.00  0.00    +0.077 A 
ATOM     39  C   UNL     1       5.091  11.657   1.477  0.00  0.00    +0.290 A 
ATOM     40  N   UNL     1       4.730  12.748   0.757  0.00  0.00    -0.153 N 
ATOM     41  C   UNL     1       5.193  14.080   1.069  0.00  0.00    +0.408 C 
ATOM     42  C   UNL     1       4.200  12.477  -0.462  0.00  0.00    +0.290 A 
ATOM     43  C   UNL     1       3.609  11.244  -0.720  0.00  0.00    +0.077 A 
ENDBRANCH  35  37
ENDBRANCH  31  32
ENDBRANCH   5  31
TORSDOF 10
ENDMDL
MODEL 2
REMARK VINA RESULT:      -8.9      4.201     10.333
REMARK  Name = 
REMARK  10 active torsions:
REMARK  status: ('A' for Active; 'I' for Inactive)
REMARK    1  A    between atoms: C_2  and  O_3
REMARK    2  A    between atoms: O_3  and  N_4
REMARK    3  A    between atoms: C_5  and  C_6
REMARK    4  A    between atoms: C_5  and  C_34
REMARK    5  A    between atoms: N_8  and  CA_9
REMARK    6  A    between atoms: CA_13  and  C_14
REMARK    7  A    between atoms: C_17  and  S_18
REMARK    8  A    between atoms: S_18  and  C_19
REMARK    9  A    between atoms: C_21  and  C_22
REMARK   10  A    between atoms: N_38  and  P_39
REMARK                            x       y       z     vdW  Elec       q    Type
REMARK                         _______ _______ _______ _____ _____    ______ ____
ROOT
ATOM      1  CA  UNL     1      -1.483   6.913  -2.415  0.00  0.00    +0.201 C 
ATOM      2  C   UNL     1      -0.609   7.502  -3.737  0.00  0.00    +0.157 C 
ATOM      3  N   UNL     1      -1.222   6.298  -4.436  0.00  0.00    -0.241 N 
ATOM      4  CA  UNL     1      -0.716   6.174  -5.768  0.00  0.00    +0.138 C 
ATOM      5  C   UNL     1       0.442   6.717  -6.151  0.00  0.00    +0.040 C 
ATOM      6  C   UNL     1       1.666   6.578  -5.298  0.00  0.00    +0.093 C 
ATOM      7  S   UNL     1       1.090   6.651  -3.577  0.00  0.00    -0.113 S 
ATOM      8  C   UNL     1      -1.404   5.513  -3.233  0.00  0.00    +0.253 C 
ATOM      9  O   UNL     1      -2.461   4.798  -3.125  0.00  0.00    -0.273 OA
ENDROOT
BRANCH   4  10
ATOM     10  C   UNL     1      -1.515   5.325  -6.665  0.00  0.00    +0.401 C 
ATOM     11  OXT UNL     1      -2.888   5.339  -6.391  0.00  0.00    -0.239 OA
ATOM     12  O   UNL     1      -1.050   4.162  -6.875  0.00  0.00    -0.239 OA
ENDBRANCH   4  10
BRANCH   1  14
ATOM     13  C   UNL     1      -0.578   6.934  -0.137  0.00  0.00    +0.289 C 
ATOM     14  N   UNL     1      -0.230   6.652  -1.471  0.00  0.00    -0.190 NA
ATOM     15  O   UNL     1      -1.354   6.081   0.336  0.00  0.00    -0.266 OA
BRANCH  13  17
ATOM     16  N   UNL     1      -0.491   8.732   1.348  0.00  0.00    -0.075 NA
ATOM     17  C   UNL     1       0.184   7.776   0.779  0.00  0.00    +0.210 C 
BRANCH  17  18
ATOM     18  C   UNL     1       1.596   7.977   0.406  0.00  0.00    +0.197 A 
ATOM     19  N   UNL     1       2.533   7.123   0.893  0.00  0.00    -0.200 NA
ATOM     20  C   UNL     1       3.584   7.038   0.049  0.00  0.00    +0.207 A 
ATOM     21  N   UNL     1       4.408   5.907  -0.257  0.00  0.00    -0.114 NA
ATOM     22  S   UNL     1       3.691   8.688  -0.410  0.00  0.00    +0.051 S 
ATOM     23  N   UNL     1       2.163   9.183   0.144  0.00  0.00    -0.185 NA
BRANCH  21  24
ATOM     24  P   UNL     1       3.692   4.567  -1.150  0.00  0.00    +0.502 P 
ATOM     25  O   UNL     1       4.447   3.158  -0.575  0.00  0.00    -0.121 OA
ATOM     26  O   UNL     1       3.982   4.692  -2.793  0.00  0.00    -0.121 OA
ATOM     27  O   UNL     1       2.231   4.467  -0.810  0.00  0.00    -0.230 OA
ENDBRANCH  21  24
ENDBRANCH  17  18
BRANCH  16  28
ATOM     28  O   UNL     1      -1.785   9.050   1.028  0.00  0.00    -0.377 OA
BRANCH  28  30
ATOM     29  C   UNL     1      -3.461   8.329   2.444  0.00  0.00    +0.054 C 
ATOM     30  C   UNL     1      -2.720   9.347   2.063  0.00  0.00    +0.239 C 
ENDBRANCH  28  30
ENDBRANCH  16  28
ENDBRANCH  13  17
ENDBRANCH   1  14
BRANCH   5  31
ATOM     31  S   UNL     1       0.694   6.836  -7.925  0.00  0.00    -0.064 S 
BRANCH  31  32
ATOM     32  C   UNL     1       2.185   5.904  -8.259  0.00  0.00    +0.140 A 
ATOM     33  S   UNL     1       2.660   4.301  -7.896  0.00  0.00    -0.059 S 
ATOM     34  C   UNL     1       4.191   4.353  -8.677  0.00  0.00    +0.056 A 
ATOM     35  C   UNL     1       4.336   5.725  -8.853  0.00  0.00    +0.089 A 
ATOM     36  N   UNL     1       3.178   6.342  -8.996  0.00  0.00    -0.232 NA
BRANCH  35  37
ATOM     37  C   UNL     1       5.568   6.288  -9.437  0.00  0.00    +0.030 A 
ATOM     38  C   UNL     1       5.464   6.959 -10.651  0.00  0.00    +0.077 A 
ATOM     39  C   UNL     1       6.527   7.037 -11.544  0.00  0.00    +0.290 A 
ATOM     40  N   UNL     1       7.374   5.979 -11.557  0.00  0.00    -0.153 N 
ATOM     41  C   UNL     1       8.196   5.648 -12.698  0.00  0.00    +0.408 C 
ATOM     42  C   UNL     1       7.662   5.465 -10.335  0.00  0.00    +0.290 A 
ATOM     43  C   UNL     1       6.792   5.648  -9.266  0.00  0.00    +0.077 A 
ENDBRANCH  35  37
ENDBRANCH  31  32
ENDBRANCH   5  31
TORSDOF 10
ENDMDL
MODEL 3
REMARK VINA RESULT:      -8.6      2.782      4.418
REMARK  Name = 
REMARK  10 active torsions:
REMARK  status: ('A' for Active; 'I' for Inactive)
REMARK    1  A    between atoms: C_2  and  O_3
REMARK    2  A    between atoms: O_3  and  N_4
REMARK    3  A    between atoms: C_5  and  C_6
REMARK    4  A    between atoms: C_5  and  C_34
REMARK    5  A    between atoms: N_8  and  CA_9
REMARK    6  A    between atoms: CA_13  and  C_14
REMARK    7  A    between atoms: C_17  and  S_18
REMARK    8  A    between atoms: S_18  and  C_19
REMARK    9  A    between atoms: C_21  and  C_22
REMARK   10  A    between atoms: N_38  and  P_39
REMARK                            x       y       z     vdW  Elec       q    Type
REMARK                         _______ _______ _______ _____ _____    ______ ____
ROOT
ATOM      1  CA  UNL     1       4.822   6.335  -5.392  0.00  0.00    +0.201 C 
ATOM      2  C   UNL     1       3.888   7.137  -4.232  0.00  0.00    +0.157 C 
ATOM      3  N   UNL     1       4.317   5.969  -3.358  0.00  0.00    -0.241 N 
ATOM      4  CA  UNL     1       3.680   6.034  -2.078  0.00  0.00    +0.138 C 
ATOM      5  C   UNL     1       2.548   6.711  -1.872  0.00  0.00    +0.040 C 
ATOM      6  C   UNL     1       1.401   6.584  -2.828  0.00  0.00    +0.093 C 
ATOM      7  S   UNL     1       2.139   6.420  -4.479  0.00  0.00    -0.113 S 
ATOM      8  C   UNL     1       4.536   5.045  -4.451  0.00  0.00    +0.253 C 
ATOM      9  O   UNL     1       5.525   4.236  -4.378  0.00  0.00    -0.273 OA
ENDROOT
BRANCH   4  10
ATOM     10  C   UNL     1       4.308   5.224  -1.024  0.00  0.00    +0.401 C 
ATOM     11  OXT UNL     1       3.562   4.102  -0.645  0.00  0.00    -0.239 OA
ATOM     12  O   UNL     1       4.780   5.876  -0.041  0.00  0.00    -0.239 OA
ENDBRANCH   4  10
BRANCH   1  14
ATOM     13  C   UNL     1       4.183   5.794  -7.697  0.00  0.00    +0.289 C 
ATOM     14  N   UNL     1       3.642   6.079  -6.429  0.00  0.00    -0.190 NA
ATOM     15  O   UNL     1       4.719   4.669  -7.735  0.00  0.00    -0.266 OA
BRANCH  13  17
ATOM     16  N   UNL     1       2.514   6.411  -9.205  0.00  0.00    -0.075 NA
ATOM     17  C   UNL     1       3.790   6.428  -8.950  0.00  0.00    +0.210 C 
BRANCH  17  18
ATOM     18  C   UNL     1       4.774   6.306 -10.041  0.00  0.00    +0.197 A 
ATOM     19  N   UNL     1       4.764   5.190 -10.813  0.00  0.00    -0.200 NA
ATOM     20  C   UNL     1       5.239   5.460 -12.048  0.00  0.00    +0.207 A 
ATOM     21  N   UNL     1       4.839   4.915 -13.311  0.00  0.00    -0.114 NA
ATOM     22  S   UNL     1       6.517   6.521 -11.614  0.00  0.00    +0.051 S 
ATOM     23  N   UNL     1       6.022   6.842 -10.021  0.00  0.00    -0.185 NA
BRANCH  21  24
ATOM     24  P   UNL     1       3.241   5.324 -13.930  0.00  0.00    +0.502 P 
ATOM     25  O   UNL     1       3.495   6.387 -15.231  0.00  0.00    -0.121 OA
ATOM     26  O   UNL     1       2.312   6.107 -12.779  0.00  0.00    -0.121 OA
ATOM     27  O   UNL     1       2.589   4.086 -14.479  0.00  0.00    -0.230 OA
ENDBRANCH  21  24
ENDBRANCH  17  18
BRANCH  16  28
ATOM     28  O   UNL     1       1.592   5.731  -8.454  0.00  0.00    -0.377 OA
BRANCH  28  30
ATOM     29  C   UNL     1       0.052   5.027 -10.024  0.00  0.00    +0.054 C 
ATOM     30  C   UNL     1       0.235   5.661  -8.887  0.00  0.00    +0.239 C 
ENDBRANCH  28  30
ENDBRANCH  16  28
ENDBRANCH  13  17
ENDBRANCH   1  14
BRANCH   5  31
ATOM     31  S   UNL     1       2.144   7.045  -0.155  0.00  0.00    -0.064 S 
BRANCH  31  32
ATOM     32  C   UNL     1       0.357   7.106  -0.088  0.00  0.00    +0.140 A 
ATOM     33  S   UNL     1      -0.758   7.142   1.208  0.00  0.00    -0.059 S 
ATOM     34  C   UNL     1      -2.185   7.258   0.256  0.00  0.00    +0.056 A 
ATOM     35  C   UNL     1      -1.681   6.913  -0.993  0.00  0.00    +0.089 A 
ATOM     36  N   UNL     1      -0.414   7.252  -1.140  0.00  0.00    -0.232 NA
BRANCH  35  37
ATOM     37  C   UNL     1      -2.572   6.798  -2.164  0.00  0.00    +0.030 A 
ATOM     38  C   UNL     1      -2.980   5.524  -2.546  0.00  0.00    +0.077 A 
ATOM     39  C   UNL     1      -3.320   5.222  -3.860  0.00  0.00    +0.290 A 
ATOM     40  N   UNL     1      -2.658   5.913  -4.821  0.00  0.00    -0.153 N 
ATOM     41  C   UNL     1      -2.497   5.420  -6.170  0.00  0.00    +0.408 C 
ATOM     42  C   UNL     1      -2.463   7.227  -4.546  0.00  0.00    +0.290 A 
ATOM     43  C   UNL     1      -2.459   7.683  -3.232  0.00  0.00    +0.077 A 
ENDBRANCH  35  37
ENDBRANCH  31  32
ENDBRANCH   5  31
TORSDOF 10
ENDMDL
MODEL 4
REMARK VINA RESULT:      -8.4      2.898      3.930
REMARK  Name = 
REMARK  10 active torsions:
REMARK  status: ('A' for Active; 'I' for Inactive)
REMARK    1  A    between atoms: C_2  and  O_3
REMARK    2  A    between atoms: O_3  and  N_4
REMARK    3  A    between atoms: C_5  and  C_6
REMARK    4  A    between atoms: C_5  and  C_34
REMARK    5  A    between atoms: N_8  and  CA_9
REMARK    6  A    between atoms: CA_13  and  C_14
REMARK    7  A    between atoms: C_17  and  S_18
REMARK    8  A    between atoms: S_18  and  C_19
REMARK    9  A    between atoms: C_21  and  C_22
REMARK   10  A    between atoms: N_38  and  P_39
REMARK                            x       y       z     vdW  Elec       q    Type
REMARK                         _______ _______ _______ _____ _____    ______ ____
ROOT
ATOM      1  CA  UNL     1      -0.227   5.035  -7.054  0.00  0.00    +0.201 C 
ATOM      2  C   UNL     1       0.678   4.851  -5.638  0.00  0.00    +0.157 C 
ATOM      3  N   UNL     1      -0.586   5.388  -4.986  0.00  0.00    -0.241 N 
ATOM      4  CA  UNL     1      -0.391   5.579  -3.582  0.00  0.00    +0.138 C 
ATOM      5  C   UNL     1       0.819   5.729  -3.038  0.00  0.00    +0.040 C 
ATOM      6  C   UNL     1       1.823   6.651  -3.659  0.00  0.00    +0.093 C 
ATOM      7  S   UNL     1       1.583   6.520  -5.454  0.00  0.00    -0.113 S 
ATOM      8  C   UNL     1      -1.057   6.102  -6.155  0.00  0.00    +0.253 C 
ATOM      9  O   UNL     1      -2.313   6.109  -6.401  0.00  0.00    -0.273 OA
ENDROOT
BRANCH   4  10
ATOM     10  C   UNL     1      -1.624   5.693  -2.788  0.00  0.00    +0.401 C 
ATOM     11  OXT UNL     1      -2.559   4.681  -3.038  0.00  0.00    -0.239 OA
ATOM     12  O   UNL     1      -2.133   6.855  -2.733  0.00  0.00    -0.239 OA
ENDBRANCH   4  10
BRANCH   1  14
ATOM     13  C   UNL     1       0.743   5.874  -9.143  0.00  0.00    +0.289 C 
ATOM     14  N   UNL     1       0.740   6.087  -7.752  0.00  0.00    -0.190 NA
ATOM     15  O   UNL     1      -0.331   6.221  -9.673  0.00  0.00    -0.266 OA
BRANCH  13  17
ATOM     16  N   UNL     1       1.732   5.214 -11.151  0.00  0.00    -0.075 NA
ATOM     17  C   UNL     1       1.930   5.747  -9.981  0.00  0.00    +0.210 C 
BRANCH  17  18
ATOM     18  C   UNL     1       3.182   5.491  -9.244  0.00  0.00    +0.197 A 
ATOM     19  N   UNL     1       4.242   4.966  -9.911  0.00  0.00    -0.200 NA
ATOM     20  C   UNL     1       5.403   5.343  -9.334  0.00  0.00    +0.207 A 
ATOM     21  N   UNL     1       6.663   5.640  -9.947  0.00  0.00    -0.114 NA
ATOM     22  S   UNL     1       4.932   5.222  -7.688  0.00  0.00    +0.051 S 
ATOM     23  N   UNL     1       3.252   5.155  -7.930  0.00  0.00    -0.185 NA
BRANCH  21  24
ATOM     24  P   UNL     1       6.789   7.086 -10.944  0.00  0.00    +0.502 P 
ATOM     25  O   UNL     1       5.258   7.824 -10.904  0.00  0.00    -0.121 OA
ATOM     26  O   UNL     1       7.157   6.714 -12.534  0.00  0.00    -0.121 OA
ATOM     27  O   UNL     1       7.765   8.040 -10.315  0.00  0.00    -0.230 OA
ENDBRANCH  21  24
ENDBRANCH  17  18
BRANCH  16  28
ATOM     28  O   UNL     1       0.541   4.666 -11.549  0.00  0.00    -0.377 OA
BRANCH  28  30
ATOM     29  C   UNL     1       1.226   4.697 -13.755  0.00  0.00    +0.054 C 
ATOM     30  C   UNL     1       0.200   4.636 -12.934  0.00  0.00    +0.239 C 
ENDBRANCH  28  30
ENDBRANCH  16  28
ENDBRANCH  13  17
ENDBRANCH   1  14
BRANCH   5  31
ATOM     31  S   UNL     1       0.902   5.514  -1.257  0.00  0.00    -0.064 S 
BRANCH  31  32
ATOM     32  C   UNL     1       2.402   6.345  -0.746  0.00  0.00    +0.140 A 
ATOM     33  S   UNL     1       4.045   5.871  -0.725  0.00  0.00    -0.059 S 
ATOM     34  C   UNL     1       4.685   7.356  -0.137  0.00  0.00    +0.056 A 
ATOM     35  C   UNL     1       3.521   7.969   0.313  0.00  0.00    +0.089 A 
ATOM     36  N   UNL     1       2.457   7.603  -0.376  0.00  0.00    -0.232 NA
BRANCH  35  37
ATOM     37  C   UNL     1       3.569   9.280   0.989  0.00  0.00    +0.030 A 
ATOM     38  C   UNL     1       3.333  10.416   0.222  0.00  0.00    +0.077 A 
ATOM     39  C   UNL     1       3.867  11.655   0.556  0.00  0.00    +0.290 A 
ATOM     40  N   UNL     1       5.070  11.637   1.181  0.00  0.00    -0.153 N 
ATOM     41  C   UNL     1       5.983  12.757   1.154  0.00  0.00    +0.408 C 
ATOM     42  C   UNL     1       5.217  10.659   2.109  0.00  0.00    +0.290 A 
ATOM     43  C   UNL     1       4.446   9.502   2.046  0.00  0.00    +0.077 A 
ENDBRANCH  35  37
ENDBRANCH  31  32
ENDBRANCH   5  31
TORSDOF 10
ENDMDL
MODEL 5
REMARK VINA RESULT:      -8.3      2.628      3.784
REMARK  Name = 
REMARK  10 active torsions:
REMARK  status: ('A' for Active; 'I' for Inactive)
REMARK    1  A    between atoms: C_2  and  O_3
REMARK    2  A    between atoms: O_3  and  N_4
REMARK    3  A    between atoms: C_5  and  C_6
REMARK    4  A    between atoms: C_5  and  C_34
REMARK    5  A    between atoms: N_8  and  CA_9
REMARK    6  A    between atoms: CA_13  and  C_14
REMARK    7  A    between atoms: C_17  and  S_18
REMARK    8  A    between atoms: S_18  and  C_19
REMARK    9  A    between atoms: C_21  and  C_22
REMARK   10  A    between atoms: N_38  and  P_39
REMARK                            x       y       z     vdW  Elec       q    Type
REMARK                         _______ _______ _______ _____ _____    ______ ____
ROOT
ATOM      1  CA  UNL     1      -0.253   4.808  -6.685  0.00  0.00    +0.201 C 
ATOM      2  C   UNL     1       0.622   4.661  -5.245  0.00  0.00    +0.157 C 
ATOM      3  N   UNL     1      -0.544   5.453  -4.678  0.00  0.00    -0.241 N 
ATOM      4  CA  UNL     1      -0.315   5.778  -3.303  0.00  0.00    +0.138 C 
ATOM      5  C   UNL     1       0.907   5.809  -2.765  0.00  0.00    +0.040 C 
ATOM      6  C   UNL     1       2.034   6.491  -3.478  0.00  0.00    +0.093 C 
ATOM      7  S   UNL     1       1.767   6.185  -5.249  0.00  0.00    -0.113 S 
ATOM      8  C   UNL     1      -0.909   6.086  -5.928  0.00  0.00    +0.253 C 
ATOM      9  O   UNL     1      -2.152   6.252  -6.189  0.00  0.00    -0.273 OA
ENDROOT
BRANCH   4  10
ATOM     10  C   UNL     1      -1.512   6.168  -2.543  0.00  0.00    +0.401 C 
ATOM     11  OXT UNL     1      -2.411   5.118  -2.317  0.00  0.00    -0.239 OA
ATOM     12  O   UNL     1      -2.071   7.244  -2.918  0.00  0.00    -0.239 OA
ENDBRANCH   4  10
BRANCH   1  14
ATOM     13  C   UNL     1       0.730   5.344  -8.865  0.00  0.00    +0.289 C 
ATOM     14  N   UNL     1       0.857   5.614  -7.490  0.00  0.00    -0.190 NA
ATOM     15  O   UNL     1      -0.285   5.875  -9.356  0.00  0.00    -0.266 OA
BRANCH  13  17
ATOM     16  N   UNL     1       3.015   5.164  -9.302  0.00  0.00    -0.075 NA
ATOM     17  C   UNL     1       1.815   4.946  -9.755  0.00  0.00    +0.210 C 
BRANCH  17  18
ATOM     18  C   UNL     1       1.520   5.088 -11.193  0.00  0.00    +0.197 A 
ATOM     19  N   UNL     1       1.989   6.176 -11.856  0.00  0.00    -0.200 NA
ATOM     20  C   UNL     1       2.178   5.892 -13.163  0.00  0.00    +0.207 A 
ATOM     21  N   UNL     1       3.192   6.372 -14.054  0.00  0.00    -0.114 NA
ATOM     22  S   UNL     1       0.789   4.921 -13.428  0.00  0.00    +0.051 S 
ATOM     23  N   UNL     1       0.397   4.625 -11.802  0.00  0.00    -0.185 NA
BRANCH  21  24
ATOM     24  P   UNL     1       4.854   5.853 -13.788  0.00  0.00    +0.502 P 
ATOM     25  O   UNL     1       5.363   6.608 -12.353  0.00  0.00    -0.121 OA
ATOM     26  O   UNL     1       5.863   6.342 -15.031  0.00  0.00    -0.121 OA
ATOM     27  O   UNL     1       4.880   4.369 -13.551  0.00  0.00    -0.230 OA
ENDBRANCH  21  24
ENDBRANCH  17  18
BRANCH  16  28
ATOM     28  O   UNL     1       3.283   5.849  -8.146  0.00  0.00    -0.377 OA
BRANCH  28  30
ATOM     29  C   UNL     1       5.510   5.245  -8.246  0.00  0.00    +0.054 C 
ATOM     30  C   UNL     1       4.525   5.649  -7.474  0.00  0.00    +0.239 C 
ENDBRANCH  28  30
ENDBRANCH  16  28
ENDBRANCH  13  17
ENDBRANCH   1  14
BRANCH   5  31
ATOM     31  S   UNL     1       0.966   5.796  -0.971  0.00  0.00    -0.064 S 
BRANCH  31  32
ATOM     32  C   UNL     1       2.454   6.690  -0.537  0.00  0.00    +0.140 A 
ATOM     33  S   UNL     1       4.088   6.214  -0.359  0.00  0.00    -0.059 S 
ATOM     34  C   UNL     1       4.723   7.772  -0.000  0.00  0.00    +0.056 A 
ATOM     35  C   UNL     1       3.550   8.461   0.284  0.00  0.00    +0.089 A 
ATOM     36  N   UNL     1       2.512   7.992  -0.382  0.00  0.00    -0.232 NA
BRANCH  35  37
ATOM     37  C   UNL     1       3.587   9.867   0.732  0.00  0.00    +0.030 A 
ATOM     38  C   UNL     1       3.526  10.860  -0.241  0.00  0.00    +0.077 A 
ATOM     39  C   UNL     1       4.085  12.118  -0.046  0.00  0.00    +0.290 A 
ATOM     40  N   UNL     1       5.192  12.164   0.736  0.00  0.00    -0.153 N 
ATOM     41  C   UNL     1       6.167  13.227   0.652  0.00  0.00    +0.408 C 
ATOM     42  C   UNL     1       5.153  11.357   1.826  0.00  0.00    +0.290 A 
ATOM     43  C   UNL     1       4.329  10.237   1.850  0.00  0.00    +0.077 A 
ENDBRANCH  35  37
ENDBRANCH  31  32
ENDBRANCH   5  31
TORSDOF 10
ENDMDL
MODEL 6
REMARK VINA RESULT:      -8.3      2.930      5.214
REMARK  Name = 
REMARK  10 active torsions:
REMARK  status: ('A' for Active; 'I' for Inactive)
REMARK    1  A    between atoms: C_2  and  O_3
REMARK    2  A    between atoms: O_3  and  N_4
REMARK    3  A    between atoms: C_5  and  C_6
REMARK    4  A    between atoms: C_5  and  C_34
REMARK    5  A    between atoms: N_8  and  CA_9
REMARK    6  A    between atoms: CA_13  and  C_14
REMARK    7  A    between atoms: C_17  and  S_18
REMARK    8  A    between atoms: S_18  and  C_19
REMARK    9  A    between atoms: C_21  and  C_22
REMARK   10  A    between atoms: N_38  and  P_39
REMARK                            x       y       z     vdW  Elec       q    Type
REMARK                         _______ _______ _______ _____ _____    ______ ____
ROOT
ATOM      1  CA  UNL     1       3.400   7.190  -5.448  0.00  0.00    +0.201 C 
ATOM      2  C   UNL     1       2.381   6.777  -4.163  0.00  0.00    +0.157 C 
ATOM      3  N   UNL     1       3.497   7.389  -3.332  0.00  0.00    -0.241 N 
ATOM      4  CA  UNL     1       3.229   7.238  -1.934  0.00  0.00    +0.138 C 
ATOM      5  C   UNL     1       2.405   6.301  -1.457  0.00  0.00    +0.040 C 
ATOM      6  C   UNL     1       2.491   4.889  -1.952  0.00  0.00    +0.093 C 
ATOM      7  S   UNL     1       2.907   4.999  -3.716  0.00  0.00    -0.113 S 
ATOM      8  C   UNL     1       4.546   7.146  -4.300  0.00  0.00    +0.253 C 
ATOM      9  O   UNL     1       5.455   8.035  -4.451  0.00  0.00    -0.273 OA
ENDROOT
BRANCH   4  10
ATOM     10  C   UNL     1       3.997   8.126  -1.049  0.00  0.00    +0.401 C 
ATOM     11  OXT UNL     1       3.891   9.484  -1.372  0.00  0.00    -0.239 OA
ATOM     12  O   UNL     1       5.185   7.754  -0.798  0.00  0.00    -0.239 OA
ENDBRANCH   4  10
BRANCH   1  14
ATOM     13  C   UNL     1       4.155   5.759  -7.289  0.00  0.00    +0.289 C 
ATOM     14  N   UNL     1       3.617   5.710  -5.990  0.00  0.00    -0.190 NA
ATOM     15  O   UNL     1       5.342   6.139  -7.292  0.00  0.00    -0.266 OA
BRANCH  13  17
ATOM     16  N   UNL     1       4.536   4.741  -9.354  0.00  0.00    -0.075 NA
ATOM     17  C   UNL     1       3.650   5.026  -8.445  0.00  0.00    +0.210 C 
BRANCH  17  18
ATOM     18  C   UNL     1       2.264   5.354  -8.827  0.00  0.00    +0.197 A 
ATOM     19  N   UNL     1       2.034   6.458  -9.582  0.00  0.00    -0.200 NA
ATOM     20  C   UNL     1       0.916   6.304 -10.324  0.00  0.00    +0.207 A 
ATOM     21  N   UNL     1       0.635   6.779 -11.646  0.00  0.00    -0.114 NA
ATOM     22  S   UNL     1      -0.065   5.505  -9.164  0.00  0.00    +0.051 S 
ATOM     23  N   UNL     1       1.167   5.071  -8.077  0.00  0.00    -0.185 NA
BRANCH  21  24
ATOM     24  P   UNL     1       1.524   6.077 -12.995  0.00  0.00    +0.502 P 
ATOM     25  O   UNL     1       3.148   5.995 -12.500  0.00  0.00    -0.121 OA
ATOM     26  O   UNL     1       1.434   7.036 -14.364  0.00  0.00    -0.121 OA
ATOM     27  O   UNL     1       1.050   4.669 -13.223  0.00  0.00    -0.230 OA
ENDBRANCH  21  24
ENDBRANCH  17  18
BRANCH  16  28
ATOM     28  O   UNL     1       5.826   5.202  -9.336  0.00  0.00    -0.377 OA
BRANCH  28  30
ATOM     29  C   UNL     1       7.527   6.447 -10.279  0.00  0.00    +0.054 C 
ATOM     30  C   UNL     1       6.352   5.887 -10.470  0.00  0.00    +0.239 C 
ENDBRANCH  28  30
ENDBRANCH  16  28
ENDBRANCH  13  17
ENDBRANCH   1  14
BRANCH   5  31
ATOM     31  S   UNL     1       1.855   6.540   0.235  0.00  0.00    -0.064 S 
BRANCH  31  32
ATOM     32  C   UNL     1       0.099   6.867   0.124  0.00  0.00    +0.140 A 
ATOM     33  S   UNL     1      -1.104   7.172   1.301  0.00  0.00    -0.059 S 
ATOM     34  C   UNL     1      -2.410   7.417   0.209  0.00  0.00    +0.056 A 
ATOM     35  C   UNL     1      -1.860   6.900  -0.959  0.00  0.00    +0.089 A 
ATOM     36  N   UNL     1      -0.548   7.038  -1.005  0.00  0.00    -0.232 NA
BRANCH  35  37
ATOM     37  C   UNL     1      -2.654   6.820  -2.200  0.00  0.00    +0.030 A 
ATOM     38  C   UNL     1      -3.068   5.562  -2.626  0.00  0.00    +0.077 A 
ATOM     39  C   UNL     1      -3.307   5.280  -3.966  0.00  0.00    +0.290 A 
ATOM     40  N   UNL     1      -2.548   5.957  -4.863  0.00  0.00    -0.153 N 
ATOM     41  C   UNL     1      -2.292   5.469  -6.199  0.00  0.00    +0.408 C 
ATOM     42  C   UNL     1      -2.337   7.262  -4.561  0.00  0.00    +0.290 A 
ATOM     43  C   UNL     1      -2.428   7.709  -3.247  0.00  0.00    +0.077 A 
ENDBRANCH  35  37
ENDBRANCH  31  32
ENDBRANCH   5  31
TORSDOF 10
ENDMDL
MODEL 7
REMARK VINA RESULT:      -8.2      4.309     11.527
REMARK  Name = 
REMARK  10 active torsions:
REMARK  status: ('A' for Active; 'I' for Inactive)
REMARK    1  A    between atoms: C_2  and  O_3
REMARK    2  A    between atoms: O_3  and  N_4
REMARK    3  A    between atoms: C_5  and  C_6
REMARK    4  A    between atoms: C_5  and  C_34
REMARK    5  A    between atoms: N_8  and  CA_9
REMARK    6  A    between atoms: CA_13  and  C_14
REMARK    7  A    between atoms: C_17  and  S_18
REMARK    8  A    between atoms: S_18  and  C_19
REMARK    9  A    between atoms: C_21  and  C_22
REMARK   10  A    between atoms: N_38  and  P_39
REMARK                            x       y       z     vdW  Elec       q    Type
REMARK                         _______ _______ _______ _____ _____    ______ ____
ROOT
ATOM      1  CA  UNL     1       2.225   5.057  -4.898  0.00  0.00    +0.201 C 
ATOM      2  C   UNL     1       1.403   4.370  -6.206  0.00  0.00    +0.157 C 
ATOM      3  N   UNL     1       2.421   5.158  -7.015  0.00  0.00    -0.241 N 
ATOM      4  CA  UNL     1       2.153   5.043  -8.416  0.00  0.00    +0.138 C 
ATOM      5  C   UNL     1       0.950   4.717  -8.894  0.00  0.00    +0.040 C 
ATOM      6  C   UNL     1      -0.285   5.370  -8.354  0.00  0.00    +0.093 C 
ATOM      7  S   UNL     1       0.012   5.619  -6.580  0.00  0.00    -0.113 S 
ATOM      8  C   UNL     1       2.659   6.166  -6.002  0.00  0.00    +0.253 C 
ATOM      9  O   UNL     1       3.851   6.604  -5.845  0.00  0.00    -0.273 OA
ENDROOT
BRANCH   4  10
ATOM     10  C   UNL     1       3.273   5.403  -9.299  0.00  0.00    +0.401 C 
ATOM     11  OXT UNL     1       4.451   4.689  -9.045  0.00  0.00    -0.239 OA
ATOM     12  O   UNL     1       3.459   6.647  -9.468  0.00  0.00    -0.239 OA
ENDBRANCH   4  10
BRANCH   1  14
ATOM     13  C   UNL     1       1.197   6.108  -2.936  0.00  0.00    +0.289 C 
ATOM     14  N   UNL     1       0.984   5.856  -4.304  0.00  0.00    -0.190 NA
ATOM     15  O   UNL     1       2.083   6.964  -2.749  0.00  0.00    -0.266 OA
BRANCH  13  17
ATOM     16  N   UNL     1      -0.911   5.380  -2.251  0.00  0.00    -0.075 NA
ATOM     17  C   UNL     1       0.245   5.836  -1.865  0.00  0.00    +0.210 C 
BRANCH  17  18
ATOM     18  C   UNL     1       0.344   6.740  -0.705  0.00  0.00    +0.197 A 
ATOM     19  N   UNL     1       1.073   6.350   0.372  0.00  0.00    -0.200 NA
ATOM     20  C   UNL     1       1.562   7.424   1.030  0.00  0.00    +0.207 A 
ATOM     21  N   UNL     1       2.813   7.574   1.712  0.00  0.00    -0.114 NA
ATOM     22  S   UNL     1       0.197   8.457   0.904  0.00  0.00    +0.051 S 
ATOM     23  N   UNL     1      -0.626   7.608  -0.316  0.00  0.00    -0.185 NA
BRANCH  21  24
ATOM     24  P   UNL     1       4.291   7.594   0.754  0.00  0.00    +0.502 P 
ATOM     25  O   UNL     1       4.500   6.012   0.171  0.00  0.00    -0.121 OA
ATOM     26  O   UNL     1       5.625   7.999   1.681  0.00  0.00    -0.121 OA
ATOM     27  O   UNL     1       4.100   8.492  -0.436  0.00  0.00    -0.230 OA
ENDBRANCH  21  24
ENDBRANCH  17  18
BRANCH  16  28
ATOM     28  O   UNL     1      -1.297   5.286  -3.562  0.00  0.00    -0.377 OA
BRANCH  28  30
ATOM     29  C   UNL     1      -3.406   6.023  -2.976  0.00  0.00    +0.054 C 
ATOM     30  C   UNL     1      -2.667   5.473  -3.914  0.00  0.00    +0.239 C 
ENDBRANCH  28  30
ENDBRANCH  16  28
ENDBRANCH  13  17
ENDBRANCH   1  14
BRANCH   5  31
ATOM     31  S   UNL     1       0.912   4.196 -10.611  0.00  0.00    -0.064 S 
BRANCH  31  32
ATOM     32  C   UNL     1       0.586   5.682 -11.553  0.00  0.00    +0.140 A 
ATOM     33  S   UNL     1      -0.236   7.136 -11.184  0.00  0.00    -0.059 S 
ATOM     34  C   UNL     1       0.053   7.928 -12.683  0.00  0.00    +0.056 A 
ATOM     35  C   UNL     1       0.470   6.852 -13.459  0.00  0.00    +0.089 A 
ATOM     36  N   UNL     1       1.076   5.920 -12.747  0.00  0.00    -0.232 NA
BRANCH  35  37
ATOM     37  C   UNL     1       0.773   7.023 -14.893  0.00  0.00    +0.030 A 
ATOM     38  C   UNL     1       2.093   7.278 -15.251  0.00  0.00    +0.077 A 
ATOM     39  C   UNL     1       2.421   7.980 -16.406  0.00  0.00    +0.290 A 
ATOM     40  N   UNL     1       1.537   8.931 -16.797  0.00  0.00    -0.153 N 
ATOM     41  C   UNL     1       1.912  10.055 -17.625  0.00  0.00    +0.408 C 
ATOM     42  C   UNL     1       0.232   8.586 -16.663  0.00  0.00    +0.290 A 
ATOM     43  C   UNL     1      -0.153   7.611 -15.749  0.00  0.00    +0.077 A 
ENDBRANCH  35  37
ENDBRANCH  31  32
ENDBRANCH   5  31
TORSDOF 10
ENDMDL
MODEL 8
REMARK VINA RESULT:      -8.1      2.697      3.806
REMARK  Name = 
REMARK  10 active torsions:
REMARK  status: ('A' for Active; 'I' for Inactive)
REMARK    1  A    between atoms: C_2  and  O_3
REMARK    2  A    between atoms: O_3  and  N_4
REMARK    3  A    between atoms: C_5  and  C_6
REMARK    4  A    between atoms: C_5  and  C_34
REMARK    5  A    between atoms: N_8  and  CA_9
REMARK    6  A    between atoms: CA_13  and  C_14
REMARK    7  A    between atoms: C_17  and  S_18
REMARK    8  A    between atoms: S_18  and  C_19
REMARK    9  A    between atoms: C_21  and  C_22
REMARK   10  A    between atoms: N_38  and  P_39
REMARK                            x       y       z     vdW  Elec       q    Type
REMARK                         _______ _______ _______ _____ _____    ______ ____
ROOT
ATOM      1  CA  UNL     1       1.829   4.875  -7.099  0.00  0.00    +0.201 C 
ATOM      2  C   UNL     1       2.736   4.495  -5.723  0.00  0.00    +0.157 C 
ATOM      3  N   UNL     1       1.635   5.269  -5.017  0.00  0.00    -0.241 N 
ATOM      4  CA  UNL     1       1.922   5.399  -3.621  0.00  0.00    +0.138 C 
ATOM      5  C   UNL     1       3.159   5.295  -3.129  0.00  0.00    +0.040 C 
ATOM      6  C   UNL     1       4.303   6.003  -3.790  0.00  0.00    +0.093 C 
ATOM      7  S   UNL     1       3.967   5.944  -5.574  0.00  0.00    -0.113 S 
ATOM      8  C   UNL     1       1.270   6.077  -6.162  0.00  0.00    +0.253 C 
ATOM      9  O   UNL     1       0.032   6.341  -6.354  0.00  0.00    -0.273 OA
ENDROOT
BRANCH   4  10
ATOM     10  C   UNL     1       0.772   5.751  -2.774  0.00  0.00    +0.401 C 
ATOM     11  OXT UNL     1      -0.039   4.662  -2.434  0.00  0.00    -0.239 OA
ATOM     12  O   UNL     1       0.119   6.777  -3.138  0.00  0.00    -0.239 OA
ENDBRANCH   4  10
BRANCH   1  14
ATOM     13  C   UNL     1       2.407   6.373  -8.951  0.00  0.00    +0.289 C 
ATOM     14  N   UNL     1       2.960   5.718  -7.835  0.00  0.00    -0.190 NA
ATOM     15  O   UNL     1       1.655   7.310  -8.621  0.00  0.00    -0.266 OA
BRANCH  13  17
ATOM     16  N   UNL     1       2.147   5.923 -11.226  0.00  0.00    -0.075 NA
ATOM     17  C   UNL     1       2.956   6.355 -10.303  0.00  0.00    +0.210 C 
BRANCH  17  18
ATOM     18  C   UNL     1       4.401   6.072 -10.380  0.00  0.00    +0.197 A 
ATOM     19  N   UNL     1       4.846   5.171 -11.293  0.00  0.00    -0.200 NA
ATOM     20  C   UNL     1       6.115   5.452 -11.661  0.00  0.00    +0.207 A 
ATOM     21  N   UNL     1       6.742   5.294 -12.939  0.00  0.00    -0.114 NA
ATOM     22  S   UNL     1       6.739   5.909 -10.129  0.00  0.00    +0.051 S 
ATOM     23  N   UNL     1       5.257   6.122  -9.327  0.00  0.00    -0.185 NA
BRANCH  21  24
ATOM     24  P   UNL     1       6.220   6.334 -14.261  0.00  0.00    +0.502 P 
ATOM     25  O   UNL     1       4.565   6.020 -14.486  0.00  0.00    -0.121 OA
ATOM     26  O   UNL     1       7.025   5.978 -15.685  0.00  0.00    -0.121 OA
ATOM     27  O   UNL     1       6.354   7.772 -13.846  0.00  0.00    -0.230 OA
ENDBRANCH  21  24
ENDBRANCH  17  18
BRANCH  16  28
ATOM     28  O   UNL     1       0.916   5.379 -10.971  0.00  0.00    -0.377 OA
BRANCH  28  30
ATOM     29  C   UNL     1      -0.126   7.295 -11.729  0.00  0.00    +0.054 C 
ATOM     30  C   UNL     1      -0.259   6.012 -11.471  0.00  0.00    +0.239 C 
ENDBRANCH  28  30
ENDBRANCH  16  28
ENDBRANCH  13  17
ENDBRANCH   1  14
BRANCH   5  31
ATOM     31  S   UNL     1       3.270   5.047  -1.354  0.00  0.00    -0.064 S 
BRANCH  31  32
ATOM     32  C   UNL     1       3.040   6.667  -0.631  0.00  0.00    +0.140 A 
ATOM     33  S   UNL     1       3.884   8.146  -0.798  0.00  0.00    -0.059 S 
ATOM     34  C   UNL     1       2.870   9.084   0.227  0.00  0.00    +0.056 A 
ATOM     35  C   UNL     1       2.167   8.075   0.875  0.00  0.00    +0.089 A 
ATOM     36  N   UNL     1       2.021   6.998   0.126  0.00  0.00    -0.232 NA
BRANCH  35  37
ATOM     37  C   UNL     1       1.195   8.391   1.939  0.00  0.00    +0.030 A 
ATOM     38  C   UNL     1       0.198   7.459   2.206  0.00  0.00    +0.077 A 
ATOM     39  C   UNL     1      -1.035   7.828   2.733  0.00  0.00    +0.290 A 
ATOM     40  N   UNL     1      -1.491   9.055   2.380  0.00  0.00    -0.153 N 
ATOM     41  C   UNL     1      -2.893   9.404   2.398  0.00  0.00    +0.408 C 
ATOM     42  C   UNL     1      -0.546  10.027   2.345  0.00  0.00    +0.290 A 
ATOM     43  C   UNL     1       0.796   9.705   2.168  0.00  0.00    +0.077 A 
ENDBRANCH  35  37
ENDBRANCH  31  32
ENDBRANCH   5  31
TORSDOF 10
ENDMDL
MODEL 9
REMARK VINA RESULT:      -8.0      5.039     11.642
REMARK  Name = 
REMARK  10 active torsions:
REMARK  status: ('A' for Active; 'I' for Inactive)
REMARK    1  A    between atoms: C_2  and  O_3
REMARK    2  A    between atoms: O_3  and  N_4
REMARK    3  A    between atoms: C_5  and  C_6
REMARK    4  A    between atoms: C_5  and  C_34
REMARK    5  A    between atoms: N_8  and  CA_9
REMARK    6  A    between atoms: CA_13  and  C_14
REMARK    7  A    between atoms: C_17  and  S_18
REMARK    8  A    between atoms: S_18  and  C_19
REMARK    9  A    between atoms: C_21  and  C_22
REMARK   10  A    between atoms: N_38  and  P_39
REMARK                            x       y       z     vdW  Elec       q    Type
REMARK                         _______ _______ _______ _____ _____    ______ ____
ROOT
ATOM      1  CA  UNL     1       4.485   4.656  -8.511  0.00  0.00    +0.201 C 
ATOM      2  C   UNL     1       3.662   4.513  -9.981  0.00  0.00    +0.157 C 
ATOM      3  N   UNL     1       4.862   5.282 -10.509  0.00  0.00    -0.241 N 
ATOM      4  CA  UNL     1       4.691   5.600 -11.894  0.00  0.00    +0.138 C 
ATOM      5  C   UNL     1       3.491   5.649 -12.477  0.00  0.00    +0.040 C 
ATOM      6  C   UNL     1       2.349   6.355 -11.811  0.00  0.00    +0.093 C 
ATOM      7  S   UNL     1       2.544   6.057 -10.030  0.00  0.00    -0.113 S 
ATOM      8  C   UNL     1       5.191   5.916  -9.250  0.00  0.00    +0.253 C 
ATOM      9  O   UNL     1       6.425   6.062  -8.943  0.00  0.00    -0.273 OA
ENDROOT
BRANCH   4  10
ATOM     10  C   UNL     1       5.922   5.964 -12.610  0.00  0.00    +0.401 C 
ATOM     11  OXT UNL     1       6.845   4.918 -12.726  0.00  0.00    -0.239 OA
ATOM     12  O   UNL     1       6.447   7.069 -12.270  0.00  0.00    -0.239 OA
ENDBRANCH   4  10
BRANCH   1  14
ATOM     13  C   UNL     1       3.569   5.404  -6.363  0.00  0.00    +0.289 C 
ATOM     14  N   UNL     1       3.360   5.486  -7.753  0.00  0.00    -0.190 NA
ATOM     15  O   UNL     1       4.566   6.057  -6.000  0.00  0.00    -0.266 OA
BRANCH  13  17
ATOM     16  N   UNL     1       1.325   5.243  -5.745  0.00  0.00    -0.075 NA
ATOM     17  C   UNL     1       2.557   5.055  -5.372  0.00  0.00    +0.210 C 
BRANCH  17  18
ATOM     18  C   UNL     1       2.959   5.283  -3.971  0.00  0.00    +0.197 A 
ATOM     19  N   UNL     1       2.493   6.381  -3.324  0.00  0.00    -0.200 NA
ATOM     20  C   UNL     1       2.422   6.156  -1.994  0.00  0.00    +0.207 A 
ATOM     21  N   UNL     1       1.460   6.635  -1.047  0.00  0.00    -0.114 NA
ATOM     22  S   UNL     1       3.873   5.262  -1.799  0.00  0.00    +0.051 S 
ATOM     23  N   UNL     1       4.148   4.902  -3.436  0.00  0.00    -0.185 NA
BRANCH  21  24
ATOM     24  P   UNL     1      -0.191   6.030  -1.151  0.00  0.00    +0.502 P 
ATOM     25  O   UNL     1      -0.922   6.868  -2.436  0.00  0.00    -0.121 OA
ATOM     26  O   UNL     1      -1.055   6.344   0.248  0.00  0.00    -0.121 OA
ATOM     27  O   UNL     1      -0.164   4.573  -1.519  0.00  0.00    -0.230 OA
ENDBRANCH  21  24
ENDBRANCH  17  18
BRANCH  16  28
ATOM     28  O   UNL     1       0.965   5.857  -6.915  0.00  0.00    -0.377 OA
BRANCH  28  30
ATOM     29  C   UNL     1      -1.310   5.462  -6.900  0.00  0.00    +0.054 C 
ATOM     30  C   UNL     1      -0.204   5.431  -7.611  0.00  0.00    +0.239 C 
ENDBRANCH  28  30
ENDBRANCH  16  28
ENDBRANCH  13  17
ENDBRANCH   1  14
BRANCH   5  31
ATOM     31  S   UNL     1       3.498   5.624 -14.272  0.00  0.00    -0.064 S 
BRANCH  31  32
ATOM     32  C   UNL     1       2.049   6.549 -14.767  0.00  0.00    +0.140 A 
ATOM     33  S   UNL     1       0.407   6.117 -14.972  0.00  0.00    -0.059 S 
ATOM     34  C   UNL     1      -0.173   7.681 -15.390  0.00  0.00    +0.056 A 
ATOM     35  C   UNL     1       1.027   8.328 -15.665  0.00  0.00    +0.089 A 
ATOM     36  N   UNL     1       2.034   7.847 -14.960  0.00  0.00    -0.232 NA
BRANCH  35  37
ATOM     37  C   UNL     1       1.043   9.720 -16.153  0.00  0.00    +0.030 A 
ATOM     38  C   UNL     1       1.031  10.740 -15.206  0.00  0.00    +0.077 A 
ATOM     39  C   UNL     1       0.504  11.996 -15.483  0.00  0.00    +0.290 A 
ATOM     40  N   UNL     1      -0.531  12.029 -16.358  0.00  0.00    -0.153 N 
ATOM     41  C   UNL     1      -1.499  13.102 -16.387  0.00  0.00    +0.408 C 
ATOM     42  C   UNL     1      -0.408  11.191 -17.418  0.00  0.00    +0.290 A 
ATOM     43  C   UNL     1       0.403  10.064 -17.340  0.00  0.00    +0.077 A 
ENDBRANCH  35  37
ENDBRANCH  31  32
ENDBRANCH   5  31
TORSDOF 10
ENDMDL
