MODEL 1
REMARK VINA RESULT:      -9.4      0.000      0.000
REMARK  Name = 
REMARK  6 active torsions:
REMARK  status: ('A' for Active; 'I' for Inactive)
REMARK    1  A    between atoms: C_2  and  O_4
REMARK    2  A    between atoms: O_4  and  C_5
REMARK    3  A    between atoms: C_6  and  N_7
REMARK    4  A    between atoms: C_21  and  O_22
REMARK    5  A    between atoms: O_22  and  C_23
REMARK    6  A    between atoms: C_26  and  N_27
REMARK                            x       y       z     vdW  Elec       q    Type
REMARK                         _______ _______ _______ _____ _____    ______ ____
ROOT
ATOM      1  C   UNL     1       3.275   6.592 -11.698  0.00  0.00    +0.217 C 
ATOM      2  C   UNL     1       2.955   6.211 -10.157  0.00  0.00    +0.043 C 
ATOM      3  C   UNL     1       1.351   6.261 -10.202  0.00  0.00    +0.009 C 
ATOM      4  C   UNL     1       1.193   5.312  -8.828  0.00  0.00    +0.000 C 
ATOM      5  C   UNL     1       1.517   6.663  -7.873  0.00  0.00    +0.000 C 
ATOM      6  C   UNL     1       3.126   6.452  -7.887  0.00  0.00    +0.000 C 
ATOM      7  C   UNL     1       1.276   5.856  -6.493  0.00  0.00    +0.006 C 
ATOM      8  C   UNL     1      -0.242   6.422  -6.344  0.00  0.00    +0.004 C 
ATOM      9  C   UNL     1      -0.680   5.599  -5.020  0.00  0.00    +0.050 C 
ATOM     10  C   UNL     1       0.678   5.230  -4.217  0.00  0.00    +0.217 C 
ATOM     11  C   UNL     1       1.258   6.845  -4.176  0.00  0.00    +0.099 C 
ATOM     12  C   UNL     1      -0.854   5.285  -7.350  0.00  0.00    +0.000 C 
ATOM     13  C   UNL     1       1.350   4.436  -6.612  0.00  0.00    +0.000 C 
ATOM     14  C   UNL     1       2.119   6.573  -5.533  0.00  0.00    +0.059 C 
ATOM     15  C   UNL     1      -0.384   5.600  -8.730  0.00  0.00    +0.000 C 
ATOM     16  C   UNL     1       1.450   5.038 -11.278  0.00  0.00    +0.059 C 
ATOM     17  C   UNL     1       3.421   4.866  -9.802  0.00  0.00    +0.004 C 
ATOM     18  C   UNL     1       3.455   7.187  -9.201  0.00  0.00    +0.004 C 
ATOM     19  C   UNL     1       1.655   6.350 -12.233  0.00  0.00    +0.099 C 
ENDROOT
BRANCH  19  20
ATOM     20  N   UNL     1       1.947   5.586 -13.548  0.00  0.00    +0.300 N 
ATOM     21  C   UNL     1       0.582   5.500 -14.091  0.00  0.00    +0.109 C 
ATOM     22  C   UNL     1      -0.223   6.706 -13.978  0.00  0.00    +0.061 C 
ATOM     23  C   UNL     1       0.438   7.714 -14.899  0.00  0.00    +0.012 C 
ATOM     24  C   UNL     1       1.887   7.800 -14.550  0.00  0.00    +0.061 C 
ATOM     25  C   UNL     1       2.592   6.454 -14.429  0.00  0.00    +0.109 C 
ATOM     26  C   UNL     1       2.096   4.238 -13.465  0.00  0.00    +0.170 C 
ENDBRANCH  19  20
BRANCH  11  27
ATOM     27  N   UNL     1       2.465   6.547  -3.243  0.00  0.00    +0.300 N 
ATOM     28  C   UNL     1       2.107   6.540  -1.888  0.00  0.00    +0.109 C 
ATOM     29  C   UNL     1       3.094   7.380  -1.105  0.00  0.00    +0.061 C 
ATOM     30  C   UNL     1       4.451   6.773  -1.446  0.00  0.00    +0.012 C 
ATOM     31  C   UNL     1       4.750   7.044  -2.916  0.00  0.00    +0.061 C 
ATOM     32  C   UNL     1       3.469   7.572  -3.527  0.00  0.00    +0.109 C 
ATOM     33  C   UNL     1       3.113   5.340  -3.683  0.00  0.00    +0.170 C 
ENDBRANCH  11  27
BRANCH   1  34
ATOM     34  O   UNL     1       3.773   5.196 -12.058  0.00  0.00    -0.446 OA
BRANCH  34  36
ATOM     35  C   UNL     1       6.166   5.671 -11.664  0.00  0.00    +0.121 C 
ATOM     36  C   UNL     1       5.091   5.040 -12.359  0.00  0.00    +0.318 C 
ATOM     37  O   UNL     1       5.324   4.590 -13.522  0.00  0.00    -0.250 OA
ENDBRANCH  34  36
ENDBRANCH   1  34
BRANCH  10  38
ATOM     38  O   UNL     1       0.005   5.367  -2.854  0.00  0.00    -0.446 OA
BRANCH  38  39
ATOM     39  C   UNL     1      -1.319   5.625  -2.760  0.00  0.00    +0.318 C 
ATOM     40  O   UNL     1      -2.135   4.667  -2.682  0.00  0.00    -0.250 OA
ATOM     41  C   UNL     1      -1.746   7.053  -2.609  0.00  0.00    +0.121 C 
ENDBRANCH  38  39
ENDBRANCH  10  38
TORSDOF 6
ENDMDL
MODEL 2
REMARK VINA RESULT:      -9.2      1.263      9.641
REMARK  Name = 
REMARK  6 active torsions:
REMARK  status: ('A' for Active; 'I' for Inactive)
REMARK    1  A    between atoms: C_2  and  O_4
REMARK    2  A    between atoms: O_4  and  C_5
REMARK    3  A    between atoms: C_6  and  N_7
REMARK    4  A    between atoms: C_21  and  O_22
REMARK    5  A    between atoms: O_22  and  C_23
REMARK    6  A    between atoms: C_26  and  N_27
REMARK                            x       y       z     vdW  Elec       q    Type
REMARK                         _______ _______ _______ _____ _____    ______ ____
ROOT
ATOM      1  C   UNL     1       1.575   6.710  -3.982  0.00  0.00    +0.217 C 
ATOM      2  C   UNL     1       1.899   6.253  -5.501  0.00  0.00    +0.043 C 
ATOM      3  C   UNL     1       3.500   6.371  -5.475  0.00  0.00    +0.009 C 
ATOM      4  C   UNL     1       3.686   5.350  -6.794  0.00  0.00    +0.000 C 
ATOM      5  C   UNL     1       3.300   6.629  -7.822  0.00  0.00    +0.000 C 
ATOM      6  C   UNL     1       1.702   6.355  -7.780  0.00  0.00    +0.000 C 
ATOM      7  C   UNL     1       3.563   5.754  -9.156  0.00  0.00    +0.006 C 
ATOM      8  C   UNL     1       5.056   6.372  -9.352  0.00  0.00    +0.004 C 
ATOM      9  C   UNL     1       5.518   5.492 -10.631  0.00  0.00    +0.050 C 
ATOM     10  C   UNL     1       4.170   5.023 -11.398  0.00  0.00    +0.217 C 
ATOM     11  C   UNL     1       3.524   6.607 -11.525  0.00  0.00    +0.099 C 
ATOM     12  C   UNL     1       5.721   5.320  -8.288  0.00  0.00    +0.000 C 
ATOM     13  C   UNL     1       3.549   4.342  -8.955  0.00  0.00    +0.000 C 
ATOM     14  C   UNL     1       2.685   6.380 -10.147  0.00  0.00    +0.059 C 
ATOM     15  C   UNL     1       5.250   5.696  -6.924  0.00  0.00    +0.000 C 
ATOM     16  C   UNL     1       3.459   5.209  -4.330  0.00  0.00    +0.059 C 
ATOM     17  C   UNL     1       1.486   4.872  -5.774  0.00  0.00    +0.004 C 
ATOM     18  C   UNL     1       1.352   7.151  -6.508  0.00  0.00    +0.004 C 
ATOM     19  C   UNL     1       3.207   6.565  -3.450  0.00  0.00    +0.099 C 
ENDROOT
BRANCH  19  20
ATOM     20  N   UNL     1       2.957   5.867  -2.090  0.00  0.00    +0.300 N 
ATOM     21  C   UNL     1       4.314   5.930  -1.527  0.00  0.00    +0.109 C 
ATOM     22  C   UNL     1       5.020   7.189  -1.711  0.00  0.00    +0.061 C 
ATOM     23  C   UNL     1       4.262   8.197  -0.867  0.00  0.00    +0.012 C 
ATOM     24  C   UNL     1       2.817   8.139  -1.238  0.00  0.00    +0.061 C 
ATOM     25  C   UNL     1       2.228   6.734  -1.277  0.00  0.00    +0.109 C 
ATOM     26  C   UNL     1       2.921   4.508  -2.084  0.00  0.00    +0.170 C 
ENDBRANCH  19  20
BRANCH  11  27
ATOM     27  N   UNL     1       2.323   6.207 -12.428  0.00  0.00    +0.300 N 
ATOM     28  C   UNL     1       2.716   5.896 -13.737  0.00  0.00    +0.109 C 
ATOM     29  C   UNL     1       1.817   6.622 -14.716  0.00  0.00    +0.061 C 
ATOM     30  C   UNL     1       0.410   6.194 -14.315  0.00  0.00    +0.012 C 
ATOM     31  C   UNL     1       0.092   6.782 -12.945  0.00  0.00    +0.061 C 
ATOM     32  C   UNL     1       1.393   7.336 -12.401  0.00  0.00    +0.109 C 
ATOM     33  C   UNL     1       1.574   5.165 -11.778  0.00  0.00    +0.170 C 
ENDBRANCH  11  27
BRANCH   1  34
ATOM     34  O   UNL     1       1.137   5.318  -3.538  0.00  0.00    -0.446 OA
BRANCH  34  36
ATOM     35  C   UNL     1      -1.277   5.789  -3.773  0.00  0.00    +0.121 C 
ATOM     36  C   UNL     1      -0.160   5.137  -3.168  0.00  0.00    +0.318 C 
ATOM     37  O   UNL     1      -0.324   4.637  -2.015  0.00  0.00    -0.250 OA
ENDBRANCH  34  36
ENDBRANCH   1  34
BRANCH  10  38
ATOM     38  O   UNL     1       4.826   5.107 -12.772  0.00  0.00    -0.446 OA
BRANCH  38  39
ATOM     39  C   UNL     1       6.126   5.458 -12.897  0.00  0.00    +0.318 C 
ATOM     40  O   UNL     1       7.023   4.582 -12.761  0.00  0.00    -0.250 OA
ATOM     41  C   UNL     1       6.436   6.856 -13.336  0.00  0.00    +0.121 C 
ENDBRANCH  38  39
ENDBRANCH  10  38
TORSDOF 6
ENDMDL
MODEL 3
REMARK VINA RESULT:      -7.6      3.530     10.560
REMARK  Name = 
REMARK  6 active torsions:
REMARK  status: ('A' for Active; 'I' for Inactive)
REMARK    1  A    between atoms: C_2  and  O_4
REMARK    2  A    between atoms: O_4  and  C_5
REMARK    3  A    between atoms: C_6  and  N_7
REMARK    4  A    between atoms: C_21  and  O_22
REMARK    5  A    between atoms: O_22  and  C_23
REMARK    6  A    between atoms: C_26  and  N_27
REMARK                            x       y       z     vdW  Elec       q    Type
REMARK                         _______ _______ _______ _____ _____    ______ ____
ROOT
ATOM      1  C   UNL     1      -0.091   6.782   1.316  0.00  0.00    +0.217 C 
ATOM      2  C   UNL     1       0.188   6.722  -0.278  0.00  0.00    +0.043 C 
ATOM      3  C   UNL     1      -1.322   6.569  -0.803  0.00  0.00    +0.009 C 
ATOM      4  C   UNL     1      -0.935   7.111  -2.343  0.00  0.00    +0.000 C 
ATOM      5  C   UNL     1      -0.325   5.584  -2.713  0.00  0.00    +0.000 C 
ATOM      6  C   UNL     1       1.172   5.907  -2.178  0.00  0.00    +0.000 C 
ATOM      7  C   UNL     1      -0.018   5.981  -4.251  0.00  0.00    +0.006 C 
ATOM      8  C   UNL     1      -1.393   5.287  -4.778  0.00  0.00    +0.004 C 
ATOM      9  C   UNL     1      -1.290   5.700  -6.341  0.00  0.00    +0.050 C 
ATOM     10  C   UNL     1       0.278   5.943  -6.667  0.00  0.00    +0.217 C 
ATOM     11  C   UNL     1       0.784   4.421  -6.058  0.00  0.00    +0.099 C 
ATOM     12  C   UNL     1      -2.296   6.602  -4.408  0.00  0.00    +0.000 C 
ATOM     13  C   UNL     1       0.049   7.384  -4.502  0.00  0.00    +0.000 C 
ATOM     14  C   UNL     1       1.096   5.100  -4.609  0.00  0.00    +0.059 C 
ATOM     15  C   UNL     1      -2.375   6.694  -2.921  0.00  0.00    +0.000 C 
ATOM     16  C   UNL     1      -1.587   8.035  -0.138  0.00  0.00    +0.059 C 
ATOM     17  C   UNL     1       0.792   7.957  -0.791  0.00  0.00    +0.004 C 
ATOM     18  C   UNL     1       0.974   5.569  -0.688  0.00  0.00    +0.004 C 
ATOM     19  C   UNL     1      -1.786   7.038   1.144  0.00  0.00    +0.099 C 
ENDROOT
BRANCH  19  20
ATOM     20  N   UNL     1      -1.974   8.140   2.216  0.00  0.00    +0.300 N 
ATOM     21  C   UNL     1      -3.441   8.129   2.327  0.00  0.00    +0.109 C 
ATOM     22  C   UNL     1      -4.066   6.816   2.348  0.00  0.00    +0.061 C 
ATOM     23  C   UNL     1      -3.629   6.189   3.659  0.00  0.00    +0.012 C 
ATOM     24  C   UNL     1      -2.141   6.262   3.750  0.00  0.00    +0.061 C 
ATOM     25  C   UNL     1      -1.553   7.634   3.446  0.00  0.00    +0.109 C 
ATOM     26  C   UNL     1      -1.925   9.432   1.798  0.00  0.00    +0.170 C 
ENDBRANCH  19  20
BRANCH  11  27
ATOM     27  N   UNL     1       2.258   4.551  -6.536  0.00  0.00    +0.300 N 
ATOM     28  C   UNL     1       3.177   4.131  -5.563  0.00  0.00    +0.109 C 
ATOM     29  C   UNL     1       4.265   5.173  -5.420  0.00  0.00    +0.061 C 
ATOM     30  C   UNL     1       4.810   5.337  -6.835  0.00  0.00    +0.012 C 
ATOM     31  C   UNL     1       3.733   5.980  -7.701  0.00  0.00    +0.061 C 
ATOM     32  C   UNL     1       2.455   5.957  -6.888  0.00  0.00    +0.109 C 
ATOM     33  C   UNL     1       2.401   3.884  -7.802  0.00  0.00    +0.170 C 
ENDBRANCH  11  27
BRANCH   1  34
ATOM     34  O   UNL     1       0.283   8.256   1.439  0.00  0.00    -0.446 OA
BRANCH  34  36
ATOM     35  C   UNL     1       2.045   9.861   2.089  0.00  0.00    +0.121 C 
ATOM     36  C   UNL     1       1.418   8.579   2.116  0.00  0.00    +0.318 C 
ATOM     37  O   UNL     1       2.115   7.590   2.494  0.00  0.00    -0.250 OA
ENDBRANCH  34  36
ENDBRANCH   1  34
BRANCH  10  38
ATOM     38  O   UNL     1       0.149   5.406  -8.089  0.00  0.00    -0.446 OA
BRANCH  38  39
ATOM     39  C   UNL     1       0.284   6.229  -9.153  0.00  0.00    +0.318 C 
ATOM     40  O   UNL     1       0.818   7.361  -9.000  0.00  0.00    -0.250 OA
ATOM     41  C   UNL     1      -0.081   5.696 -10.505  0.00  0.00    +0.121 C 
ENDBRANCH  38  39
ENDBRANCH  10  38
TORSDOF 6
ENDMDL
MODEL 4
REMARK VINA RESULT:      -7.6      1.090      1.411
REMARK  Name = 
REMARK  6 active torsions:
REMARK  status: ('A' for Active; 'I' for Inactive)
REMARK    1  A    between atoms: C_2  and  O_4
REMARK    2  A    between atoms: O_4  and  C_5
REMARK    3  A    between atoms: C_6  and  N_7
REMARK    4  A    between atoms: C_21  and  O_22
REMARK    5  A    between atoms: O_22  and  C_23
REMARK    6  A    between atoms: C_26  and  N_27
REMARK                            x       y       z     vdW  Elec       q    Type
REMARK                         _______ _______ _______ _____ _____    ______ ____
ROOT
ATOM      1  C   UNL     1       2.992   6.749 -10.632  0.00  0.00    +0.217 C 
ATOM      2  C   UNL     1       2.661   6.336  -9.102  0.00  0.00    +0.043 C 
ATOM      3  C   UNL     1       1.057   6.309  -9.179  0.00  0.00    +0.009 C 
ATOM      4  C   UNL     1       0.919   5.338  -7.817  0.00  0.00    +0.000 C 
ATOM      5  C   UNL     1       1.158   6.691  -6.843  0.00  0.00    +0.000 C 
ATOM      6  C   UNL     1       2.775   6.559  -6.826  0.00  0.00    +0.000 C 
ATOM      7  C   UNL     1       0.930   5.859  -5.476  0.00  0.00    +0.006 C 
ATOM      8  C   UNL     1      -0.617   6.349  -5.352  0.00  0.00    +0.004 C 
ATOM      9  C   UNL     1      -1.041   5.491  -4.046  0.00  0.00    +0.050 C 
ATOM     10  C   UNL     1       0.318   5.180  -3.219  0.00  0.00    +0.217 C 
ATOM     11  C   UNL     1       0.818   6.819  -3.150  0.00  0.00    +0.099 C 
ATOM     12  C   UNL     1      -1.153   5.195  -6.382  0.00  0.00    +0.000 C 
ATOM     13  C   UNL     1       1.074   4.446  -5.608  0.00  0.00    +0.000 C 
ATOM     14  C   UNL     1       1.718   6.605  -4.492  0.00  0.00    +0.059 C 
ATOM     15  C   UNL     1      -0.672   5.548  -7.749  0.00  0.00    +0.000 C 
ATOM     16  C   UNL     1       1.237   5.104 -10.265  0.00  0.00    +0.059 C 
ATOM     17  C   UNL     1       3.184   5.011  -8.751  0.00  0.00    +0.004 C 
ATOM     18  C   UNL     1       3.094   7.323  -8.126  0.00  0.00    +0.004 C 
ATOM     19  C   UNL     1       1.397   6.435 -11.202  0.00  0.00    +0.099 C 
ENDROOT
BRANCH  19  20
ATOM     20  N   UNL     1       1.751   5.701 -12.519  0.00  0.00    +0.300 N 
ATOM     21  C   UNL     1       0.399   5.511 -13.067  0.00  0.00    +0.109 C 
ATOM     22  C   UNL     1      -0.498   6.650 -12.952  0.00  0.00    +0.061 C 
ATOM     23  C   UNL     1       0.086   7.710 -13.867  0.00  0.00    +0.012 C 
ATOM     24  C   UNL     1       1.523   7.907 -13.513  0.00  0.00    +0.061 C 
ATOM     25  C   UNL     1       2.330   6.620 -13.395  0.00  0.00    +0.109 C 
ATOM     26  C   UNL     1       2.004   4.368 -12.440  0.00  0.00    +0.170 C 
ENDBRANCH  19  20
BRANCH  11  27
ATOM     27  N   UNL     1       2.020   6.569  -2.196  0.00  0.00    +0.300 N 
ATOM     28  C   UNL     1       3.153   7.314  -2.554  0.00  0.00    +0.109 C 
ATOM     29  C   UNL     1       4.365   6.406  -2.566  0.00  0.00    +0.061 C 
ATOM     30  C   UNL     1       4.378   5.786  -1.173  0.00  0.00    +0.012 C 
ATOM     31  C   UNL     1       3.172   4.865  -1.037  0.00  0.00    +0.061 C 
ATOM     32  C   UNL     1       2.288   5.132  -2.239  0.00  0.00    +0.109 C 
ATOM     33  C   UNL     1       1.591   6.772  -0.838  0.00  0.00    +0.170 C 
ENDBRANCH  11  27
BRANCH   1  34
ATOM     34  O   UNL     1       3.565   5.382 -10.996  0.00  0.00    -0.446 OA
BRANCH  34  36
ATOM     35  C   UNL     1       5.932   5.919 -10.535  0.00  0.00    +0.121 C 
ATOM     36  C   UNL     1       4.891   5.296 -11.287  0.00  0.00    +0.318 C 
ATOM     37  O   UNL     1       5.157   4.935 -12.473  0.00  0.00    -0.250 OA
ENDBRANCH  34  36
ENDBRANCH   1  34
BRANCH  10  38
ATOM     38  O   UNL     1      -0.387   5.268  -1.869  0.00  0.00    -0.446 OA
BRANCH  38  39
ATOM     39  C   UNL     1      -1.716   5.511  -1.798  0.00  0.00    +0.318 C 
ATOM     40  O   UNL     1      -2.530   4.636  -2.200  0.00  0.00    -0.250 OA
ATOM     41  C   UNL     1      -2.165   6.762  -1.106  0.00  0.00    +0.121 C 
ENDBRANCH  38  39
ENDBRANCH  10  38
TORSDOF 6
ENDMDL
MODEL 5
REMARK VINA RESULT:      -7.5      1.590      9.678
REMARK  Name = 
REMARK  6 active torsions:
REMARK  status: ('A' for Active; 'I' for Inactive)
REMARK    1  A    between atoms: C_2  and  O_4
REMARK    2  A    between atoms: O_4  and  C_5
REMARK    3  A    between atoms: C_6  and  N_7
REMARK    4  A    between atoms: C_21  and  O_22
REMARK    5  A    between atoms: O_22  and  C_23
REMARK    6  A    between atoms: C_26  and  N_27
REMARK                            x       y       z     vdW  Elec       q    Type
REMARK                         _______ _______ _______ _____ _____    ______ ____
ROOT
ATOM      1  C   UNL     1      -0.220   6.804  -2.952  0.00  0.00    +0.217 C 
ATOM      2  C   UNL     1       0.373   6.341  -4.386  0.00  0.00    +0.043 C 
ATOM      3  C   UNL     1       1.940   6.553  -4.103  0.00  0.00    +0.009 C 
ATOM      4  C   UNL     1       2.395   5.523  -5.346  0.00  0.00    +0.000 C 
ATOM      5  C   UNL     1       2.113   6.760  -6.456  0.00  0.00    +0.000 C 
ATOM      6  C   UNL     1       0.548   6.393  -6.668  0.00  0.00    +0.000 C 
ATOM      7  C   UNL     1       2.640   5.879  -7.706  0.00  0.00    +0.006 C 
ATOM      8  C   UNL     1       4.108   6.580  -7.673  0.00  0.00    +0.004 C 
ATOM      9  C   UNL     1       4.822   5.707  -8.835  0.00  0.00    +0.050 C 
ATOM     10  C   UNL     1       3.646   5.147  -9.799  0.00  0.00    +0.217 C 
ATOM     11  C   UNL     1       2.943   6.688 -10.072  0.00  0.00    +0.099 C 
ATOM     12  C   UNL     1       4.647   5.588  -6.487  0.00  0.00    +0.000 C 
ATOM     13  C   UNL     1       2.671   4.472  -7.473  0.00  0.00    +0.000 C 
ATOM     14  C   UNL     1       1.903   6.435  -8.843  0.00  0.00    +0.059 C 
ATOM     15  C   UNL     1       3.938   5.958  -5.228  0.00  0.00    +0.000 C 
ATOM     16  C   UNL     1       1.775   5.411  -2.949  0.00  0.00    +0.059 C 
ATOM     17  C   UNL     1       0.088   4.934  -4.686  0.00  0.00    +0.004 C 
ATOM     18  C   UNL     1      -0.049   7.188  -5.491  0.00  0.00    +0.004 C 
ATOM     19  C   UNL     1       1.308   6.764  -2.157  0.00  0.00    +0.099 C 
ENDROOT
BRANCH  19  20
ATOM     20  N   UNL     1       0.877   6.076  -0.839  0.00  0.00    +0.300 N 
ATOM     21  C   UNL     1       2.144   6.152  -0.095  0.00  0.00    +0.109 C 
ATOM     22  C   UNL     1       2.862   7.413  -0.192  0.00  0.00    +0.061 C 
ATOM     23  C   UNL     1       1.991   8.423   0.531  0.00  0.00    +0.012 C 
ATOM     24  C   UNL     1       0.611   8.353  -0.035  0.00  0.00    +0.061 C 
ATOM     25  C   UNL     1       0.039   6.946  -0.141  0.00  0.00    +0.109 C 
ATOM     26  C   UNL     1       0.847   4.717  -0.826  0.00  0.00    +0.170 C 
ENDBRANCH  19  20
BRANCH  11  27
ATOM     27  N   UNL     1       1.930   6.203 -11.147  0.00  0.00    +0.300 N 
ATOM     28  C   UNL     1       2.435   6.316 -12.450  0.00  0.00    +0.109 C 
ATOM     29  C   UNL     1       1.401   6.984 -13.332  0.00  0.00    +0.061 C 
ATOM     30  C   UNL     1       0.157   6.118 -13.165  0.00  0.00    +0.012 C 
ATOM     31  C   UNL     1      -0.355   6.270 -11.737  0.00  0.00    +0.061 C 
ATOM     32  C   UNL     1       0.722   7.008 -10.969  0.00  0.00    +0.109 C 
ATOM     33  C   UNL     1       1.482   4.879 -10.807  0.00  0.00    +0.170 C 
ENDBRANCH  11  27
BRANCH   1  34
ATOM     34  O   UNL     1      -0.647   5.396  -2.549  0.00  0.00    -0.446 OA
BRANCH  34  36
ATOM     35  C   UNL     1      -2.900   5.368  -3.564  0.00  0.00    +0.121 C 
ATOM     36  C   UNL     1      -1.978   5.114  -2.504  0.00  0.00    +0.318 C 
ATOM     37  O   UNL     1      -2.451   4.945  -1.340  0.00  0.00    -0.250 OA
ENDBRANCH  34  36
ENDBRANCH   1  34
BRANCH  10  38
ATOM     38  O   UNL     1       4.513   5.246 -11.051  0.00  0.00    -0.446 OA
BRANCH  38  39
ATOM     39  C   UNL     1       5.660   5.962 -11.041  0.00  0.00    +0.318 C 
ATOM     40  O   UNL     1       5.643   7.168 -11.405  0.00  0.00    -0.250 OA
ATOM     41  C   UNL     1       6.882   5.322 -10.455  0.00  0.00    +0.121 C 
ENDBRANCH  38  39
ENDBRANCH  10  38
TORSDOF 6
ENDMDL
MODEL 6
REMARK VINA RESULT:      -7.1      2.043      9.160
REMARK  Name = 
REMARK  6 active torsions:
REMARK  status: ('A' for Active; 'I' for Inactive)
REMARK    1  A    between atoms: C_2  and  O_4
REMARK    2  A    between atoms: O_4  and  C_5
REMARK    3  A    between atoms: C_6  and  N_7
REMARK    4  A    between atoms: C_21  and  O_22
REMARK    5  A    between atoms: O_22  and  C_23
REMARK    6  A    between atoms: C_26  and  N_27
REMARK                            x       y       z     vdW  Elec       q    Type
REMARK                         _______ _______ _______ _____ _____    ______ ____
ROOT
ATOM      1  C   UNL     1       3.659   5.831  -3.384  0.00  0.00    +0.217 C 
ATOM      2  C   UNL     1       3.625   6.094  -4.981  0.00  0.00    +0.043 C 
ATOM      3  C   UNL     1       2.262   5.326  -5.344  0.00  0.00    +0.009 C 
ATOM      4  C   UNL     1       2.071   6.162  -6.786  0.00  0.00    +0.000 C 
ATOM      5  C   UNL     1       3.200   5.143  -7.512  0.00  0.00    +0.000 C 
ATOM      6  C   UNL     1       4.480   6.052  -7.104  0.00  0.00    +0.000 C 
ATOM      7  C   UNL     1       3.003   5.814  -8.969  0.00  0.00    +0.006 C 
ATOM      8  C   UNL     1       1.993   4.633  -9.454  0.00  0.00    +0.004 C 
ATOM      9  C   UNL     1       1.604   5.227 -10.910  0.00  0.00    +0.050 C 
ATOM     10  C   UNL     1       2.816   6.200 -11.366  0.00  0.00    +0.217 C 
ATOM     11  C   UNL     1       4.040   5.022 -11.124  0.00  0.00    +0.099 C 
ATOM     12  C   UNL     1       0.698   5.331  -8.735  0.00  0.00    +0.000 C 
ATOM     13  C   UNL     1       2.404   7.109  -8.953  0.00  0.00    +0.000 C 
ATOM     14  C   UNL     1       4.297   5.593  -9.619  0.00  0.00    +0.059 C 
ATOM     15  C   UNL     1       0.874   5.200  -7.260  0.00  0.00    +0.000 C 
ATOM     16  C   UNL     1       1.519   6.416  -4.383  0.00  0.00    +0.059 C 
ATOM     17  C   UNL     1       3.522   7.518  -5.315  0.00  0.00    +0.004 C 
ATOM     18  C   UNL     1       4.739   5.488  -5.694  0.00  0.00    +0.004 C 
ATOM     19  C   UNL     1       2.023   5.297  -3.302  0.00  0.00    +0.099 C 
ENDROOT
BRANCH  19  20
ATOM     20  N   UNL     1       1.585   6.054  -2.024  0.00  0.00    +0.300 N 
ATOM     21  C   UNL     1       0.590   5.103  -1.504  0.00  0.00    +0.109 C 
ATOM     22  C   UNL     1       0.961   3.698  -1.566  0.00  0.00    +0.061 C 
ATOM     23  C   UNL     1       2.109   3.546  -0.587  0.00  0.00    +0.012 C 
ATOM     24  C   UNL     1       3.151   4.564  -0.913  0.00  0.00    +0.061 C 
ATOM     25  C   UNL     1       2.621   5.981  -1.092  0.00  0.00    +0.109 C 
ATOM     26  C   UNL     1       0.682   7.057  -2.173  0.00  0.00    +0.170 C 
ENDBRANCH  19  20
BRANCH  11  27
ATOM     27  N   UNL     1       5.189   5.870 -11.738  0.00  0.00    +0.300 N 
ATOM     28  C   UNL     1       5.286   5.715 -13.128  0.00  0.00    +0.109 C 
ATOM     29  C   UNL     1       6.730   5.457 -13.504  0.00  0.00    +0.061 C 
ATOM     30  C   UNL     1       7.486   6.638 -12.904  0.00  0.00    +0.012 C 
ATOM     31  C   UNL     1       7.427   6.533 -11.384  0.00  0.00    +0.061 C 
ATOM     32  C   UNL     1       6.418   5.449 -11.065  0.00  0.00    +0.109 C 
ATOM     33  C   UNL     1       5.045   7.236 -11.310  0.00  0.00    +0.170 C 
ENDBRANCH  11  27
BRANCH   1  34
ATOM     34  O   UNL     1       3.371   7.286  -3.025  0.00  0.00    -0.446 OA
BRANCH  34  36
ATOM     35  C   UNL     1       3.961   9.127  -1.486  0.00  0.00    +0.121 C 
ATOM     36  C   UNL     1       4.253   7.938  -2.220  0.00  0.00    +0.318 C 
ATOM     37  O   UNL     1       5.473   7.655  -2.422  0.00  0.00    -0.250 OA
ENDBRANCH  34  36
ENDBRANCH   1  34
BRANCH  10  38
ATOM     38  O   UNL     1       2.663   5.835 -12.840  0.00  0.00    -0.446 OA
BRANCH  38  39
ATOM     39  C   UNL     1       1.519   6.116 -13.504  0.00  0.00    +0.318 C 
ATOM     40  O   UNL     1       1.120   7.309 -13.579  0.00  0.00    -0.250 OA
ATOM     41  C   UNL     1       0.849   5.001 -14.250  0.00  0.00    +0.121 C 
ENDBRANCH  38  39
ENDBRANCH  10  38
TORSDOF 6
ENDMDL
MODEL 7
REMARK VINA RESULT:      -6.4      1.880      8.981
REMARK  Name = 
REMARK  6 active torsions:
REMARK  status: ('A' for Active; 'I' for Inactive)
REMARK    1  A    between atoms: C_2  and  O_4
REMARK    2  A    between atoms: O_4  and  C_5
REMARK    3  A    between atoms: C_6  and  N_7
REMARK    4  A    between atoms: C_21  and  O_22
REMARK    5  A    between atoms: O_22  and  C_23
REMARK    6  A    between atoms: C_26  and  N_27
REMARK                            x       y       z     vdW  Elec       q    Type
REMARK                         _______ _______ _______ _____ _____    ______ ____
ROOT
ATOM      1  C   UNL     1       3.242   5.804  -3.018  0.00  0.00    +0.217 C 
ATOM      2  C   UNL     1       3.419   6.116  -4.597  0.00  0.00    +0.043 C 
ATOM      3  C   UNL     1       1.983   5.624  -5.123  0.00  0.00    +0.009 C 
ATOM      4  C   UNL     1       2.093   6.523  -6.535  0.00  0.00    +0.000 C 
ATOM      5  C   UNL     1       3.088   5.335  -7.199  0.00  0.00    +0.000 C 
ATOM      6  C   UNL     1       4.463   5.980  -6.630  0.00  0.00    +0.000 C 
ATOM      7  C   UNL     1       3.163   6.074  -8.635  0.00  0.00    +0.006 C 
ATOM      8  C   UNL     1       2.011   5.115  -9.269  0.00  0.00    +0.004 C 
ATOM      9  C   UNL     1       1.886   5.814 -10.724  0.00  0.00    +0.050 C 
ATOM     10  C   UNL     1       3.294   6.560 -11.018  0.00  0.00    +0.217 C 
ATOM     11  C   UNL     1       4.253   5.170 -10.718  0.00  0.00    +0.099 C 
ATOM     12  C   UNL     1       0.798   6.018  -8.643  0.00  0.00    +0.000 C 
ATOM     13  C   UNL     1       2.810   7.456  -8.613  0.00  0.00    +0.000 C 
ATOM     14  C   UNL     1       4.455   5.638  -9.170  0.00  0.00    +0.059 C 
ATOM     15  C   UNL     1       0.797   5.814  -7.165  0.00  0.00    +0.000 C 
ATOM     16  C   UNL     1       1.356   6.804  -4.186  0.00  0.00    +0.059 C 
ATOM     17  C   UNL     1       3.608   7.544  -4.871  0.00  0.00    +0.004 C 
ATOM     18  C   UNL     1       4.472   5.337  -5.230  0.00  0.00    +0.004 C 
ATOM     19  C   UNL     1       1.537   5.578  -3.117  0.00  0.00    +0.099 C 
ENDROOT
BRANCH  19  20
ATOM     20  N   UNL     1       1.116   6.365  -1.851  0.00  0.00    +0.300 N 
ATOM     21  C   UNL     1      -0.178   6.894  -2.309  0.00  0.00    +0.109 C 
ATOM     22  C   UNL     1      -1.021   5.963  -3.042  0.00  0.00    +0.061 C 
ATOM     23  C   UNL     1      -1.431   4.913  -2.027  0.00  0.00    +0.012 C 
ATOM     24  C   UNL     1      -0.202   4.381  -1.367  0.00  0.00    +0.061 C 
ATOM     25  C   UNL     1       0.759   5.448  -0.861  0.00  0.00    +0.109 C 
ATOM     26  C   UNL     1       1.659   7.598  -1.673  0.00  0.00    +0.170 C 
ENDBRANCH  19  20
BRANCH  11  27
ATOM     27  N   UNL     1       5.593   5.809 -11.180  0.00  0.00    +0.300 N 
ATOM     28  C   UNL     1       6.038   5.294 -12.406  0.00  0.00    +0.109 C 
ATOM     29  C   UNL     1       7.502   4.925 -12.291  0.00  0.00    +0.061 C 
ATOM     30  C   UNL     1       8.173   6.209 -11.816  0.00  0.00    +0.012 C 
ATOM     31  C   UNL     1       7.708   6.506 -10.395  0.00  0.00    +0.061 C 
ATOM     32  C   UNL     1       6.559   5.559 -10.111  0.00  0.00    +0.109 C 
ATOM     33  C   UNL     1       5.461   7.241 -11.160  0.00  0.00    +0.170 C 
ENDBRANCH  11  27
BRANCH   1  34
ATOM     34  O   UNL     1       3.187   7.275  -2.619  0.00  0.00    -0.446 OA
BRANCH  34  36
ATOM     35  C   UNL     1       5.050   7.024  -1.015  0.00  0.00    +0.121 C 
ATOM     36  C   UNL     1       4.217   7.785  -1.890  0.00  0.00    +0.318 C 
ATOM     37  O   UNL     1       4.191   9.042  -1.732  0.00  0.00    -0.250 OA
ENDBRANCH  34  36
ENDBRANCH   1  34
BRANCH  10  38
ATOM     38  O   UNL     1       3.227   6.274 -12.515  0.00  0.00    -0.446 OA
BRANCH  38  39
ATOM     39  C   UNL     1       2.039   6.250 -13.160  0.00  0.00    +0.318 C 
ATOM     40  O   UNL     1       1.330   7.292 -13.198  0.00  0.00    -0.250 OA
ATOM     41  C   UNL     1       1.683   5.014 -13.930  0.00  0.00    +0.121 C 
ENDBRANCH  38  39
ENDBRANCH  10  38
TORSDOF 6
ENDMDL
