MODEL 1
REMARK VINA RESULT:      -8.2      0.000      0.000
REMARK  Name = 
REMARK  0 active torsions:
REMARK  status: ('A' for Active; 'I' for Inactive)
REMARK                            x       y       z     vdW  Elec       q    Type
REMARK                         _______ _______ _______ _____ _____    ______ ____
ROOT
ATOM      1  C   UNL     1       2.652   3.768  -8.505  0.00  0.00    +0.090 C 
ATOM      2  N   UNL     1       2.253   5.070  -8.764  0.00  0.00    -0.268 NA
ATOM      3  C   UNL     1       1.065   5.280  -7.952  0.00  0.00    +0.097 C 
ATOM      4  C   UNL     1       1.727   4.934  -6.449  0.00  0.00    +0.112 C 
ATOM      5  N   UNL     1       2.160   6.466  -6.226  0.00  0.00    -0.289 N 
ATOM      6  C   UNL     1       2.911   6.747  -5.036  0.00  0.00    +0.128 A 
ATOM      7  C   UNL     1       2.593   6.423  -3.725  0.00  0.00    +0.014 A 
ATOM      8  C   UNL     1       1.526   5.475  -3.296  0.00  0.00    +0.055 C 
ATOM      9  C   UNL     1       0.400   5.402  -4.245  0.00  0.00    -0.020 A 
ATOM     10  C   UNL     1      -0.837   5.515  -3.615  0.00  0.00    -0.004 A 
ATOM     11  C   UNL     1      -1.900   5.990  -4.374  0.00  0.00    -0.000 A 
ATOM     12  C   UNL     1      -1.744   6.171  -5.742  0.00  0.00    -0.000 A 
ATOM     13  C   UNL     1      -0.527   5.881  -6.345  0.00  0.00    -0.003 A 
ATOM     14  C   UNL     1       3.487   6.644  -2.711  0.00  0.00    +0.000 A 
ATOM     15  C   UNL     1       4.773   7.035  -3.063  0.00  0.00    +0.020 A 
ATOM     16  C   UNL     1       4.881   7.758  -4.242  0.00  0.00    +0.100 A 
ATOM     17  N   UNL     1       3.944   7.592  -5.210  0.00  0.00    -0.229 NA
ATOM     18  C   UNL     1       2.887   6.994  -7.360  0.00  0.00    +0.110 C 
ATOM     19  C   UNL     1       0.330   5.149  -5.613  0.00  0.00    -0.007 A 
ATOM     20  C   UNL     1       3.317   5.937  -8.333  0.00  0.00    +0.094 C 
ENDROOT
TORSDOF 0
ENDMDL
MODEL 2
REMARK VINA RESULT:      -8.0      1.628      4.654
REMARK  Name = 
REMARK  0 active torsions:
REMARK  status: ('A' for Active; 'I' for Inactive)
REMARK                            x       y       z     vdW  Elec       q    Type
REMARK                         _______ _______ _______ _____ _____    ______ ____
ROOT
ATOM      1  C   UNL     1       3.937   4.263  -4.450  0.00  0.00    +0.090 C 
ATOM      2  N   UNL     1       3.940   5.648  -4.515  0.00  0.00    -0.268 NA
ATOM      3  C   UNL     1       3.542   5.974  -5.875  0.00  0.00    +0.097 C 
ATOM      4  C   UNL     1       2.063   5.178  -5.897  0.00  0.00    +0.112 C 
ATOM      5  N   UNL     1       1.294   6.480  -5.351  0.00  0.00    -0.289 N 
ATOM      6  C   UNL     1      -0.105   6.321  -5.075  0.00  0.00    +0.128 A 
ATOM      7  C   UNL     1      -1.094   5.826  -5.915  0.00  0.00    +0.014 A 
ATOM      8  C   UNL     1      -0.865   5.102  -7.197  0.00  0.00    +0.055 C 
ATOM      9  C   UNL     1       0.382   5.501  -7.874  0.00  0.00    -0.020 A 
ATOM     10  C   UNL     1       0.191   5.783  -9.224  0.00  0.00    -0.004 A 
ATOM     11  C   UNL     1       1.094   6.649  -9.831  0.00  0.00    -0.000 A 
ATOM     12  C   UNL     1       2.227   7.059  -9.140  0.00  0.00    -0.000 A 
ATOM     13  C   UNL     1       2.450   6.608  -7.846  0.00  0.00    -0.003 A 
ATOM     14  C   UNL     1      -2.365   5.611  -5.452  0.00  0.00    +0.000 A 
ATOM     15  C   UNL     1      -2.580   5.737  -4.085  0.00  0.00    +0.020 A 
ATOM     16  C   UNL     1      -1.753   6.636  -3.427  0.00  0.00    +0.100 A 
ATOM     17  N   UNL     1      -0.525   6.904  -3.938  0.00  0.00    -0.229 NA
ATOM     18  C   UNL     1       1.930   7.032  -4.174  0.00  0.00    +0.110 C 
ATOM     19  C   UNL     1       1.710   5.555  -7.455  0.00  0.00    -0.007 A 
ATOM     20  C   UNL     1       2.960   6.121  -3.575  0.00  0.00    +0.094 C 
ENDROOT
TORSDOF 0
ENDMDL
MODEL 3
REMARK VINA RESULT:      -7.8      0.995      1.159
REMARK  Name = 
REMARK  0 active torsions:
REMARK  status: ('A' for Active; 'I' for Inactive)
REMARK                            x       y       z     vdW  Elec       q    Type
REMARK                         _______ _______ _______ _____ _____    ______ ____
ROOT
ATOM      1  C   UNL     1       2.430   3.990  -7.628  0.00  0.00    +0.090 C 
ATOM      2  N   UNL     1       2.174   5.337  -7.828  0.00  0.00    -0.268 NA
ATOM      3  C   UNL     1       0.887   5.586  -7.200  0.00  0.00    +0.097 C 
ATOM      4  C   UNL     1       1.265   5.069  -5.648  0.00  0.00    +0.112 C 
ATOM      5  N   UNL     1       1.764   6.537  -5.223  0.00  0.00    -0.289 N 
ATOM      6  C   UNL     1       2.327   6.659  -3.909  0.00  0.00    +0.128 A 
ATOM      7  C   UNL     1       1.774   6.264  -2.698  0.00  0.00    +0.014 A 
ATOM      8  C   UNL     1       0.585   5.381  -2.532  0.00  0.00    +0.055 C 
ATOM      9  C   UNL     1      -0.371   5.479  -3.649  0.00  0.00    -0.020 A 
ATOM     10  C   UNL     1      -1.684   5.648  -3.216  0.00  0.00    -0.004 A 
ATOM     11  C   UNL     1      -2.569   6.270  -4.088  0.00  0.00    -0.000 A 
ATOM     12  C   UNL     1      -2.177   6.542  -5.393  0.00  0.00    -0.000 A 
ATOM     13  C   UNL     1      -0.902   6.195  -5.819  0.00  0.00    -0.003 A 
ATOM     14  C   UNL     1       2.501   6.329  -1.540  0.00  0.00    +0.000 A 
ATOM     15  C   UNL     1       3.853   6.634  -1.648  0.00  0.00    +0.020 A 
ATOM     16  C   UNL     1       4.206   7.434  -2.724  0.00  0.00    +0.100 A 
ATOM     17  N   UNL     1       3.432   7.424  -3.839  0.00  0.00    -0.229 NA
ATOM     18  C   UNL     1       2.705   7.086  -6.175  0.00  0.00    +0.110 C 
ATOM     19  C   UNL     1      -0.232   5.338  -5.028  0.00  0.00    -0.007 A 
ATOM     20  C   UNL     1       3.212   6.074  -7.158  0.00  0.00    +0.094 C 
ENDROOT
TORSDOF 0
ENDMDL
MODEL 4
REMARK VINA RESULT:      -7.8      1.369      4.300
REMARK  Name = 
REMARK  0 active torsions:
REMARK  status: ('A' for Active; 'I' for Inactive)
REMARK                            x       y       z     vdW  Elec       q    Type
REMARK                         _______ _______ _______ _____ _____    ______ ____
ROOT
ATOM      1  C   UNL     1       3.819   7.585  -3.748  0.00  0.00    +0.090 C 
ATOM      2  N   UNL     1       3.646   6.259  -3.381  0.00  0.00    -0.268 NA
ATOM      3  C   UNL     1       2.214   6.092  -3.193  0.00  0.00    +0.097 C 
ATOM      4  C   UNL     1       1.706   6.568  -4.721  0.00  0.00    +0.112 C 
ATOM      5  N   UNL     1       1.816   5.066  -5.285  0.00  0.00    -0.289 N 
ATOM      6  C   UNL     1       1.560   4.895  -6.686  0.00  0.00    +0.128 A 
ATOM      7  C   UNL     1       0.456   5.316  -7.415  0.00  0.00    +0.014 A 
ATOM      8  C   UNL     1      -0.583   6.275  -6.944  0.00  0.00    +0.055 C 
ATOM      9  C   UNL     1      -0.775   6.252  -5.483  0.00  0.00    -0.020 A 
ATOM     10  C   UNL     1      -2.118   6.167  -5.122  0.00  0.00    -0.004 A 
ATOM     11  C   UNL     1      -2.412   5.613  -3.881  0.00  0.00    -0.000 A 
ATOM     12  C   UNL     1      -1.384   5.327  -2.991  0.00  0.00    -0.000 A 
ATOM     13  C   UNL     1      -0.067   5.591  -3.346  0.00  0.00    -0.003 A 
ATOM     14  C   UNL     1       0.426   5.192  -8.778  0.00  0.00    +0.000 A 
ATOM     15  C   UNL     1       1.598   4.799  -9.412  0.00  0.00    +0.020 A 
ATOM     16  C   UNL     1       2.441   3.987  -8.669  0.00  0.00    +0.100 A 
ATOM     17  N   UNL     1       2.406   4.058  -7.314  0.00  0.00    -0.229 NA
ATOM     18  C   UNL     1       3.095   4.464  -4.977  0.00  0.00    +0.110 C 
ATOM     19  C   UNL     1       0.103   6.395  -4.411  0.00  0.00    -0.007 A 
ATOM     20  C   UNL     1       4.109   5.449  -4.476  0.00  0.00    +0.094 C 
ENDROOT
TORSDOF 0
ENDMDL
MODEL 5
REMARK VINA RESULT:      -7.6      1.806      4.124
REMARK  Name = 
REMARK  0 active torsions:
REMARK  status: ('A' for Active; 'I' for Inactive)
REMARK                            x       y       z     vdW  Elec       q    Type
REMARK                         _______ _______ _______ _____ _____    ______ ____
ROOT
ATOM      1  C   UNL     1      -1.877   7.663  -3.143  0.00  0.00    +0.090 C 
ATOM      2  N   UNL     1      -1.724   6.286  -3.202  0.00  0.00    -0.268 NA
ATOM      3  C   UNL     1      -1.457   5.985  -4.599  0.00  0.00    +0.097 C 
ATOM      4  C   UNL     1      -0.096   6.948  -4.804  0.00  0.00    +0.112 C 
ATOM      5  N   UNL     1       0.882   5.754  -4.352  0.00  0.00    -0.289 N 
ATOM      6  C   UNL     1       2.275   6.080  -4.249  0.00  0.00    +0.128 A 
ATOM      7  C   UNL     1       3.090   6.672  -5.204  0.00  0.00    +0.014 A 
ATOM      8  C   UNL     1       2.624   7.343  -6.451  0.00  0.00    +0.055 C 
ATOM      9  C   UNL     1       1.360   6.789  -6.970  0.00  0.00    -0.020 A 
ATOM     10  C   UNL     1       1.420   6.508  -8.333  0.00  0.00    -0.004 A 
ATOM     11  C   UNL     1       0.558   5.533  -8.822  0.00  0.00    -0.000 A 
ATOM     12  C   UNL     1      -0.427   5.005  -7.997  0.00  0.00    -0.000 A 
ATOM     13  C   UNL     1      -0.544   5.449  -6.687  0.00  0.00    -0.003 A 
ATOM     14  C   UNL     1       4.373   7.041  -4.901  0.00  0.00    +0.000 A 
ATOM     15  C   UNL     1       4.765   6.965  -3.570  0.00  0.00    +0.020 A 
ATOM     16  C   UNL     1       4.135   5.988  -2.812  0.00  0.00    +0.100 A 
ATOM     17  N   UNL     1       2.894   5.569  -3.169  0.00  0.00    -0.229 NA
ATOM     18  C   UNL     1       0.461   5.152  -3.104  0.00  0.00    +0.110 C 
ATOM     19  C   UNL     1       0.108   6.588  -6.393  0.00  0.00    -0.007 A 
ATOM     20  C   UNL     1      -0.589   5.947  -2.387  0.00  0.00    +0.094 C 
ENDROOT
TORSDOF 0
ENDMDL
MODEL 6
REMARK VINA RESULT:      -7.6      1.724      4.139
REMARK  Name = 
REMARK  0 active torsions:
REMARK  status: ('A' for Active; 'I' for Inactive)
REMARK                            x       y       z     vdW  Elec       q    Type
REMARK                         _______ _______ _______ _____ _____    ______ ____
ROOT
ATOM      1  C   UNL     1      -1.491   7.442  -4.742  0.00  0.00    +0.090 C 
ATOM      2  N   UNL     1      -1.293   6.098  -4.465  0.00  0.00    -0.268 NA
ATOM      3  C   UNL     1      -0.349   5.629  -5.467  0.00  0.00    +0.097 C 
ATOM      4  C   UNL     1       0.903   6.701  -5.148  0.00  0.00    +0.112 C 
ATOM      5  N   UNL     1       1.550   5.707  -4.063  0.00  0.00    -0.289 N 
ATOM      6  C   UNL     1       2.692   6.203  -3.350  0.00  0.00    +0.128 A 
ATOM      7  C   UNL     1       3.862   6.740  -3.871  0.00  0.00    +0.014 A 
ATOM      8  C   UNL     1       4.072   7.163  -5.284  0.00  0.00    +0.055 C 
ATOM      9  C   UNL     1       3.257   6.397  -6.246  0.00  0.00    -0.020 A 
ATOM     10  C   UNL     1       4.004   5.929  -7.324  0.00  0.00    -0.004 A 
ATOM     11  C   UNL     1       3.533   4.801  -7.985  0.00  0.00    -0.000 A 
ATOM     12  C   UNL     1       2.280   4.289  -7.671  0.00  0.00    -0.000 A 
ATOM     13  C   UNL     1       1.506   4.903  -6.695  0.00  0.00    -0.003 A 
ATOM     14  C   UNL     1       4.806   7.295  -3.049  0.00  0.00    +0.000 A 
ATOM     15  C   UNL     1       4.474   7.459  -1.710  0.00  0.00    +0.020 A 
ATOM     16  C   UNL     1       3.575   6.537  -1.195  0.00  0.00    +0.100 A 
ATOM     17  N   UNL     1       2.695   5.930  -2.033  0.00  0.00    -0.229 NA
ATOM     18  C   UNL     1       0.574   5.250  -3.098  0.00  0.00    +0.110 C 
ATOM     19  C   UNL     1       1.891   6.140  -6.333  0.00  0.00    -0.007 A 
ATOM     20  C   UNL     1      -0.715   6.014  -3.150  0.00  0.00    +0.094 C 
ENDROOT
TORSDOF 0
ENDMDL
MODEL 7
REMARK VINA RESULT:      -7.5      4.014      8.120
REMARK  Name = 
REMARK  0 active torsions:
REMARK  status: ('A' for Active; 'I' for Inactive)
REMARK                            x       y       z     vdW  Elec       q    Type
REMARK                         _______ _______ _______ _____ _____    ______ ____
ROOT
ATOM      1  C   UNL     1       2.883   4.018  -7.981  0.00  0.00    +0.090 C 
ATOM      2  N   UNL     1       2.922   5.404  -7.955  0.00  0.00    -0.268 NA
ATOM      3  C   UNL     1       4.169   5.769  -8.608  0.00  0.00    +0.097 C 
ATOM      4  C   UNL     1       3.910   5.007 -10.081  0.00  0.00    +0.112 C 
ATOM      5  N   UNL     1       3.198   6.313 -10.692  0.00  0.00    -0.289 N 
ATOM      6  C   UNL     1       2.652   6.178 -12.012  0.00  0.00    +0.128 A 
ATOM      7  C   UNL     1       3.285   5.724 -13.161  0.00  0.00    +0.014 A 
ATOM      8  C   UNL     1       4.600   5.024 -13.211  0.00  0.00    +0.055 C 
ATOM      9  C   UNL     1       5.505   5.411 -12.113  0.00  0.00    -0.020 A 
ATOM     10  C   UNL     1       6.785   5.727 -12.563  0.00  0.00    -0.004 A 
ATOM     11  C   UNL     1       7.544   6.586 -11.777  0.00  0.00    -0.000 A 
ATOM     12  C   UNL     1       7.086   6.956 -10.518  0.00  0.00    -0.000 A 
ATOM     13  C   UNL     1       5.871   6.471 -10.054  0.00  0.00    -0.003 A 
ATOM     14  C   UNL     1       2.582   5.527 -14.319  0.00  0.00    +0.000 A 
ATOM     15  C   UNL     1       1.197   5.628 -14.254  0.00  0.00    +0.020 A 
ATOM     16  C   UNL     1       0.701   6.492 -13.290  0.00  0.00    +0.100 A 
ATOM     17  N   UNL     1       1.443   6.745 -12.181  0.00  0.00    -0.229 NA
ATOM     18  C   UNL     1       2.163   6.824  -9.820  0.00  0.00    +0.110 C 
ATOM     19  C   UNL     1       5.359   5.426 -10.728  0.00  0.00    -0.007 A 
ATOM     20  C   UNL     1       1.797   5.878  -8.716  0.00  0.00    +0.094 C 
ENDROOT
TORSDOF 0
ENDMDL
MODEL 8
REMARK VINA RESULT:      -7.5      1.662      5.104
REMARK  Name = 
REMARK  0 active torsions:
REMARK  status: ('A' for Active; 'I' for Inactive)
REMARK                            x       y       z     vdW  Elec       q    Type
REMARK                         _______ _______ _______ _____ _____    ______ ____
ROOT
ATOM      1  C   UNL     1       4.002   4.791  -2.370  0.00  0.00    +0.090 C 
ATOM      2  N   UNL     1       4.233   6.035  -2.936  0.00  0.00    -0.268 NA
ATOM      3  C   UNL     1       4.502   5.778  -4.342  0.00  0.00    +0.097 C 
ATOM      4  C   UNL     1       3.074   4.982  -4.725  0.00  0.00    +0.112 C 
ATOM      5  N   UNL     1       2.345   6.362  -5.109  0.00  0.00    -0.289 N 
ATOM      6  C   UNL     1       0.954   6.270  -5.451  0.00  0.00    +0.128 A 
ATOM      7  C   UNL     1       0.354   5.444  -6.392  0.00  0.00    +0.014 A 
ATOM      8  C   UNL     1       0.998   4.280  -7.064  0.00  0.00    +0.055 C 
ATOM      9  C   UNL     1       2.458   4.426  -7.205  0.00  0.00    -0.020 A 
ATOM     10  C   UNL     1       2.901   4.140  -8.495  0.00  0.00    -0.004 A 
ATOM     11  C   UNL     1       4.092   4.728  -8.906  0.00  0.00    -0.000 A 
ATOM     12  C   UNL     1       4.871   5.423  -7.990  0.00  0.00    -0.000 A 
ATOM     13  C   UNL     1       4.455   5.533  -6.669  0.00  0.00    -0.003 A 
ATOM     14  C   UNL     1      -1.009   5.382  -6.504  0.00  0.00    +0.000 A 
ATOM     15  C   UNL     1      -1.762   6.032  -5.535  0.00  0.00    +0.020 A 
ATOM     16  C   UNL     1      -1.173   7.150  -4.963  0.00  0.00    +0.100 A 
ATOM     17  N   UNL     1       0.181   7.241  -4.930  0.00  0.00    -0.229 NA
ATOM     18  C   UNL     1       2.494   7.360  -4.072  0.00  0.00    +0.110 C 
ATOM     19  C   UNL     1       3.475   4.694  -6.291  0.00  0.00    -0.007 A 
ATOM     20  C   UNL     1       3.027   6.804  -2.786  0.00  0.00    +0.094 C 
ENDROOT
TORSDOF 0
ENDMDL
MODEL 9
REMARK VINA RESULT:      -7.5      4.542      7.302
REMARK  Name = 
REMARK  0 active torsions:
REMARK  status: ('A' for Active; 'I' for Inactive)
REMARK                            x       y       z     vdW  Elec       q    Type
REMARK                         _______ _______ _______ _____ _____    ______ ____
ROOT
ATOM      1  C   UNL     1       6.545   7.880 -11.320  0.00  0.00    +0.090 C 
ATOM      2  N   UNL     1       6.510   6.557 -11.733  0.00  0.00    -0.268 NA
ATOM      3  C   UNL     1       5.699   5.864 -10.745  0.00  0.00    +0.097 C 
ATOM      4  C   UNL     1       4.299   6.781 -10.886  0.00  0.00    +0.112 C 
ATOM      5  N   UNL     1       3.724   5.822 -12.042  0.00  0.00    -0.289 N 
ATOM      6  C   UNL     1       2.485   6.226 -12.643  0.00  0.00    +0.128 A 
ATOM      7  C   UNL     1       1.289   6.541 -12.013  0.00  0.00    +0.014 A 
ATOM      8  C   UNL     1       1.112   6.786 -10.554  0.00  0.00    +0.055 C 
ATOM      9  C   UNL     1       2.077   6.046  -9.720  0.00  0.00    -0.020 A 
ATOM     10  C   UNL     1       1.465   5.373  -8.665  0.00  0.00    -0.004 A 
ATOM     11  C   UNL     1       2.120   4.259  -8.154  0.00  0.00    -0.000 A 
ATOM     12  C   UNL     1       3.407   3.959  -8.580  0.00  0.00    -0.000 A 
ATOM     13  C   UNL     1       4.033   4.769  -9.518  0.00  0.00    -0.003 A 
ATOM     14  C   UNL     1       0.232   7.042 -12.725  0.00  0.00    +0.000 A 
ATOM     15  C   UNL     1       0.457   7.385 -14.053  0.00  0.00    +0.020 A 
ATOM     16  C   UNL     1       1.437   6.652 -14.705  0.00  0.00    +0.100 A 
ATOM     17  N   UNL     1       2.438   6.090 -13.981  0.00  0.00    -0.229 NA
ATOM     18  C   UNL     1       4.692   5.603 -13.096  0.00  0.00    +0.110 C 
ATOM     19  C   UNL     1       3.468   5.971  -9.725  0.00  0.00    -0.007 A 
ATOM     20  C   UNL     1       5.869   6.528 -13.020  0.00  0.00    +0.094 C 
ENDROOT
TORSDOF 0
ENDMDL
