MODEL 1
REMARK VINA RESULT:      -8.4      0.000      0.000
REMARK  Name = 
REMARK  5 active torsions:
REMARK  status: ('A' for Active; 'I' for Inactive)
REMARK    1  A    between atoms: C_2  and  C_3
REMARK    2  A    between atoms: C_4  and  C_5
REMARK    3  A    between atoms: C_9  and  S_10
REMARK    4  A    between atoms: S_10  and  N_13
REMARK    5  A    between atoms: N_13  and  C_14
REMARK                            x       y       z     vdW  Elec       q    Type
REMARK                         _______ _______ _______ _____ _____    ______ ____
ROOT
ATOM      1  C   UNL     1       2.213   6.790  -5.342  0.00  0.00    +0.001 A 
ATOM      2  C   UNL     1       2.054   6.186  -6.584  0.00  0.00    +0.020 A 
ATOM      3  C   UNL     1       3.142   5.668  -7.277  0.00  0.00    +0.127 A 
ATOM      4  C   UNL     1       4.322   5.420  -6.585  0.00  0.00    +0.020 A 
ATOM      5  C   UNL     1       4.574   6.272  -5.517  0.00  0.00    +0.001 A 
ATOM      6  C   UNL     1       3.534   7.018  -4.974  0.00  0.00    +0.000 A 
ENDROOT
BRANCH   3   7
ATOM      7  S   UNL     1       2.885   4.856  -8.812  0.00  0.00    +0.093 S 
ATOM      8  O   UNL     1       2.468   3.433  -8.540  0.00  0.00    -0.148 OA
ATOM      9  O   UNL     1       1.823   5.532  -9.620  0.00  0.00    -0.148 OA
BRANCH   7  10
ATOM     10  N   UNL     1       4.360   4.761  -9.720  0.00  0.00    -0.097 NA
BRANCH  10  11
ATOM     11  C   UNL     1       5.234   5.892  -9.815  0.00  0.00    +0.091 A 
ATOM     12  C   UNL     1       6.574   5.820  -9.460  0.00  0.00    +0.018 A 
ATOM     13  C   UNL     1       7.546   6.414 -10.254  0.00  0.00    +0.001 A 
ATOM     14  C   UNL     1       7.199   7.606 -10.850  0.00  0.00    +0.000 A 
ATOM     15  C   UNL     1       5.858   7.816 -11.142  0.00  0.00    +0.001 A 
ATOM     16  C   UNL     1       4.895   6.936 -10.664  0.00  0.00    +0.018 A 
ENDBRANCH  10  11
ENDBRANCH   7  10
ENDBRANCH   3   7
BRANCH   1  18
ATOM     17  C   UNL     1       0.400   5.644  -4.156  0.00  0.00    +0.025 C 
ATOM     18  C   UNL     1       1.131   6.717  -4.354  0.00  0.00    +0.002 C 
BRANCH  17  20
ATOM     19  O   UNL     1      -1.760   5.745  -5.082  0.00  0.00    -0.536 OA
ATOM     20  C   UNL     1      -1.062   5.665  -4.050  0.00  0.00    +0.110 C 
ATOM     21  N   UNL     1      -1.738   5.343  -2.831  0.00  0.00    -0.198 NA
ATOM     22  O   UNL     1      -2.845   4.555  -2.804  0.00  0.00    -0.402 OA
ENDBRANCH  17  20
ENDBRANCH   1  18
TORSDOF 5
ENDMDL
MODEL 2
REMARK VINA RESULT:      -8.4      3.163      8.057
REMARK  Name = 
REMARK  5 active torsions:
REMARK  status: ('A' for Active; 'I' for Inactive)
REMARK    1  A    between atoms: C_2  and  C_3
REMARK    2  A    between atoms: C_4  and  C_5
REMARK    3  A    between atoms: C_9  and  S_10
REMARK    4  A    between atoms: S_10  and  N_13
REMARK    5  A    between atoms: N_13  and  C_14
REMARK                            x       y       z     vdW  Elec       q    Type
REMARK                         _______ _______ _______ _____ _____    ______ ____
ROOT
ATOM      1  C   UNL     1       4.429   5.362  -8.734  0.00  0.00    +0.001 A 
ATOM      2  C   UNL     1       4.118   5.710  -7.424  0.00  0.00    +0.020 A 
ATOM      3  C   UNL     1       3.040   5.134  -6.764  0.00  0.00    +0.127 A 
ATOM      4  C   UNL     1       2.497   3.957  -7.263  0.00  0.00    +0.020 A 
ATOM      5  C   UNL     1       2.573   3.807  -8.643  0.00  0.00    +0.001 A 
ATOM      6  C   UNL     1       3.469   4.583  -9.369  0.00  0.00    +0.000 A 
ENDROOT
BRANCH   3   7
ATOM      7  S   UNL     1       2.725   5.556  -5.088  0.00  0.00    +0.093 S 
ATOM      8  O   UNL     1       3.594   4.699  -4.204  0.00  0.00    -0.148 OA
ATOM      9  O   UNL     1       3.023   6.998  -4.820  0.00  0.00    -0.148 OA
BRANCH   7  10
ATOM     10  N   UNL     1       1.085   5.192  -4.654  0.00  0.00    -0.097 NA
BRANCH  10  11
ATOM     11  C   UNL     1      -0.005   5.906  -5.248  0.00  0.00    +0.091 A 
ATOM     12  C   UNL     1      -0.734   5.387  -6.310  0.00  0.00    +0.018 A 
ATOM     13  C   UNL     1      -2.118   5.492  -6.332  0.00  0.00    +0.001 A 
ATOM     14  C   UNL     1      -2.648   6.655  -5.816  0.00  0.00    +0.000 A 
ATOM     15  C   UNL     1      -1.930   7.308  -4.824  0.00  0.00    +0.001 A 
ATOM     16  C   UNL     1      -0.637   6.900  -4.516  0.00  0.00    +0.018 A 
ENDBRANCH  10  11
ENDBRANCH   7  10
ENDBRANCH   3   7
BRANCH   1  18
ATOM     17  C   UNL     1       6.340   6.389  -9.874  0.00  0.00    +0.025 C 
ATOM     18  C   UNL     1       5.825   5.398  -9.184  0.00  0.00    +0.002 C 
BRANCH  17  20
ATOM     19  O   UNL     1       8.326   6.663 -11.107  0.00  0.00    -0.536 OA
ATOM     20  C   UNL     1       7.165   6.203 -11.072  0.00  0.00    +0.110 C 
ATOM     21  N   UNL     1       6.794   5.294 -12.114  0.00  0.00    -0.198 NA
ATOM     22  O   UNL     1       7.695   4.464 -12.705  0.00  0.00    -0.402 OA
ENDBRANCH  17  20
ENDBRANCH   1  18
TORSDOF 5
ENDMDL
MODEL 3
REMARK VINA RESULT:      -8.1      3.247      8.187
REMARK  Name = 
REMARK  5 active torsions:
REMARK  status: ('A' for Active; 'I' for Inactive)
REMARK    1  A    between atoms: C_2  and  C_3
REMARK    2  A    between atoms: C_4  and  C_5
REMARK    3  A    between atoms: C_9  and  S_10
REMARK    4  A    between atoms: S_10  and  N_13
REMARK    5  A    between atoms: N_13  and  C_14
REMARK                            x       y       z     vdW  Elec       q    Type
REMARK                         _______ _______ _______ _____ _____    ______ ____
ROOT
ATOM      1  C   UNL     1       2.262   6.391 -10.956  0.00  0.00    +0.001 A 
ATOM      2  C   UNL     1       2.518   5.980  -9.653  0.00  0.00    +0.020 A 
ATOM      3  C   UNL     1       1.503   5.487  -8.842  0.00  0.00    +0.127 A 
ATOM      4  C   UNL     1       0.320   5.059  -9.432  0.00  0.00    +0.020 A 
ATOM      5  C   UNL     1      -0.042   5.732 -10.593  0.00  0.00    +0.001 A 
ATOM      6  C   UNL     1       0.914   6.468 -11.285  0.00  0.00    +0.000 A 
ENDROOT
BRANCH   3   7
ATOM      7  S   UNL     1       1.885   4.919  -7.225  0.00  0.00    +0.093 S 
ATOM      8  O   UNL     1       2.490   3.542  -7.328  0.00  0.00    -0.148 OA
ATOM      9  O   UNL     1       2.854   5.829  -6.538  0.00  0.00    -0.148 OA
BRANCH   7  10
ATOM     10  N   UNL     1       0.446   4.744  -6.272  0.00  0.00    -0.097 NA
BRANCH  10  11
ATOM     11  C   UNL     1      -0.481   5.828  -6.142  0.00  0.00    +0.091 A 
ATOM     12  C   UNL     1      -1.816   5.703  -6.502  0.00  0.00    +0.018 A 
ATOM     13  C   UNL     1      -2.816   6.223  -5.692  0.00  0.00    +0.001 A 
ATOM     14  C   UNL     1      -2.527   7.410  -5.055  0.00  0.00    +0.000 A 
ATOM     15  C   UNL     1      -1.198   7.675  -4.754  0.00  0.00    +0.001 A 
ATOM     16  C   UNL     1      -0.194   6.858  -5.258  0.00  0.00    +0.018 A 
ENDBRANCH  10  11
ENDBRANCH   7  10
ENDBRANCH   3   7
BRANCH   1  18
ATOM     17  C   UNL     1       4.277   5.377 -11.916  0.00  0.00    +0.025 C 
ATOM     18  C   UNL     1       3.306   6.259 -11.979  0.00  0.00    +0.002 C 
BRANCH  17  20
ATOM     19  O   UNL     1       6.271   6.534 -11.448  0.00  0.00    -0.536 OA
ATOM     20  C   UNL     1       5.684   5.700 -12.168  0.00  0.00    +0.110 C 
ATOM     21  N   UNL     1       6.496   4.913 -13.046  0.00  0.00    -0.198 NA
ATOM     22  O   UNL     1       7.772   4.564 -12.733  0.00  0.00    -0.402 OA
ENDBRANCH  17  20
ENDBRANCH   1  18
TORSDOF 5
ENDMDL
MODEL 4
REMARK VINA RESULT:      -8.0      3.750      5.408
REMARK  Name = 
REMARK  5 active torsions:
REMARK  status: ('A' for Active; 'I' for Inactive)
REMARK    1  A    between atoms: C_2  and  C_3
REMARK    2  A    between atoms: C_4  and  C_5
REMARK    3  A    between atoms: C_9  and  S_10
REMARK    4  A    between atoms: S_10  and  N_13
REMARK    5  A    between atoms: N_13  and  C_14
REMARK                            x       y       z     vdW  Elec       q    Type
REMARK                         _______ _______ _______ _____ _____    ______ ____
ROOT
ATOM      1  C   UNL     1       0.786   6.043 -10.583  0.00  0.00    +0.001 A 
ATOM      2  C   UNL     1       1.704   5.523 -11.489  0.00  0.00    +0.020 A 
ATOM      3  C   UNL     1       1.728   5.947 -12.811  0.00  0.00    +0.127 A 
ATOM      4  C   UNL     1       1.097   7.139 -13.147  0.00  0.00    +0.020 A 
ATOM      5  C   UNL     1      -0.019   7.455 -12.380  0.00  0.00    +0.001 A 
ATOM      6  C   UNL     1      -0.208   6.830 -11.153  0.00  0.00    +0.000 A 
ENDROOT
BRANCH   3   7
ATOM      7  S   UNL     1       2.947   5.310 -13.903  0.00  0.00    +0.093 S 
ATOM      8  O   UNL     1       2.420   4.045 -14.529  0.00  0.00    -0.148 OA
ATOM      9  O   UNL     1       3.283   6.290 -14.983  0.00  0.00    -0.148 OA
BRANCH   7  10
ATOM     10  N   UNL     1       4.381   4.859 -13.036  0.00  0.00    -0.097 NA
BRANCH  10  11
ATOM     11  C   UNL     1       5.341   5.847 -12.646  0.00  0.00    +0.091 A 
ATOM     12  C   UNL     1       5.145   6.672 -11.547  0.00  0.00    +0.018 A 
ATOM     13  C   UNL     1       6.185   6.928 -10.663  0.00  0.00    +0.001 A 
ATOM     14  C   UNL     1       7.440   7.042 -11.219  0.00  0.00    +0.000 A 
ATOM     15  C   UNL     1       7.695   6.339 -12.388  0.00  0.00    +0.001 A 
ATOM     16  C   UNL     1       6.657   5.710 -13.064  0.00  0.00    +0.018 A 
ENDBRANCH  10  11
ENDBRANCH   7  10
ENDBRANCH   3   7
BRANCH   1  18
ATOM     17  C   UNL     1       1.823   7.154  -8.660  0.00  0.00    +0.025 C 
ATOM     18  C   UNL     1       1.144   6.150  -9.164  0.00  0.00    +0.002 C 
BRANCH  17  20
ATOM     19  O   UNL     1       2.957   7.572  -6.642  0.00  0.00    -0.536 OA
ATOM     20  C   UNL     1       2.958   6.991  -7.747  0.00  0.00    +0.110 C 
ATOM     21  N   UNL     1       3.960   5.991  -7.956  0.00  0.00    -0.198 NA
ATOM     22  O   UNL     1       4.448   5.232  -6.939  0.00  0.00    -0.402 OA
ENDBRANCH  17  20
ENDBRANCH   1  18
TORSDOF 5
ENDMDL
MODEL 5
REMARK VINA RESULT:      -8.0      1.975      2.348
REMARK  Name = 
REMARK  5 active torsions:
REMARK  status: ('A' for Active; 'I' for Inactive)
REMARK    1  A    between atoms: C_2  and  C_3
REMARK    2  A    between atoms: C_4  and  C_5
REMARK    3  A    between atoms: C_9  and  S_10
REMARK    4  A    between atoms: S_10  and  N_13
REMARK    5  A    between atoms: N_13  and  C_14
REMARK                            x       y       z     vdW  Elec       q    Type
REMARK                         _______ _______ _______ _____ _____    ______ ____
ROOT
ATOM      1  C   UNL     1       2.391   7.069  -6.852  0.00  0.00    +0.001 A 
ATOM      2  C   UNL     1       2.685   7.058  -8.211  0.00  0.00    +0.020 A 
ATOM      3  C   UNL     1       3.824   6.427  -8.695  0.00  0.00    +0.127 A 
ATOM      4  C   UNL     1       4.473   5.500  -7.888  0.00  0.00    +0.020 A 
ATOM      5  C   UNL     1       4.392   5.744  -6.522  0.00  0.00    +0.001 A 
ATOM      6  C   UNL     1       3.413   6.602  -6.035  0.00  0.00    +0.000 A 
ENDROOT
BRANCH   3   7
ATOM      7  S   UNL     1       4.120   6.382 -10.425  0.00  0.00    +0.093 S 
ATOM      8  O   UNL     1       4.791   5.076 -10.766  0.00  0.00    -0.148 OA
ATOM      9  O   UNL     1       2.847   6.497 -11.204  0.00  0.00    -0.148 OA
BRANCH   7  10
ATOM     10  N   UNL     1       5.227   7.631 -10.898  0.00  0.00    -0.097 NA
BRANCH  10  11
ATOM     11  C   UNL     1       6.476   7.305 -11.520  0.00  0.00    +0.091 A 
ATOM     12  C   UNL     1       7.579   6.893 -10.785  0.00  0.00    +0.018 A 
ATOM     13  C   UNL     1       8.363   5.834 -11.224  0.00  0.00    +0.001 A 
ATOM     14  C   UNL     1       8.541   5.735 -12.587  0.00  0.00    +0.000 A 
ATOM     15  C   UNL     1       7.535   6.226 -13.407  0.00  0.00    +0.001 A 
ATOM     16  C   UNL     1       6.490   6.963 -12.864  0.00  0.00    +0.018 A 
ENDBRANCH  10  11
ENDBRANCH   7  10
ENDBRANCH   3   7
BRANCH   1  18
ATOM     17  C   UNL     1       0.575   6.560  -5.286  0.00  0.00    +0.025 C 
ATOM     18  C   UNL     1       0.991   7.094  -6.411  0.00  0.00    +0.002 C 
BRANCH  17  20
ATOM     19  O   UNL     1      -1.097   5.448  -4.060  0.00  0.00    -0.536 OA
ATOM     20  C   UNL     1      -0.611   5.706  -5.181  0.00  0.00    +0.110 C 
ATOM     21  N   UNL     1      -1.395   5.355  -6.327  0.00  0.00    -0.198 NA
ATOM     22  O   UNL     1      -2.755   5.367  -6.303  0.00  0.00    -0.402 OA
ENDBRANCH  17  20
ENDBRANCH   1  18
TORSDOF 5
ENDMDL
MODEL 6
REMARK VINA RESULT:      -8.0      2.088      2.769
REMARK  Name = 
REMARK  5 active torsions:
REMARK  status: ('A' for Active; 'I' for Inactive)
REMARK    1  A    between atoms: C_2  and  C_3
REMARK    2  A    between atoms: C_4  and  C_5
REMARK    3  A    between atoms: C_9  and  S_10
REMARK    4  A    between atoms: S_10  and  N_13
REMARK    5  A    between atoms: N_13  and  C_14
REMARK                            x       y       z     vdW  Elec       q    Type
REMARK                         _______ _______ _______ _____ _____    ______ ____
ROOT
ATOM      1  C   UNL     1      -0.659   5.279  -6.872  0.00  0.00    +0.001 A 
ATOM      2  C   UNL     1       0.693   5.245  -6.545  0.00  0.00    +0.020 A 
ATOM      3  C   UNL     1       1.671   5.434  -7.513  0.00  0.00    +0.127 A 
ATOM      4  C   UNL     1       1.316   6.018  -8.723  0.00  0.00    +0.020 A 
ATOM      5  C   UNL     1       0.019   5.757  -9.149  0.00  0.00    +0.001 A 
ATOM      6  C   UNL     1      -0.924   5.298  -8.236  0.00  0.00    +0.000 A 
ENDROOT
BRANCH   3   7
ATOM      7  S   UNL     1       3.363   5.447  -7.043  0.00  0.00    +0.093 S 
ATOM      8  O   UNL     1       3.772   6.869  -6.753  0.00  0.00    -0.148 OA
ATOM      9  O   UNL     1       3.601   4.611  -5.825  0.00  0.00    -0.148 OA
BRANCH   7  10
ATOM     10  N   UNL     1       4.374   4.910  -8.346  0.00  0.00    -0.097 NA
BRANCH  10  11
ATOM     11  C   UNL     1       5.237   5.828  -9.029  0.00  0.00    +0.091 A 
ATOM     12  C   UNL     1       6.616   5.668  -9.045  0.00  0.00    +0.018 A 
ATOM     13  C   UNL     1       7.334   5.861 -10.218  0.00  0.00    +0.001 A 
ATOM     14  C   UNL     1       6.886   6.868 -11.045  0.00  0.00    +0.000 A 
ATOM     15  C   UNL     1       5.533   7.176 -11.014  0.00  0.00    +0.001 A 
ATOM     16  C   UNL     1       4.714   6.619 -10.040  0.00  0.00    +0.018 A 
ENDBRANCH  10  11
ENDBRANCH   7  10
ENDBRANCH   3   7
BRANCH   1  18
ATOM     17  C   UNL     1      -1.363   6.652  -4.967  0.00  0.00    +0.025 C 
ATOM     18  C   UNL     1      -1.634   5.751  -5.883  0.00  0.00    +0.002 C 
BRANCH  17  20
ATOM     19  O   UNL     1      -2.270   7.457  -2.952  0.00  0.00    -0.536 OA
ATOM     20  C   UNL     1      -1.725   6.509  -3.554  0.00  0.00    +0.110 C 
ATOM     21  N   UNL     1      -1.715   5.239  -2.894  0.00  0.00    -0.198 NA
ATOM     22  O   UNL     1      -2.711   4.853  -2.052  0.00  0.00    -0.402 OA
ENDBRANCH  17  20
ENDBRANCH   1  18
TORSDOF 5
ENDMDL
MODEL 7
REMARK VINA RESULT:      -7.7      3.654      5.977
REMARK  Name = 
REMARK  5 active torsions:
REMARK  status: ('A' for Active; 'I' for Inactive)
REMARK    1  A    between atoms: C_2  and  C_3
REMARK    2  A    between atoms: C_4  and  C_5
REMARK    3  A    between atoms: C_9  and  S_10
REMARK    4  A    between atoms: S_10  and  N_13
REMARK    5  A    between atoms: N_13  and  C_14
REMARK                            x       y       z     vdW  Elec       q    Type
REMARK                         _______ _______ _______ _____ _____    ______ ____
ROOT
ATOM      1  C   UNL     1       4.863   5.606 -10.446  0.00  0.00    +0.001 A 
ATOM      2  C   UNL     1       3.849   5.675 -11.396  0.00  0.00    +0.020 A 
ATOM      3  C   UNL     1       4.137   5.681 -12.755  0.00  0.00    +0.127 A 
ATOM      4  C   UNL     1       5.390   5.252 -13.178  0.00  0.00    +0.020 A 
ATOM      5  C   UNL     1       6.431   5.492 -12.289  0.00  0.00    +0.001 A 
ATOM      6  C   UNL     1       6.146   5.762 -10.956  0.00  0.00    +0.000 A 
ENDROOT
BRANCH   3   7
ATOM      7  S   UNL     1       2.823   5.703 -13.919  0.00  0.00    +0.093 S 
ATOM      8  O   UNL     1       3.307   6.370 -15.181  0.00  0.00    -0.148 OA
ATOM      9  O   UNL     1       2.354   4.320 -14.244  0.00  0.00    -0.148 OA
BRANCH   7  10
ATOM     10  N   UNL     1       1.499   6.665 -13.342  0.00  0.00    -0.097 NA
BRANCH  10  11
ATOM     11  C   UNL     1       0.674   6.203 -12.266  0.00  0.00    +0.091 A 
ATOM     12  C   UNL     1       0.341   4.864 -12.115  0.00  0.00    +0.018 A 
ATOM     13  C   UNL     1       0.374   4.266 -10.862  0.00  0.00    +0.001 A 
ATOM     14  C   UNL     1      -0.022   5.054  -9.803  0.00  0.00    +0.000 A 
ATOM     15  C   UNL     1       0.168   6.425  -9.911  0.00  0.00    +0.001 A 
ATOM     16  C   UNL     1       0.558   6.981 -11.124  0.00  0.00    +0.018 A 
ENDBRANCH  10  11
ENDBRANCH   7  10
ENDBRANCH   3   7
BRANCH   1  18
ATOM     17  C   UNL     1       3.438   4.475  -8.803  0.00  0.00    +0.025 C 
ATOM     18  C   UNL     1       4.611   4.944  -9.161  0.00  0.00    +0.002 C 
BRANCH  17  20
ATOM     19  O   UNL     1       2.634   5.880  -7.095  0.00  0.00    -0.536 OA
ATOM     20  C   UNL     1       2.835   4.712  -7.488  0.00  0.00    +0.110 C 
ATOM     21  N   UNL     1       2.229   3.658  -6.732  0.00  0.00    -0.198 NA
ATOM     22  O   UNL     1       1.045   3.822  -6.083  0.00  0.00    -0.402 OA
ENDBRANCH  17  20
ENDBRANCH   1  18
TORSDOF 5
ENDMDL
MODEL 8
REMARK VINA RESULT:      -7.7      3.409      4.944
REMARK  Name = 
REMARK  5 active torsions:
REMARK  status: ('A' for Active; 'I' for Inactive)
REMARK    1  A    between atoms: C_2  and  C_3
REMARK    2  A    between atoms: C_4  and  C_5
REMARK    3  A    between atoms: C_9  and  S_10
REMARK    4  A    between atoms: S_10  and  N_13
REMARK    5  A    between atoms: N_13  and  C_14
REMARK                            x       y       z     vdW  Elec       q    Type
REMARK                         _______ _______ _______ _____ _____    ______ ____
ROOT
ATOM      1  C   UNL     1      -0.538   5.318  -6.538  0.00  0.00    +0.001 A 
ATOM      2  C   UNL     1       0.808   5.411  -6.200  0.00  0.00    +0.020 A 
ATOM      3  C   UNL     1       1.784   5.575  -7.174  0.00  0.00    +0.127 A 
ATOM      4  C   UNL     1       1.405   6.014  -8.437  0.00  0.00    +0.020 A 
ATOM      5  C   UNL     1       0.135   5.623  -8.845  0.00  0.00    +0.001 A 
ATOM      6  C   UNL     1      -0.786   5.188  -7.899  0.00  0.00    +0.000 A 
ENDROOT
BRANCH   3   7
ATOM      7  S   UNL     1       3.464   5.753  -6.696  0.00  0.00    +0.093 S 
ATOM      8  O   UNL     1       3.772   4.732  -5.630  0.00  0.00    -0.148 OA
ATOM      9  O   UNL     1       4.390   5.548  -7.854  0.00  0.00    -0.148 OA
BRANCH   7  10
ATOM     10  N   UNL     1       3.743   7.305  -5.973  0.00  0.00    -0.097 NA
BRANCH  10  11
ATOM     11  C   UNL     1       3.781   7.452  -4.549  0.00  0.00    +0.091 A 
ATOM     12  C   UNL     1       2.712   7.085  -3.741  0.00  0.00    +0.018 A 
ATOM     13  C   UNL     1       2.930   6.397  -2.555  0.00  0.00    +0.001 A 
ATOM     14  C   UNL     1       4.059   6.748  -1.847  0.00  0.00    +0.000 A 
ATOM     15  C   UNL     1       5.144   7.235  -2.563  0.00  0.00    +0.001 A 
ATOM     16  C   UNL     1       5.010   7.537  -3.913  0.00  0.00    +0.018 A 
ENDBRANCH  10  11
ENDBRANCH   7  10
ENDBRANCH   3   7
BRANCH   1  18
ATOM     17  C   UNL     1      -1.321   6.715  -4.681  0.00  0.00    +0.025 C 
ATOM     18  C   UNL     1      -1.558   5.812  -5.605  0.00  0.00    +0.002 C 
BRANCH  17  20
ATOM     19  O   UNL     1      -2.421   7.505  -2.758  0.00  0.00    -0.536 OA
ATOM     20  C   UNL     1      -1.761   6.587  -3.289  0.00  0.00    +0.110 C 
ATOM     21  N   UNL     1      -1.688   5.345  -2.582  0.00  0.00    -0.198 NA
ATOM     22  O   UNL     1      -2.700   4.903  -1.789  0.00  0.00    -0.402 OA
ENDBRANCH  17  20
ENDBRANCH   1  18
TORSDOF 5
ENDMDL
MODEL 9
REMARK VINA RESULT:      -7.7      3.456      7.004
REMARK  Name = 
REMARK  5 active torsions:
REMARK  status: ('A' for Active; 'I' for Inactive)
REMARK    1  A    between atoms: C_2  and  C_3
REMARK    2  A    between atoms: C_4  and  C_5
REMARK    3  A    between atoms: C_9  and  S_10
REMARK    4  A    between atoms: S_10  and  N_13
REMARK    5  A    between atoms: N_13  and  C_14
REMARK                            x       y       z     vdW  Elec       q    Type
REMARK                         _______ _______ _______ _____ _____    ______ ____
ROOT
ATOM      1  C   UNL     1       4.352   5.867  -4.681  0.00  0.00    +0.001 A 
ATOM      2  C   UNL     1       3.346   5.474  -3.805  0.00  0.00    +0.020 A 
ATOM      3  C   UNL     1       3.017   6.243  -2.696  0.00  0.00    +0.127 A 
ATOM      4  C   UNL     1       3.424   7.571  -2.655  0.00  0.00    +0.020 A 
ATOM      5  C   UNL     1       4.620   7.845  -3.308  0.00  0.00    +0.001 A 
ATOM      6  C   UNL     1       5.115   6.941  -4.241  0.00  0.00    +0.000 A 
ENDROOT
BRANCH   3   7
ATOM      7  S   UNL     1       1.697   5.740  -1.654  0.00  0.00    +0.093 S 
ATOM      8  O   UNL     1       2.189   4.639  -0.749  0.00  0.00    -0.148 OA
ATOM      9  O   UNL     1       1.194   6.874  -0.817  0.00  0.00    -0.148 OA
BRANCH   7  10
ATOM     10  N   UNL     1       0.399   5.058  -2.581  0.00  0.00    -0.097 NA
BRANCH  10  11
ATOM     11  C   UNL     1      -0.313   5.853  -3.537  0.00  0.00    +0.091 A 
ATOM     12  C   UNL     1      -0.051   5.778  -4.899  0.00  0.00    +0.018 A 
ATOM     13  C   UNL     1      -1.092   5.750  -5.817  0.00  0.00    +0.001 A 
ATOM     14  C   UNL     1      -2.193   6.521  -5.510  0.00  0.00    +0.000 A 
ATOM     15  C   UNL     1      -2.470   6.745  -4.168  0.00  0.00    +0.001 A 
ATOM     16  C   UNL     1      -1.554   6.368  -3.195  0.00  0.00    +0.018 A 
ENDBRANCH  10  11
ENDBRANCH   7  10
ENDBRANCH   3   7
BRANCH   1  18
ATOM     17  C   UNL     1       3.389   6.029  -6.930  0.00  0.00    +0.025 C 
ATOM     18  C   UNL     1       4.262   5.505  -6.101  0.00  0.00    +0.002 C 
BRANCH  17  20
ATOM     19  O   UNL     1       2.502   4.002  -7.728  0.00  0.00    -0.536 OA
ATOM     20  C   UNL     1       2.582   5.240  -7.865  0.00  0.00    +0.110 C 
ATOM     21  N   UNL     1       1.670   5.854  -8.782  0.00  0.00    -0.198 NA
ATOM     22  O   UNL     1       0.424   5.357  -9.004  0.00  0.00    -0.402 OA
ENDBRANCH  17  20
ENDBRANCH   1  18
TORSDOF 5
ENDMDL
