MODEL 1
REMARK VINA RESULT:      -4.4      0.000      0.000
REMARK  Name = 
REMARK  1 active torsions:
REMARK  status: ('A' for Active; 'I' for Inactive)
REMARK    1  A    between atoms: C_2  and  CA_4
REMARK                            x       y       z     vdW  Elec       q    Type
REMARK                         _______ _______ _______ _____ _____    ______ ____
ROOT
ATOM      1  CA  HYP A   1       6.789   6.441 -12.176  0.00  0.00    +0.178 C 
ATOM      2  N   HYP A   1       5.833   5.198 -12.432  0.00  0.00    -0.206 NA
ATOM      3  CD  HYP A   1       4.776   5.456 -11.519  0.00  0.00    +0.122 C 
ATOM      4  CG  HYP A   1       5.429   6.591 -10.491  0.00  0.00    +0.171 C 
ATOM      5  OD  HYP A   1       5.047   5.763  -9.255  0.00  0.00    -0.222 OA
ATOM      6  CB  HYP A   1       6.951   5.903 -10.602  0.00  0.00    +0.063 C 
ENDROOT
BRANCH   1   8
ATOM      7  O   HYP A   1       7.758   4.689 -13.258  0.00  0.00    -0.244 OA
ATOM      8  C   HYP A   1       8.146   5.724 -12.720  0.00  0.00    +0.380 C 
ATOM      9  OXT HYP A   1       9.319   5.887 -12.114  0.00  0.00    -0.244 OA
ENDBRANCH   1   8
TORSDOF 1
ENDMDL
MODEL 2
REMARK VINA RESULT:      -4.1      9.836     11.971
REMARK  Name = 
REMARK  1 active torsions:
REMARK  status: ('A' for Active; 'I' for Inactive)
REMARK    1  A    between atoms: C_2  and  CA_4
REMARK                            x       y       z     vdW  Elec       q    Type
REMARK                         _______ _______ _______ _____ _____    ______ ____
ROOT
ATOM      1  CA  HYP A   1      -1.816   6.546  -3.653  0.00  0.00    +0.178 C 
ATOM      2  N   HYP A   1      -0.774   5.368  -3.431  0.00  0.00    -0.206 NA
ATOM      3  CD  HYP A   1      -0.017   5.424  -4.631  0.00  0.00    +0.122 C 
ATOM      4  CG  HYP A   1      -0.973   6.337  -5.642  0.00  0.00    +0.171 C 
ATOM      5  OD  HYP A   1      -0.906   5.273  -6.748  0.00  0.00    -0.222 OA
ATOM      6  CB  HYP A   1      -2.377   5.705  -4.984  0.00  0.00    +0.063 C 
ENDROOT
BRANCH   1   8
ATOM      7  O   HYP A   1      -2.716   4.763  -2.562  0.00  0.00    -0.244 OA
ATOM      8  C   HYP A   1      -2.942   5.969  -2.627  0.00  0.00    +0.380 C 
ATOM      9  OXT HYP A   1      -4.137   6.540  -2.501  0.00  0.00    -0.244 OA
ENDBRANCH   1   8
TORSDOF 1
ENDMDL
MODEL 3
REMARK VINA RESULT:      -3.9      1.388      3.872
REMARK  Name = 
REMARK  1 active torsions:
REMARK  status: ('A' for Active; 'I' for Inactive)
REMARK    1  A    between atoms: C_2  and  CA_4
REMARK                            x       y       z     vdW  Elec       q    Type
REMARK                         _______ _______ _______ _____ _____    ______ ____
ROOT
ATOM      1  CA  HYP A   1       6.080   6.733 -10.908  0.00  0.00    +0.178 C 
ATOM      2  N   HYP A   1       7.045   5.746 -10.122  0.00  0.00    -0.206 NA
ATOM      3  CD  HYP A   1       8.063   5.513 -11.084  0.00  0.00    +0.122 C 
ATOM      4  CG  HYP A   1       7.369   6.029 -12.506  0.00  0.00    +0.171 C 
ATOM      5  OD  HYP A   1       7.700   4.702 -13.206  0.00  0.00    -0.222 OA
ATOM      6  CB  HYP A   1       5.853   5.510 -12.024  0.00  0.00    +0.063 C 
ENDROOT
BRANCH   1   8
ATOM      7  O   HYP A   1       5.093   5.495  -9.273  0.00  0.00    -0.244 OA
ATOM      8  C   HYP A   1       4.746   6.392 -10.039  0.00  0.00    +0.380 C 
ATOM      9  OXT HYP A   1       3.522   6.554 -10.535  0.00  0.00    -0.244 OA
ENDBRANCH   1   8
TORSDOF 1
ENDMDL
MODEL 4
REMARK VINA RESULT:      -3.8      5.629      6.956
REMARK  Name = 
REMARK  1 active torsions:
REMARK  status: ('A' for Active; 'I' for Inactive)
REMARK    1  A    between atoms: C_2  and  CA_4
REMARK                            x       y       z     vdW  Elec       q    Type
REMARK                         _______ _______ _______ _____ _____    ______ ____
ROOT
ATOM      1  CA  HYP A   1       1.408   5.861  -7.840  0.00  0.00    +0.178 C 
ATOM      2  N   HYP A   1       2.630   4.993  -7.314  0.00  0.00    -0.206 NA
ATOM      3  CD  HYP A   1       1.993   4.140  -6.375  0.00  0.00    +0.122 C 
ATOM      4  CG  HYP A   1       0.532   4.891  -6.108  0.00  0.00    +0.171 C 
ATOM      5  OD  HYP A   1       0.741   4.865  -4.586  0.00  0.00    -0.222 OA
ATOM      6  CB  HYP A   1       1.215   6.410  -6.274  0.00  0.00    +0.063 C 
ENDROOT
BRANCH   1   8
ATOM      7  O   HYP A   1       3.392   6.645  -8.636  0.00  0.00    -0.244 OA
ATOM      8  C   HYP A   1       2.303   7.130  -8.333  0.00  0.00    +0.380 C 
ATOM      9  OXT HYP A   1       2.109   8.356  -7.855  0.00  0.00    -0.244 OA
ENDBRANCH   1   8
TORSDOF 1
ENDMDL
MODEL 5
REMARK VINA RESULT:      -3.7      7.723      8.989
REMARK  Name = 
REMARK  1 active torsions:
REMARK  status: ('A' for Active; 'I' for Inactive)
REMARK    1  A    between atoms: C_2  and  CA_4
REMARK                            x       y       z     vdW  Elec       q    Type
REMARK                         _______ _______ _______ _____ _____    ______ ____
ROOT
ATOM      1  CA  HYP A   1       0.351   5.083  -5.380  0.00  0.00    +0.178 C 
ATOM      2  N   HYP A   1       0.668   6.637  -5.477  0.00  0.00    -0.206 NA
ATOM      3  CD  HYP A   1      -0.518   7.206  -4.943  0.00  0.00    +0.122 C 
ATOM      4  CG  HYP A   1      -1.604   5.945  -4.999  0.00  0.00    +0.171 C 
ATOM      5  OD  HYP A   1      -2.638   6.804  -5.742  0.00  0.00    -0.222 OA
ATOM      6  CB  HYP A   1      -0.934   5.353  -6.414  0.00  0.00    +0.063 C 
ENDROOT
BRANCH   1   8
ATOM      7  O   HYP A   1       0.930   5.111  -7.582  0.00  0.00    -0.244 OA
ATOM      8  C   HYP A   1       1.390   4.628  -6.549  0.00  0.00    +0.380 C 
ATOM      9  OXT HYP A   1       2.087   3.498  -6.469  0.00  0.00    -0.244 OA
ENDBRANCH   1   8
TORSDOF 1
ENDMDL
MODEL 6
REMARK VINA RESULT:      -3.7      6.166      6.983
REMARK  Name = 
REMARK  1 active torsions:
REMARK  status: ('A' for Active; 'I' for Inactive)
REMARK    1  A    between atoms: C_2  and  CA_4
REMARK                            x       y       z     vdW  Elec       q    Type
REMARK                         _______ _______ _______ _____ _____    ______ ____
ROOT
ATOM      1  CA  HYP A   1       3.247   7.143  -6.182  0.00  0.00    +0.178 C 
ATOM      2  N   HYP A   1       2.173   6.113  -5.626  0.00  0.00    -0.206 NA
ATOM      3  CD  HYP A   1       2.832   5.604  -4.476  0.00  0.00    +0.122 C 
ATOM      4  CG  HYP A   1       4.417   6.052  -4.716  0.00  0.00    +0.171 C 
ATOM      5  OD  HYP A   1       4.909   4.614  -4.488  0.00  0.00    -0.222 OA
ATOM      6  CB  HYP A   1       4.286   5.848  -6.373  0.00  0.00    +0.063 C 
ENDROOT
BRANCH   1   8
ATOM      7  O   HYP A   1       2.211   8.241  -7.885  0.00  0.00    -0.244 OA
ATOM      8  C   HYP A   1       2.710   7.130  -7.720  0.00  0.00    +0.380 C 
ATOM      9  OXT HYP A   1       2.317   6.010  -8.319  0.00  0.00    -0.244 OA
ENDBRANCH   1   8
TORSDOF 1
ENDMDL
MODEL 7
REMARK VINA RESULT:      -3.7      2.041      2.465
REMARK  Name = 
REMARK  1 active torsions:
REMARK  status: ('A' for Active; 'I' for Inactive)
REMARK    1  A    between atoms: C_2  and  CA_4
REMARK                            x       y       z     vdW  Elec       q    Type
REMARK                         _______ _______ _______ _____ _____    ______ ____
ROOT
ATOM      1  CA  HYP A   1       6.006   5.832 -11.125  0.00  0.00    +0.178 C 
ATOM      2  N   HYP A   1       6.695   5.938  -9.698  0.00  0.00    -0.206 NA
ATOM      3  CD  HYP A   1       5.731   5.308  -8.867  0.00  0.00    +0.122 C 
ATOM      4  CG  HYP A   1       4.363   5.292  -9.814  0.00  0.00    +0.171 C 
ATOM      5  OD  HYP A   1       3.527   5.945  -8.703  0.00  0.00    -0.222 OA
ATOM      6  CB  HYP A   1       4.759   6.761 -10.513  0.00  0.00    +0.063 C 
ENDROOT
BRANCH   1   8
ATOM      7  O   HYP A   1       7.945   6.655 -11.989  0.00  0.00    -0.244 OA
ATOM      8  C   HYP A   1       6.809   7.083 -11.792  0.00  0.00    +0.380 C 
ATOM      9  OXT HYP A   1       6.496   8.346 -11.518  0.00  0.00    -0.244 OA
ENDBRANCH   1   8
TORSDOF 1
ENDMDL
MODEL 8
REMARK VINA RESULT:      -3.7      8.931     10.509
REMARK  Name = 
REMARK  1 active torsions:
REMARK  status: ('A' for Active; 'I' for Inactive)
REMARK    1  A    between atoms: C_2  and  CA_4
REMARK                            x       y       z     vdW  Elec       q    Type
REMARK                         _______ _______ _______ _____ _____    ______ ____
ROOT
ATOM      1  CA  HYP A   1      -0.383   6.521  -4.263  0.00  0.00    +0.178 C 
ATOM      2  N   HYP A   1      -1.393   5.640  -5.116  0.00  0.00    -0.206 NA
ATOM      3  CD  HYP A   1      -2.543   5.634  -4.284  0.00  0.00    +0.122 C 
ATOM      4  CG  HYP A   1      -1.950   6.136  -2.812  0.00  0.00    +0.171 C 
ATOM      5  OD  HYP A   1      -2.571   4.928  -2.095  0.00  0.00    -0.222 OA
ATOM      6  CB  HYP A   1      -0.490   5.358  -3.068  0.00  0.00    +0.063 C 
ENDROOT
BRANCH   1   8
ATOM      7  O   HYP A   1       1.416   6.838  -5.621  0.00  0.00    -0.244 OA
ATOM      8  C   HYP A   1       0.973   5.919  -4.935  0.00  0.00    +0.380 C 
ATOM      9  OXT HYP A   1       1.113   4.622  -5.197  0.00  0.00    -0.244 OA
ENDBRANCH   1   8
TORSDOF 1
ENDMDL
MODEL 9
REMARK VINA RESULT:      -3.6      9.013     11.139
REMARK  Name = 
REMARK  1 active torsions:
REMARK  status: ('A' for Active; 'I' for Inactive)
REMARK    1  A    between atoms: C_2  and  CA_4
REMARK                            x       y       z     vdW  Elec       q    Type
REMARK                         _______ _______ _______ _____ _____    ______ ____
ROOT
ATOM      1  CA  HYP A   1      -1.124   5.543  -4.349  0.00  0.00    +0.178 C 
ATOM      2  N   HYP A   1      -0.645   7.048  -4.522  0.00  0.00    -0.206 NA
ATOM      3  CD  HYP A   1       0.590   6.880  -5.203  0.00  0.00    +0.122 C 
ATOM      4  CG  HYP A   1       0.939   5.270  -4.966  0.00  0.00    +0.171 C 
ATOM      5  OD  HYP A   1       2.342   5.601  -4.437  0.00  0.00    -0.222 OA
ATOM      6  CB  HYP A   1       0.254   5.284  -3.438  0.00  0.00    +0.063 C 
ENDROOT
BRANCH   1   8
ATOM      7  O   HYP A   1      -1.672   6.867  -2.580  0.00  0.00    -0.244 OA
ATOM      8  C   HYP A   1      -2.096   5.822  -3.072  0.00  0.00    +0.380 C 
ATOM      9  OXT HYP A   1      -2.678   4.833  -2.400  0.00  0.00    -0.244 OA
ENDBRANCH   1   8
TORSDOF 1
ENDMDL
