MODEL 1
REMARK VINA RESULT:      -6.3      0.000      0.000
REMARK  Name = 
REMARK  4 active torsions:
REMARK  status: ('A' for Active; 'I' for Inactive)
REMARK    1  A    between atoms: C_2  and  C_3
REMARK    2  A    between atoms: C_3  and  C_4
REMARK    3  A    between atoms: C_3  and  C_8
REMARK    4  A    between atoms: C_4  and  C_5
REMARK                            x       y       z     vdW  Elec       q    Type
REMARK                         _______ _______ _______ _____ _____    ______ ____
ROOT
ATOM      1  C   UNL     1       4.413   5.508  -8.395  0.00  0.00    +0.053 C 
ENDROOT
BRANCH   1   2
ATOM      2  C   UNL     1       5.404   5.811  -9.610  0.00  0.00    -0.020 A 
ATOM      3  C   UNL     1       5.157   6.877 -10.431  0.00  0.00    -0.003 A 
ATOM      4  C   UNL     1       5.997   6.900 -11.547  0.00  0.00    +0.011 A 
ATOM      5  C   UNL     1       7.279   6.367 -11.457  0.00  0.00    +0.058 A 
ATOM      6 CL   UNL     1       8.145   5.765 -12.868  0.00  0.00    -0.082 Cl
ATOM      7  C   UNL     1       7.698   6.092 -10.160  0.00  0.00    +0.011 A 
ATOM      8  C   UNL     1       6.739   5.784  -9.199  0.00  0.00    -0.003 A 
ENDBRANCH   1   2
BRANCH   1  10
ATOM      9  N   UNL     1       2.689   3.771  -8.354  0.00  0.00    -0.131 NA
ATOM     10  C   UNL     1       3.622   4.343  -9.229  0.00  0.00    +0.114 C 
ENDBRANCH   1  10
BRANCH   1  11
ATOM     11  C   UNL     1       3.317   6.647  -8.780  0.00  0.00    +0.120 C 
BRANCH  11  12
ATOM     12  C   UNL     1       2.786   7.293  -7.606  0.00  0.00    +0.365 C 
ATOM     13  O   UNL     1       2.038   8.452  -7.884  0.00  0.00    -0.246 OA
ATOM     14  O   UNL     1       3.273   7.324  -6.445  0.00  0.00    -0.246 OA
ENDBRANCH  11  12
ENDBRANCH   1  11
TORSDOF 4
ENDMDL
MODEL 2
REMARK VINA RESULT:      -6.1      1.369      1.387
REMARK  Name = 
REMARK  4 active torsions:
REMARK  status: ('A' for Active; 'I' for Inactive)
REMARK    1  A    between atoms: C_2  and  C_3
REMARK    2  A    between atoms: C_3  and  C_4
REMARK    3  A    between atoms: C_3  and  C_8
REMARK    4  A    between atoms: C_4  and  C_5
REMARK                            x       y       z     vdW  Elec       q    Type
REMARK                         _______ _______ _______ _____ _____    ______ ____
ROOT
ATOM      1  C   UNL     1       3.710   5.599  -9.792  0.00  0.00    +0.053 C 
ENDROOT
BRANCH   1   2
ATOM      2  C   UNL     1       5.174   5.917 -10.347  0.00  0.00    -0.020 A 
ATOM      3  C   UNL     1       5.426   7.131 -10.923  0.00  0.00    -0.003 A 
ATOM      4  C   UNL     1       6.687   7.187 -11.522  0.00  0.00    +0.011 A 
ATOM      5  C   UNL     1       7.731   6.425 -11.008  0.00  0.00    +0.058 A 
ATOM      6 CL   UNL     1       9.099   5.921 -11.996  0.00  0.00    -0.082 Cl
ATOM      7  C   UNL     1       7.475   5.868  -9.759  0.00  0.00    +0.011 A 
ATOM      8  C   UNL     1       6.157   5.583  -9.412  0.00  0.00    -0.003 A 
ENDBRANCH   1   2
BRANCH   1  10
ATOM      9  N   UNL     1       1.642   5.651 -11.099  0.00  0.00    -0.131 NA
ATOM     10  C   UNL     1       3.027   5.777 -11.269  0.00  0.00    +0.114 C 
ENDBRANCH   1  10
BRANCH   1  11
ATOM     11  C   UNL     1       3.359   7.126  -9.351  0.00  0.00    +0.120 C 
BRANCH  11  12
ATOM     12  C   UNL     1       2.841   7.187  -8.008  0.00  0.00    +0.365 C 
ATOM     13  O   UNL     1       2.066   8.331  -7.748  0.00  0.00    -0.246 OA
ATOM     14  O   UNL     1       3.352   6.724  -6.953  0.00  0.00    -0.246 OA
ENDBRANCH  11  12
ENDBRANCH   1  11
TORSDOF 4
ENDMDL
MODEL 3
REMARK VINA RESULT:      -6.1      5.509      7.798
REMARK  Name = 
REMARK  4 active torsions:
REMARK  status: ('A' for Active; 'I' for Inactive)
REMARK    1  A    between atoms: C_2  and  C_3
REMARK    2  A    between atoms: C_3  and  C_4
REMARK    3  A    between atoms: C_3  and  C_8
REMARK    4  A    between atoms: C_4  and  C_5
REMARK                            x       y       z     vdW  Elec       q    Type
REMARK                         _______ _______ _______ _____ _____    ______ ____
ROOT
ATOM      1  C   UNL     1       0.793   5.581  -6.820  0.00  0.00    +0.053 C 
ENDROOT
BRANCH   1   2
ATOM      2  C   UNL     1      -0.398   5.980  -5.833  0.00  0.00    -0.020 A 
ATOM      3  C   UNL     1      -0.416   7.226  -5.269  0.00  0.00    -0.003 A 
ATOM      4  C   UNL     1      -1.407   7.357  -4.293  0.00  0.00    +0.011 A 
ATOM      5  C   UNL     1      -2.581   6.618  -4.397  0.00  0.00    +0.058 A 
ATOM      6 CL   UNL     1      -3.559   6.209  -2.990  0.00  0.00    -0.082 Cl
ATOM      7  C   UNL     1      -2.764   6.001  -5.630  0.00  0.00    +0.011 A 
ATOM      8  C   UNL     1      -1.642   5.649  -6.375  0.00  0.00    -0.003 A 
ENDBRANCH   1   2
BRANCH   1  10
ATOM      9  N   UNL     1       2.188   3.586  -6.568  0.00  0.00    -0.131 NA
ATOM     10  C   UNL     1       1.335   4.407  -5.817  0.00  0.00    +0.114 C 
ENDBRANCH   1  10
BRANCH   1  11
ATOM     11  C   UNL     1       1.857   6.675  -6.255  0.00  0.00    +0.120 C 
BRANCH  11  12
ATOM     12  C   UNL     1       2.660   7.233  -7.313  0.00  0.00    +0.365 C 
ATOM     13  O   UNL     1       2.122   8.403  -7.879  0.00  0.00    -0.246 OA
ATOM     14  O   UNL     1       3.411   6.629  -8.125  0.00  0.00    -0.246 OA
ENDBRANCH  11  12
ENDBRANCH   1  11
TORSDOF 4
ENDMDL
MODEL 4
REMARK VINA RESULT:      -5.9      5.782      7.485
REMARK  Name = 
REMARK  4 active torsions:
REMARK  status: ('A' for Active; 'I' for Inactive)
REMARK    1  A    between atoms: C_2  and  C_3
REMARK    2  A    between atoms: C_3  and  C_4
REMARK    3  A    between atoms: C_3  and  C_8
REMARK    4  A    between atoms: C_4  and  C_5
REMARK                            x       y       z     vdW  Elec       q    Type
REMARK                         _______ _______ _______ _____ _____    ______ ____
ROOT
ATOM      1  C   UNL     1      -2.090   5.790  -4.825  0.00  0.00    +0.053 C 
ENDROOT
BRANCH   1   2
ATOM      2  C   UNL     1      -0.866   5.942  -5.839  0.00  0.00    -0.020 A 
ATOM      3  C   UNL     1       0.385   5.548  -5.450  0.00  0.00    -0.003 A 
ATOM      4  C   UNL     1       1.372   5.915  -6.368  0.00  0.00    +0.011 A 
ATOM      5  C   UNL     1       1.057   6.012  -7.719  0.00  0.00    +0.058 A 
ATOM      6 CL   UNL     1       1.967   7.040  -8.822  0.00  0.00    -0.082 Cl
ATOM      7  C   UNL     1      -0.176   5.467  -8.063  0.00  0.00    +0.011 A 
ATOM      8  C   UNL     1      -1.186   5.443  -7.105  0.00  0.00    -0.003 A 
ENDBRANCH   1   2
BRANCH   1  10
ATOM      9  N   UNL     1      -1.688   8.196  -4.631  0.00  0.00    -0.131 NA
ATOM     10  C   UNL     1      -2.639   7.299  -5.138  0.00  0.00    +0.114 C 
ENDBRANCH   1  10
BRANCH   1  11
ATOM     11  C   UNL     1      -1.275   6.268  -3.500  0.00  0.00    +0.120 C 
BRANCH  11  12
ATOM     12  C   UNL     1      -1.614   5.470  -2.349  0.00  0.00    +0.365 C 
ATOM     13  O   UNL     1      -0.505   4.868  -1.727  0.00  0.00    -0.246 OA
ATOM     14  O   UNL     1      -2.674   4.823  -2.133  0.00  0.00    -0.246 OA
ENDBRANCH  11  12
ENDBRANCH   1  11
TORSDOF 4
ENDMDL
MODEL 5
REMARK VINA RESULT:      -5.9      1.987      2.302
REMARK  Name = 
REMARK  4 active torsions:
REMARK  status: ('A' for Active; 'I' for Inactive)
REMARK    1  A    between atoms: C_2  and  C_3
REMARK    2  A    between atoms: C_3  and  C_4
REMARK    3  A    between atoms: C_3  and  C_8
REMARK    4  A    between atoms: C_4  and  C_5
REMARK                            x       y       z     vdW  Elec       q    Type
REMARK                         _______ _______ _______ _____ _____    ______ ____
ROOT
ATOM      1  C   UNL     1       3.722   6.155  -9.750  0.00  0.00    +0.053 C 
ENDROOT
BRANCH   1   2
ATOM      2  C   UNL     1       5.199   6.294 -10.340  0.00  0.00    -0.020 A 
ATOM      3  C   UNL     1       5.601   7.487 -10.877  0.00  0.00    -0.003 A 
ATOM      4  C   UNL     1       6.840   7.396 -11.515  0.00  0.00    +0.011 A 
ATOM      5  C   UNL     1       7.783   6.478 -11.065  0.00  0.00    +0.058 A 
ATOM      6 CL   UNL     1       9.041   5.835 -12.117  0.00  0.00    -0.082 Cl
ATOM      7  C   UNL     1       7.487   5.907  -9.831  0.00  0.00    +0.011 A 
ATOM      8  C   UNL     1       6.153   5.789  -9.453  0.00  0.00    -0.003 A 
ENDBRANCH   1   2
BRANCH   1  10
ATOM      9  N   UNL     1       3.049   4.268  -8.345  0.00  0.00    -0.131 NA
ATOM     10  C   UNL     1       3.930   4.572  -9.391  0.00  0.00    +0.114 C 
ENDBRANCH   1  10
BRANCH   1  11
ATOM     11  C   UNL     1       3.000   5.825 -11.172  0.00  0.00    +0.120 C 
BRANCH  11  12
ATOM     12  C   UNL     1       1.566   5.918 -11.075  0.00  0.00    +0.365 C 
ATOM     13  O   UNL     1       1.118   6.799 -10.075  0.00  0.00    -0.246 OA
ATOM     14  O   UNL     1       0.708   5.030 -11.327  0.00  0.00    -0.246 OA
ENDBRANCH  11  12
ENDBRANCH   1  11
TORSDOF 4
ENDMDL
MODEL 6
REMARK VINA RESULT:      -5.7      1.587      1.983
REMARK  Name = 
REMARK  4 active torsions:
REMARK  status: ('A' for Active; 'I' for Inactive)
REMARK    1  A    between atoms: C_2  and  C_3
REMARK    2  A    between atoms: C_3  and  C_4
REMARK    3  A    between atoms: C_3  and  C_8
REMARK    4  A    between atoms: C_4  and  C_5
REMARK                            x       y       z     vdW  Elec       q    Type
REMARK                         _______ _______ _______ _____ _____    ______ ____
ROOT
ATOM      1  C   UNL     1       3.761   5.351  -9.190  0.00  0.00    +0.053 C 
ENDROOT
BRANCH   1   2
ATOM      2  C   UNL     1       5.134   5.734  -9.909  0.00  0.00    -0.020 A 
ATOM      3  C   UNL     1       5.244   6.934 -10.556  0.00  0.00    -0.003 A 
ATOM      4  C   UNL     1       6.429   7.042 -11.288  0.00  0.00    +0.011 A 
ATOM      5  C   UNL     1       7.570   6.371 -10.858  0.00  0.00    +0.058 A 
ATOM      6 CL   UNL     1       8.859   5.908 -11.965  0.00  0.00    -0.082 Cl
ATOM      7  C   UNL     1       7.482   5.856  -9.568  0.00  0.00    +0.011 A 
ATOM      8  C   UNL     1       6.230   5.505  -9.072  0.00  0.00    -0.003 A 
ENDBRANCH   1   2
BRANCH   1  10
ATOM      9  N   UNL     1       1.843   6.867  -9.297  0.00  0.00    -0.131 NA
ATOM     10  C   UNL     1       3.240   6.902  -9.187  0.00  0.00    +0.114 C 
ENDBRANCH   1  10
BRANCH   1  11
ATOM     11  C   UNL     1       4.331   5.449  -7.669  0.00  0.00    +0.120 C 
BRANCH  11  12
ATOM     12  C   UNL     1       3.337   5.061  -6.701  0.00  0.00    +0.365 C 
ATOM     13  O   UNL     1       2.475   4.043  -7.147  0.00  0.00    -0.246 OA
ATOM     14  O   UNL     1       2.794   5.770  -5.813  0.00  0.00    -0.246 OA
ENDBRANCH  11  12
ENDBRANCH   1  11
TORSDOF 4
ENDMDL
MODEL 7
REMARK VINA RESULT:      -5.6      2.330      3.101
REMARK  Name = 
REMARK  4 active torsions:
REMARK  status: ('A' for Active; 'I' for Inactive)
REMARK    1  A    between atoms: C_2  and  C_3
REMARK    2  A    between atoms: C_3  and  C_4
REMARK    3  A    between atoms: C_3  and  C_8
REMARK    4  A    between atoms: C_4  and  C_5
REMARK                            x       y       z     vdW  Elec       q    Type
REMARK                         _______ _______ _______ _____ _____    ______ ____
ROOT
ATOM      1  C   UNL     1       2.692   5.760  -7.786  0.00  0.00    +0.053 C 
ENDROOT
BRANCH   1   2
ATOM      2  C   UNL     1       4.034   5.899  -8.641  0.00  0.00    -0.020 A 
ATOM      3  C   UNL     1       5.155   5.220  -8.251  0.00  0.00    -0.003 A 
ATOM      4  C   UNL     1       6.286   5.587  -8.984  0.00  0.00    +0.011 A 
ATOM      5  C   UNL     1       6.148   6.012 -10.302  0.00  0.00    +0.058 A 
ATOM      6 CL   UNL     1       7.326   7.067 -11.076  0.00  0.00    -0.082 Cl
ATOM      7  C   UNL     1       4.893   5.774 -10.853  0.00  0.00    +0.011 A 
ATOM      8  C   UNL     1       3.788   5.732 -10.007  0.00  0.00    -0.003 A 
ENDBRANCH   1   2
BRANCH   1  10
ATOM      9  N   UNL     1       2.125   8.139  -7.879  0.00  0.00    -0.131 NA
ATOM     10  C   UNL     1       2.877   7.240  -7.111  0.00  0.00    +0.114 C 
ENDBRANCH   1  10
BRANCH   1  11
ATOM     11  C   UNL     1       3.376   5.002  -6.518  0.00  0.00    +0.120 C 
BRANCH  11  12
ATOM     12  C   UNL     1       2.393   4.601  -5.544  0.00  0.00    +0.365 C 
ATOM     13  O   UNL     1       1.256   3.988  -6.102  0.00  0.00    -0.246 OA
ATOM     14  O   UNL     1       2.132   5.135  -4.433  0.00  0.00    -0.246 OA
ENDBRANCH  11  12
ENDBRANCH   1  11
TORSDOF 4
ENDMDL
MODEL 8
REMARK VINA RESULT:      -5.6      5.988      7.812
REMARK  Name = 
REMARK  4 active torsions:
REMARK  status: ('A' for Active; 'I' for Inactive)
REMARK    1  A    between atoms: C_2  and  C_3
REMARK    2  A    between atoms: C_3  and  C_4
REMARK    3  A    between atoms: C_3  and  C_8
REMARK    4  A    between atoms: C_4  and  C_5
REMARK                            x       y       z     vdW  Elec       q    Type
REMARK                         _______ _______ _______ _____ _____    ______ ____
ROOT
ATOM      1  C   UNL     1       1.121   5.459  -7.349  0.00  0.00    +0.053 C 
ENDROOT
BRANCH   1   2
ATOM      2  C   UNL     1      -0.088   5.633  -6.320  0.00  0.00    -0.020 A 
ATOM      3  C   UNL     1      -0.170   6.769  -5.563  0.00  0.00    -0.003 A 
ATOM      4  C   UNL     1      -1.167   6.690  -4.587  0.00  0.00    +0.011 A 
ATOM      5  C   UNL     1      -2.302   5.919  -4.819  0.00  0.00    +0.058 A 
ATOM      6 CL   UNL     1      -3.258   5.240  -3.505  0.00  0.00    -0.082 Cl
ATOM      7  C   UNL     1      -2.453   5.502  -6.137  0.00  0.00    +0.011 A 
ATOM      8  C   UNL     1      -1.315   5.331  -6.919  0.00  0.00    -0.003 A 
ENDBRANCH   1   2
BRANCH   1  10
ATOM      9  N   UNL     1       2.931   7.105  -7.409  0.00  0.00    -0.131 NA
ATOM     10  C   UNL     1       1.541   7.037  -7.241  0.00  0.00    +0.114 C 
ENDBRANCH   1  10
BRANCH   1  11
ATOM     11  C   UNL     1       0.237   5.698  -8.694  0.00  0.00    +0.120 C 
BRANCH  11  12
ATOM     12  C   UNL     1       0.740   4.931  -9.805  0.00  0.00    +0.365 C 
ATOM     13  O   UNL     1       2.134   4.745  -9.784  0.00  0.00    -0.246 OA
ATOM     14  O   UNL     1       0.282   4.861 -10.977  0.00  0.00    -0.246 OA
ENDBRANCH  11  12
ENDBRANCH   1  11
TORSDOF 4
ENDMDL
MODEL 9
REMARK VINA RESULT:      -5.5      4.163      5.254
REMARK  Name = 
REMARK  4 active torsions:
REMARK  status: ('A' for Active; 'I' for Inactive)
REMARK    1  A    between atoms: C_2  and  C_3
REMARK    2  A    between atoms: C_3  and  C_4
REMARK    3  A    between atoms: C_3  and  C_8
REMARK    4  A    between atoms: C_4  and  C_5
REMARK                            x       y       z     vdW  Elec       q    Type
REMARK                         _______ _______ _______ _____ _____    ______ ____
ROOT
ATOM      1  C   UNL     1       5.374   6.617 -11.349  0.00  0.00    +0.053 C 
ENDROOT
BRANCH   1   2
ATOM      2  C   UNL     1       4.731   6.582  -9.887  0.00  0.00    -0.020 A 
ATOM      3  C   UNL     1       3.374   6.675  -9.746  0.00  0.00    -0.003 A 
ATOM      4  C   UNL     1       2.983   6.818  -8.412  0.00  0.00    +0.011 A 
ATOM      5  C   UNL     1       3.756   6.254  -7.402  0.00  0.00    +0.058 A 
ATOM      6 CL   UNL     1       3.747   6.880  -5.755  0.00  0.00    -0.082 Cl
ATOM      7  C   UNL     1       4.724   5.361  -7.849  0.00  0.00    +0.011 A 
ATOM      8  C   UNL     1       5.251   5.531  -9.126  0.00  0.00    -0.003 A 
ENDBRANCH   1   2
BRANCH   1  10
ATOM      9  N   UNL     1       4.194   5.592 -13.232  0.00  0.00    -0.131 NA
ATOM     10  C   UNL     1       4.447   5.374 -11.871  0.00  0.00    +0.114 C 
ENDBRANCH   1  10
BRANCH   1  11
ATOM     11  C   UNL     1       6.633   5.645 -11.005  0.00  0.00    +0.120 C 
BRANCH  11  12
ATOM     12  C   UNL     1       7.640   5.692 -12.035  0.00  0.00    +0.365 C 
ATOM     13  O   UNL     1       7.707   4.527 -12.820  0.00  0.00    -0.246 OA
ATOM     14  O   UNL     1       8.740   6.306 -12.022  0.00  0.00    -0.246 OA
ENDBRANCH  11  12
ENDBRANCH   1  11
TORSDOF 4
ENDMDL
