MODEL 1
REMARK VINA RESULT:      -8.5      0.000      0.000
REMARK  Name = 
REMARK  0 active torsions:
REMARK  status: ('A' for Active; 'I' for Inactive)
REMARK                            x       y       z     vdW  Elec       q    Type
REMARK                         _______ _______ _______ _____ _____    ______ ____
ROOT
ATOM      1  C   UNL     1       3.115   5.476 -10.193  0.00  0.00    +0.090 C 
ATOM      2  N   UNL     1       2.213   5.824  -9.748  0.00  0.00    -0.270 NA
ATOM      3  C   UNL     1       1.549   4.676  -8.893  0.00  0.00    +0.090 C 
ATOM      4  C   UNL     1       2.326   5.134  -7.522  0.00  0.00    +0.148 C 
ATOM      5  C   UNL     1       1.807   6.373  -7.051  0.00  0.00    +0.094 C 
ATOM      6  C   UNL     1       2.545   6.656  -5.614  0.00  0.00    +0.228 C 
ATOM      7  O   UNL     1       1.372   7.524  -5.076  0.00  0.00    -0.468 OA
ATOM      8  C   UNL     1       0.259   6.739  -5.333  0.00  0.00    +0.173 A 
ATOM      9  C   UNL     1      -1.091   6.980  -5.107  0.00  0.00    +0.229 A 
ATOM     10  C   UNL     1      -1.981   6.137  -5.772  0.00  0.00    +0.045 A 
ATOM     11  C   UNL     1      -1.584   5.362  -6.860  0.00  0.00    -0.001 A 
ATOM     12  C   UNL     1      -0.247   5.283  -7.244  0.00  0.00    -0.021 A 
ATOM     13  O   UNL     1      -1.510   8.228  -4.624  0.00  0.00    -0.283 OA
ATOM     14  C   UNL     1       1.986   5.306  -4.886  0.00  0.00    +0.191 C 
ATOM     15  O   UNL     1       2.062   5.491  -3.670  0.00  0.00    -0.292 OA
ATOM     16  C   UNL     1       2.712   4.075  -5.362  0.00  0.00    +0.071 C 
ATOM     17  C   UNL     1       0.531   6.138  -6.495  0.00  0.00    +0.017 A 
ATOM     18  C   UNL     1       2.055   7.506  -7.940  0.00  0.00    +0.028 C 
ATOM     19  C   UNL     1       2.145   3.878  -6.747  0.00  0.00    +0.040 C 
ATOM     20  O   UNL     1       3.675   5.210  -7.887  0.00  0.00    -0.224 OA
ATOM     21  C   UNL     1       0.131   5.480  -8.690  0.00  0.00    +0.045 C 
ATOM     22  C   UNL     1       1.732   7.056  -9.322  0.00  0.00    +0.073 C 
ENDROOT
TORSDOF 0
ENDMDL
MODEL 2
REMARK VINA RESULT:      -7.7      2.483      5.445
REMARK  Name = 
REMARK  0 active torsions:
REMARK  status: ('A' for Active; 'I' for Inactive)
REMARK                            x       y       z     vdW  Elec       q    Type
REMARK                         _______ _______ _______ _____ _____    ______ ____
ROOT
ATOM      1  C   UNL     1       1.674   5.601  -4.924  0.00  0.00    +0.090 C 
ATOM      2  N   UNL     1       2.534   5.900  -5.474  0.00  0.00    -0.270 NA
ATOM      3  C   UNL     1       3.048   4.709  -6.373  0.00  0.00    +0.090 C 
ATOM      4  C   UNL     1       2.143   5.178  -7.658  0.00  0.00    +0.148 C 
ATOM      5  C   UNL     1       2.659   6.384  -8.212  0.00  0.00    +0.094 C 
ATOM      6  C   UNL     1       1.777   6.675  -9.563  0.00  0.00    +0.228 C 
ATOM      7  O   UNL     1       2.918   7.480 -10.248  0.00  0.00    -0.468 OA
ATOM      8  C   UNL     1       4.019   6.650 -10.099  0.00  0.00    +0.173 A 
ATOM      9  C   UNL     1       5.344   6.825 -10.479  0.00  0.00    +0.229 A 
ATOM     10  C   UNL     1       6.265   5.955  -9.899  0.00  0.00    +0.045 A 
ATOM     11  C   UNL     1       5.960   5.217  -8.756  0.00  0.00    -0.001 A 
ATOM     12  C   UNL     1       4.672   5.206  -8.224  0.00  0.00    -0.021 A 
ATOM     13  O   UNL     1       5.759   8.045 -11.033  0.00  0.00    -0.283 OA
ATOM     14  C   UNL     1       2.192   5.289 -10.318  0.00  0.00    +0.191 C 
ATOM     15  O   UNL     1       1.988   5.457 -11.523  0.00  0.00    -0.292 OA
ATOM     16  C   UNL     1       1.472   4.100  -9.738  0.00  0.00    +0.071 C 
ATOM     17  C   UNL     1       3.853   6.082  -8.900  0.00  0.00    +0.017 A 
ATOM     18  C   UNL     1       2.561   7.542  -7.326  0.00  0.00    +0.028 C 
ATOM     19  C   UNL     1       2.181   3.902  -8.421  0.00  0.00    +0.040 C 
ATOM     20  O   UNL     1       0.848   5.321  -7.147  0.00  0.00    -0.224 OA
ATOM     21  C   UNL     1       4.468   5.444  -6.750  0.00  0.00    +0.045 C 
ATOM     22  C   UNL     1       3.018   7.101  -5.978  0.00  0.00    +0.073 C 
ENDROOT
TORSDOF 0
ENDMDL
MODEL 3
REMARK VINA RESULT:      -7.5      3.521      5.567
REMARK  Name = 
REMARK  0 active torsions:
REMARK  status: ('A' for Active; 'I' for Inactive)
REMARK                            x       y       z     vdW  Elec       q    Type
REMARK                         _______ _______ _______ _____ _____    ______ ____
ROOT
ATOM      1  C   UNL     1       4.139   5.401  -6.267  0.00  0.00    +0.090 C 
ATOM      2  N   UNL     1       4.435   5.861  -5.355  0.00  0.00    -0.270 NA
ATOM      3  C   UNL     1       3.416   6.999  -4.961  0.00  0.00    +0.090 C 
ATOM      4  C   UNL     1       2.490   5.979  -4.071  0.00  0.00    +0.148 C 
ATOM      5  C   UNL     1       3.180   5.594  -2.886  0.00  0.00    +0.094 C 
ATOM      6  C   UNL     1       2.116   4.704  -2.012  0.00  0.00    +0.228 C 
ATOM      7  O   UNL     1       2.792   5.055  -0.656  0.00  0.00    -0.468 OA
ATOM      8  C   UNL     1       2.916   6.434  -0.716  0.00  0.00    +0.173 A 
ATOM      9  C   UNL     1       3.471   7.334   0.186  0.00  0.00    +0.229 A 
ATOM     10  C   UNL     1       3.735   8.610  -0.310  0.00  0.00    +0.045 A 
ATOM     11  C   UNL     1       3.795   8.869  -1.679  0.00  0.00    -0.001 A 
ATOM     12  C   UNL     1       3.452   7.896  -2.615  0.00  0.00    -0.021 A 
ATOM     13  O   UNL     1       4.117   6.864   1.338  0.00  0.00    -0.283 OA
ATOM     14  C   UNL     1       1.009   5.894  -1.860  0.00  0.00    +0.191 C 
ATOM     15  O   UNL     1       0.297   5.606  -0.895  0.00  0.00    -0.292 OA
ATOM     16  C   UNL     1       0.244   6.110  -3.139  0.00  0.00    +0.071 C 
ATOM     17  C   UNL     1       3.186   6.692  -2.000  0.00  0.00    +0.017 A 
ATOM     18  C   UNL     1       4.381   4.797  -3.121  0.00  0.00    +0.028 C 
ATOM     19  C   UNL     1       1.258   6.808  -4.010  0.00  0.00    +0.040 C 
ATOM     20  O   UNL     1       2.228   4.901  -4.924  0.00  0.00    -0.224 OA
ATOM     21  C   UNL     1       4.371   7.614  -3.776  0.00  0.00    +0.045 C 
ATOM     22  C   UNL     1       5.134   5.456  -4.224  0.00  0.00    +0.073 C 
ENDROOT
TORSDOF 0
ENDMDL
MODEL 4
REMARK VINA RESULT:      -7.4      2.249      4.395
REMARK  Name = 
REMARK  0 active torsions:
REMARK  status: ('A' for Active; 'I' for Inactive)
REMARK                            x       y       z     vdW  Elec       q    Type
REMARK                         _______ _______ _______ _____ _____    ______ ____
ROOT
ATOM      1  C   UNL     1      -2.008   5.647  -5.413  0.00  0.00    +0.090 C 
ATOM      2  N   UNL     1      -1.167   6.014  -4.875  0.00  0.00    -0.270 NA
ATOM      3  C   UNL     1      -0.109   4.863  -4.663  0.00  0.00    +0.090 C 
ATOM      4  C   UNL     1       0.694   5.230  -6.045  0.00  0.00    +0.148 C 
ATOM      5  C   UNL     1       1.379   6.471  -5.903  0.00  0.00    +0.094 C 
ATOM      6  C   UNL     1       2.256   6.664  -7.275  0.00  0.00    +0.228 C 
ATOM      7  O   UNL     1       3.321   7.558  -6.580  0.00  0.00    -0.468 OA
ATOM      8  C   UNL     1       3.645   6.833  -5.444  0.00  0.00    +0.173 A 
ATOM      9  C   UNL     1       4.521   7.122  -4.403  0.00  0.00    +0.229 A 
ATOM     10  C   UNL     1       4.379   6.346  -3.254  0.00  0.00    +0.045 A 
ATOM     11  C   UNL     1       3.228   5.598  -3.009  0.00  0.00    -0.001 A 
ATOM     12  C   UNL     1       2.225   5.479  -3.968  0.00  0.00    -0.021 A 
ATOM     13  O   UNL     1       5.165   8.366  -4.354  0.00  0.00    -0.283 OA
ATOM     14  C   UNL     1       3.147   5.310  -7.078  0.00  0.00    +0.191 C 
ATOM     15  O   UNL     1       4.164   5.442  -7.762  0.00  0.00    -0.292 OA
ATOM     16  C   UNL     1       2.355   4.069  -7.397  0.00  0.00    +0.071 C 
ATOM     17  C   UNL     1       2.495   6.268  -5.064  0.00  0.00    +0.017 A 
ATOM     18  C   UNL     1       0.500   7.627  -5.738  0.00  0.00    +0.028 C 
ATOM     19  C   UNL     1       1.438   3.954  -6.205  0.00  0.00    +0.040 C 
ATOM     20  O   UNL     1      -0.296   5.264  -7.033  0.00  0.00    -0.224 OA
ATOM     21  C   UNL     1       0.787   5.717  -3.585  0.00  0.00    +0.045 C 
ATOM     22  C   UNL     1      -0.540   7.247  -4.743  0.00  0.00    +0.073 C 
ENDROOT
TORSDOF 0
ENDMDL
MODEL 5
REMARK VINA RESULT:      -7.4      2.075      3.758
REMARK  Name = 
REMARK  0 active torsions:
REMARK  status: ('A' for Active; 'I' for Inactive)
REMARK                            x       y       z     vdW  Elec       q    Type
REMARK                         _______ _______ _______ _____ _____    ______ ____
ROOT
ATOM      1  C   UNL     1       4.710   5.679  -5.019  0.00  0.00    +0.090 C 
ATOM      2  N   UNL     1       3.676   5.690  -4.770  0.00  0.00    -0.270 NA
ATOM      3  C   UNL     1       2.999   7.012  -5.303  0.00  0.00    +0.090 C 
ATOM      4  C   UNL     1       2.582   6.322  -6.732  0.00  0.00    +0.148 C 
ATOM      5  C   UNL     1       1.548   5.363  -6.533  0.00  0.00    +0.094 C 
ATOM      6  C   UNL     1       1.113   4.851  -8.029  0.00  0.00    +0.228 C 
ATOM      7  O   UNL     1      -0.329   4.477  -7.584  0.00  0.00    -0.468 OA
ATOM      8  C   UNL     1      -0.750   5.609  -6.904  0.00  0.00    +0.173 A 
ATOM      9  C   UNL     1      -1.944   5.879  -6.246  0.00  0.00    +0.229 A 
ATOM     10  C   UNL     1      -1.933   6.979  -5.389  0.00  0.00    +0.045 A 
ATOM     11  C   UNL     1      -0.742   7.542  -4.932  0.00  0.00    -0.001 A 
ATOM     12  C   UNL     1       0.493   7.123  -5.424  0.00  0.00    -0.021 A 
ATOM     13  O   UNL     1      -2.914   4.876  -6.113  0.00  0.00    -0.283 OA
ATOM     14  C   UNL     1       0.652   6.321  -8.567  0.00  0.00    +0.191 C 
ATOM     15  O   UNL     1      -0.100   6.138  -9.526  0.00  0.00    -0.292 OA
ATOM     16  C   UNL     1       1.836   7.197  -8.880  0.00  0.00    +0.071 C 
ATOM     17  C   UNL     1       0.344   6.054  -6.279  0.00  0.00    +0.017 A 
ATOM     18  C   UNL     1       1.947   4.205  -5.735  0.00  0.00    +0.028 C 
ATOM     19  C   UNL     1       2.339   7.567  -7.506  0.00  0.00    +0.040 C 
ATOM     20  O   UNL     1       3.768   5.755  -7.212  0.00  0.00    -0.224 OA
ATOM     21  C   UNL     1       1.605   6.782  -4.466  0.00  0.00    +0.045 C 
ATOM     22  C   UNL     1       2.700   4.724  -4.559  0.00  0.00    +0.073 C 
ENDROOT
TORSDOF 0
ENDMDL
MODEL 6
REMARK VINA RESULT:      -7.3      1.690      3.918
REMARK  Name = 
REMARK  0 active torsions:
REMARK  status: ('A' for Active; 'I' for Inactive)
REMARK                            x       y       z     vdW  Elec       q    Type
REMARK                         _______ _______ _______ _____ _____    ______ ____
ROOT
ATOM      1  C   UNL     1       1.400   4.887  -9.313  0.00  0.00    +0.090 C 
ATOM      2  N   UNL     1       2.141   4.969  -8.555  0.00  0.00    -0.270 NA
ATOM      3  C   UNL     1       2.134   6.422  -7.939  0.00  0.00    +0.090 C 
ATOM      4  C   UNL     1       1.068   6.010  -6.763  0.00  0.00    +0.148 C 
ATOM      5  C   UNL     1       1.688   5.148  -5.815  0.00  0.00    +0.094 C 
ATOM      6  C   UNL     1       0.587   4.923  -4.620  0.00  0.00    +0.228 C 
ATOM      7  O   UNL     1       1.674   4.640  -3.544  0.00  0.00    -0.468 OA
ATOM      8  C   UNL     1       2.561   5.692  -3.712  0.00  0.00    +0.173 A 
ATOM      9  C   UNL     1       3.755   5.982  -3.062  0.00  0.00    +0.229 A 
ATOM     10  C   UNL     1       4.571   6.928  -3.681  0.00  0.00    +0.045 A 
ATOM     11  C   UNL     1       4.401   7.283  -5.018  0.00  0.00    -0.001 A 
ATOM     12  C   UNL     1       3.317   6.817  -5.759  0.00  0.00    -0.021 A 
ATOM     13  O   UNL     1       4.283   5.079  -2.128  0.00  0.00    -0.283 OA
ATOM     14  C   UNL     1       0.479   6.499  -4.212  0.00  0.00    +0.191 C 
ATOM     15  O   UNL     1       0.026   6.548  -3.067  0.00  0.00    -0.292 OA
ATOM     16  C   UNL     1      -0.322   7.282  -5.219  0.00  0.00    +0.071 C 
ATOM     17  C   UNL     1       2.574   5.915  -5.029  0.00  0.00    +0.017 A 
ATOM     18  C   UNL     1       2.076   3.845  -6.351  0.00  0.00    +0.028 C 
ATOM     19  C   UNL     1       0.628   7.380  -6.386  0.00  0.00    +0.040 C 
ATOM     20  O   UNL     1       0.007   5.402  -7.443  0.00  0.00    -0.224 OA
ATOM     21  C   UNL     1       3.543   6.215  -7.122  0.00  0.00    +0.045 C 
ATOM     22  C   UNL     1       2.741   4.092  -7.660  0.00  0.00    +0.073 C 
ENDROOT
TORSDOF 0
ENDMDL
MODEL 7
REMARK VINA RESULT:      -7.2      3.616      5.884
REMARK  Name = 
REMARK  0 active torsions:
REMARK  status: ('A' for Active; 'I' for Inactive)
REMARK                            x       y       z     vdW  Elec       q    Type
REMARK                         _______ _______ _______ _____ _____    ______ ____
ROOT
ATOM      1  C   UNL     1       4.125   6.721   0.404  0.00  0.00    +0.090 C 
ATOM      2  N   UNL     1       3.400   6.304  -0.253  0.00  0.00    -0.270 NA
ATOM      3  C   UNL     1       2.957   7.371  -1.327  0.00  0.00    +0.090 C 
ATOM      4  C   UNL     1       4.106   6.895  -2.397  0.00  0.00    +0.148 C 
ATOM      5  C   UNL     1       3.792   5.608  -2.919  0.00  0.00    +0.094 C 
ATOM      6  C   UNL     1       4.914   5.301  -4.074  0.00  0.00    +0.228 C 
ATOM      7  O   UNL     1       3.977   4.345  -4.864  0.00  0.00    -0.468 OA
ATOM      8  C   UNL     1       2.805   5.078  -4.975  0.00  0.00    +0.173 A 
ATOM      9  C   UNL     1       1.584   4.751  -5.554  0.00  0.00    +0.229 A 
ATOM     10  C   UNL     1       0.510   5.572  -5.214  0.00  0.00    +0.045 A 
ATOM     11  C   UNL     1       0.553   6.419  -4.107  0.00  0.00    -0.001 A 
ATOM     12  C   UNL     1       1.724   6.589  -3.371  0.00  0.00    -0.021 A 
ATOM     13  O   UNL     1       1.370   3.461  -6.058  0.00  0.00    -0.283 OA
ATOM     14  C   UNL     1       4.529   6.583  -5.008  0.00  0.00    +0.191 C 
ATOM     15  O   UNL     1       4.951   6.346  -6.141  0.00  0.00    -0.292 OA
ATOM     16  C   UNL     1       5.040   7.873  -4.423  0.00  0.00    +0.071 C 
ATOM     17  C   UNL     1       2.715   5.746  -3.821  0.00  0.00    +0.017 A 
ATOM     18  C   UNL     1       3.826   4.533  -1.930  0.00  0.00    +0.028 C 
ATOM     19  C   UNL     1       4.100   8.101  -3.266  0.00  0.00    +0.040 C 
ATOM     20  O   UNL     1       5.300   6.912  -1.667  0.00  0.00    -0.224 OA
ATOM     21  C   UNL     1       1.688   6.481  -1.868  0.00  0.00    +0.045 C 
ATOM     22  C   UNL     1       3.109   5.028  -0.722  0.00  0.00    +0.073 C 
ENDROOT
TORSDOF 0
ENDMDL
MODEL 8
REMARK VINA RESULT:      -7.0      2.324      4.933
REMARK  Name = 
REMARK  0 active torsions:
REMARK  status: ('A' for Active; 'I' for Inactive)
REMARK                            x       y       z     vdW  Elec       q    Type
REMARK                         _______ _______ _______ _____ _____    ______ ____
ROOT
ATOM      1  C   UNL     1       3.478   5.711  -2.918  0.00  0.00    +0.090 C 
ATOM      2  N   UNL     1       3.992   5.847  -3.840  0.00  0.00    -0.270 NA
ATOM      3  C   UNL     1       3.663   4.662  -4.828  0.00  0.00    +0.090 C 
ATOM      4  C   UNL     1       2.391   5.457  -5.493  0.00  0.00    +0.148 C 
ATOM      5  C   UNL     1       2.850   6.553  -6.278  0.00  0.00    +0.094 C 
ATOM      6  C   UNL     1       1.520   7.178  -7.005  0.00  0.00    +0.228 C 
ATOM      7  O   UNL     1       2.328   7.749  -8.204  0.00  0.00    -0.468 OA
ATOM      8  C   UNL     1       3.100   6.669  -8.603  0.00  0.00    +0.173 A 
ATOM      9  C   UNL     1       4.052   6.558  -9.610  0.00  0.00    +0.229 A 
ATOM     10  C   UNL     1       4.882   5.440  -9.544  0.00  0.00    +0.045 A 
ATOM     11  C   UNL     1       5.011   4.688  -8.377  0.00  0.00    -0.001 A 
ATOM     12  C   UNL     1       4.209   4.934  -7.265  0.00  0.00    -0.021 A 
ATOM     13  O   UNL     1       4.431   7.691 -10.344  0.00  0.00    -0.283 OA
ATOM     14  C   UNL     1       1.131   5.814  -7.812  0.00  0.00    +0.191 C 
ATOM     15  O   UNL     1       0.403   6.142  -8.751  0.00  0.00    -0.292 OA
ATOM     16  C   UNL     1       0.521   4.781  -6.900  0.00  0.00    +0.071 C 
ATOM     17  C   UNL     1       3.417   6.043  -7.465  0.00  0.00    +0.017 A 
ATOM     18  C   UNL     1       3.508   7.608  -5.510  0.00  0.00    +0.028 C 
ATOM     19  C   UNL     1       1.715   4.291  -6.120  0.00  0.00    +0.040 C 
ATOM     20  O   UNL     1       1.612   5.856  -4.401  0.00  0.00    -0.224 OA
ATOM     21  C   UNL     1       4.837   5.069  -5.902  0.00  0.00    +0.045 C 
ATOM     22  C   UNL     1       4.447   6.941  -4.566  0.00  0.00    +0.073 C 
ENDROOT
TORSDOF 0
ENDMDL
MODEL 9
REMARK VINA RESULT:      -6.8      2.856      4.322
REMARK  Name = 
REMARK  0 active torsions:
REMARK  status: ('A' for Active; 'I' for Inactive)
REMARK                            x       y       z     vdW  Elec       q    Type
REMARK                         _______ _______ _______ _____ _____    ______ ____
ROOT
ATOM      1  C   UNL     1       6.732   5.938 -10.031  0.00  0.00    +0.090 C 
ATOM      2  N   UNL     1       5.868   6.197 -10.595  0.00  0.00    -0.270 NA
ATOM      3  C   UNL     1       4.904   4.953 -10.720  0.00  0.00    +0.090 C 
ATOM      4  C   UNL     1       4.067   5.360  -9.369  0.00  0.00    +0.148 C 
ATOM      5  C   UNL     1       3.288   6.529  -9.604  0.00  0.00    +0.094 C 
ATOM      6  C   UNL     1       2.390   6.755  -8.251  0.00  0.00    +0.228 C 
ATOM      7  O   UNL     1       1.262   7.509  -9.012  0.00  0.00    -0.468 OA
ATOM      8  C   UNL     1       1.002   6.677 -10.090  0.00  0.00    +0.173 A 
ATOM      9  C   UNL     1       0.113   6.817 -11.149  0.00  0.00    +0.229 A 
ATOM     10  C   UNL     1       0.322   5.971 -12.237  0.00  0.00    +0.045 A 
ATOM     11  C   UNL     1       1.530   5.299 -12.425  0.00  0.00    -0.001 A 
ATOM     12  C   UNL     1       2.533   5.331 -11.459  0.00  0.00    -0.021 A 
ATOM     13  O   UNL     1      -0.626   8.000 -11.292  0.00  0.00    -0.283 OA
ATOM     14  C   UNL     1       1.608   5.325  -8.346  0.00  0.00    +0.191 C 
ATOM     15  O   UNL     1       0.580   5.429  -7.674  0.00  0.00    -0.292 OA
ATOM     16  C   UNL     1       2.493   4.178  -7.934  0.00  0.00    +0.071 C 
ATOM     17  C   UNL     1       2.196   6.177 -10.426  0.00  0.00    +0.017 A 
ATOM     18  C   UNL     1       4.074   7.735  -9.856  0.00  0.00    +0.028 C 
ATOM     19  C   UNL     1       3.423   4.045  -9.114  0.00  0.00    +0.040 C 
ATOM     20  O   UNL     1       5.045   5.545  -8.386  0.00  0.00    -0.224 OA
ATOM     21  C   UNL     1       3.950   5.652 -11.859  0.00  0.00    +0.045 C 
ATOM     22  C   UNL     1       5.147   7.364 -10.820  0.00  0.00    +0.073 C 
ENDROOT
TORSDOF 0
ENDMDL
