MODEL 1
REMARK VINA RESULT:     -10.3      0.000      0.000
REMARK  Name = 
REMARK  6 active torsions:
REMARK  status: ('A' for Active; 'I' for Inactive)
REMARK    1  A    between atoms: C_9  and  C_10
REMARK    2  A    between atoms: C_20  and  C_21
REMARK    3  A    between atoms: C_21  and  C_23
REMARK    4  A    between atoms: C_23  and  C_24
REMARK    5  A    between atoms: C_24  and  C_25
REMARK    6  A    between atoms: C_25  and  C_26
REMARK                            x       y       z     vdW  Elec       q    Type
REMARK                         _______ _______ _______ _____ _____    ______ ____
ROOT
ATOM      1  C   UNL     1       0.225   6.252  -5.982  0.00  0.00    -0.009 C 
ATOM      2  C   UNL     1       0.585   6.185  -7.243  0.00  0.00    -0.045 C 
ATOM      3  C   UNL     1       1.822   5.132  -7.381  0.00  0.00    +0.018 C 
ATOM      4  C   UNL     1       2.838   6.107  -6.520  0.00  0.00    +0.004 C 
ATOM      5  C   UNL     1       4.096   5.989  -7.256  0.00  0.00    +0.000 C 
ATOM      6  C   UNL     1       3.750   5.044  -8.544  0.00  0.00    +0.000 C 
ATOM      7  C   UNL     1       2.349   5.828  -8.789  0.00  0.00    +0.003 C 
ATOM      8  C   UNL     1       2.498   7.229  -8.613  0.00  0.00    +0.000 C 
ATOM      9  C   UNL     1       1.518   5.159  -9.748  0.00  0.00    +0.001 C 
ATOM     10  C   UNL     1       0.084   5.505  -9.598  0.00  0.00    +0.004 C 
ATOM     11  C   UNL     1      -0.425   5.696  -8.216  0.00  0.00    +0.022 C 
ENDROOT
BRANCH   1  15
ATOM     12  C   UNL     1       0.838   6.336  -3.684  0.00  0.00    -0.005 C 
ATOM     13  C   UNL     1      -0.033   5.869  -3.334  0.00  0.00    -0.026 C 
ATOM     14  C   UNL     1      -1.237   5.823  -4.198  0.00  0.00    -0.024 C 
ATOM     15  C   UNL     1      -1.150   6.145  -5.487  0.00  0.00    -0.005 C 
ATOM     16  C   UNL     1      -2.327   5.092  -3.556  0.00  0.00    +0.059 C 
ATOM     17  C   UNL     1      -3.045   6.153  -2.472  0.00  0.00    +0.157 C 
ATOM     18  O   UNL     1      -2.816   5.176  -1.297  0.00  0.00    -0.223 OA
ATOM     19  C   UNL     1      -1.639   6.993  -2.104  0.00  0.00    +0.038 C 
ATOM     20  C   UNL     1      -0.583   5.942  -1.931  0.00  0.00    +0.029 C 
ENDBRANCH   1  15
BRANCH   6  21
ATOM     21  C   UNL     1       4.676   6.064  -9.574  0.00  0.00    +0.000 C 
ATOM     22  C   UNL     1       4.545   5.057 -10.854  0.00  0.00    +0.000 C 
BRANCH  21  23
ATOM     23  C   UNL     1       6.068   5.380  -9.055  0.00  0.00    +0.000 C 
BRANCH  23  24
ATOM     24  C   UNL     1       7.197   6.093  -9.664  0.00  0.00    +0.003 C 
BRANCH  24  25
ATOM     25  C   UNL     1       8.229   5.325 -10.386  0.00  0.00    +0.030 C 
BRANCH  25  26
ATOM     26  C   UNL     1       8.248   5.614 -11.855  0.00  0.00    +0.127 C 
ATOM     27  O   UNL     1       7.769   4.574 -12.625  0.00  0.00    -0.226 OA
ATOM     28  C   UNL     1       7.366   6.847 -12.024  0.00  0.00    +0.033 C 
ATOM     29  C   UNL     1       9.668   5.928 -12.264  0.00  0.00    +0.033 C 
ENDBRANCH  25  26
ENDBRANCH  24  25
ENDBRANCH  23  24
ENDBRANCH  21  23
ENDBRANCH   6  21
TORSDOF 6
ENDMDL
MODEL 2
REMARK VINA RESULT:     -10.1      1.203      9.706
REMARK  Name = 
REMARK  6 active torsions:
REMARK  status: ('A' for Active; 'I' for Inactive)
REMARK    1  A    between atoms: C_9  and  C_10
REMARK    2  A    between atoms: C_20  and  C_21
REMARK    3  A    between atoms: C_21  and  C_23
REMARK    4  A    between atoms: C_23  and  C_24
REMARK    5  A    between atoms: C_24  and  C_25
REMARK    6  A    between atoms: C_25  and  C_26
REMARK                            x       y       z     vdW  Elec       q    Type
REMARK                         _______ _______ _______ _____ _____    ______ ____
ROOT
ATOM      1  C   UNL     1       4.175   6.618  -9.770  0.00  0.00    -0.009 C 
ATOM      2  C   UNL     1       3.002   6.035  -9.662  0.00  0.00    -0.045 C 
ATOM      3  C   UNL     1       2.068   6.918  -8.659  0.00  0.00    +0.018 C 
ATOM      4  C   UNL     1       3.025   6.579  -7.358  0.00  0.00    +0.004 C 
ATOM      5  C   UNL     1       2.050   6.354  -6.292  0.00  0.00    +0.000 C 
ATOM      6  C   UNL     1       0.589   6.474  -7.017  0.00  0.00    +0.000 C 
ATOM      7  C   UNL     1       1.111   5.615  -8.292  0.00  0.00    +0.003 C 
ATOM      8  C   UNL     1       1.917   4.519  -7.888  0.00  0.00    +0.000 C 
ATOM      9  C   UNL     1       0.179   5.649  -9.383  0.00  0.00    +0.001 C 
ATOM     10  C   UNL     1       0.821   5.368 -10.689  0.00  0.00    +0.004 C 
ATOM     11  C   UNL     1       2.192   5.902 -10.899  0.00  0.00    +0.022 C 
ENDROOT
BRANCH   1  15
ATOM     12  C   UNL     1       6.116   5.356  -9.220  0.00  0.00    -0.005 C 
ATOM     13  C   UNL     1       6.751   5.860  -9.885  0.00  0.00    -0.026 C 
ATOM     14  C   UNL     1       6.169   6.640 -11.004  0.00  0.00    -0.024 C 
ATOM     15  C   UNL     1       4.865   6.905 -11.029  0.00  0.00    -0.005 C 
ATOM     16  C   UNL     1       7.208   7.306 -11.786  0.00  0.00    +0.059 C 
ATOM     17  C   UNL     1       7.850   6.148 -12.818  0.00  0.00    +0.157 C 
ATOM     18  O   UNL     1       9.276   6.392 -12.274  0.00  0.00    -0.223 OA
ATOM     19  C   UNL     1       7.628   4.852 -11.774  0.00  0.00    +0.038 C 
ATOM     20  C   UNL     1       8.063   5.349 -10.427  0.00  0.00    +0.029 C 
ENDBRANCH   1  15
BRANCH   6  21
ATOM     21  C   UNL     1       0.014   5.110  -6.142  0.00  0.00    +0.000 C 
ATOM     22  C   UNL     1      -1.549   5.405  -6.516  0.00  0.00    +0.000 C 
BRANCH  21  23
ATOM     23  C   UNL     1      -0.052   5.982  -4.760  0.00  0.00    +0.000 C 
BRANCH  23  24
ATOM     24  C   UNL     1      -1.459   6.161  -4.383  0.00  0.00    +0.003 C 
BRANCH  24  25
ATOM     25  C   UNL     1      -1.794   7.032  -3.241  0.00  0.00    +0.030 C 
BRANCH  25  26
ATOM     26  C   UNL     1      -2.626   6.342  -2.206  0.00  0.00    +0.127 C 
ATOM     27  O   UNL     1      -2.364   4.991  -2.102  0.00  0.00    -0.226 OA
ATOM     28  C   UNL     1      -2.291   7.049  -0.897  0.00  0.00    +0.033 C 
ATOM     29  C   UNL     1      -4.084   6.544  -2.549  0.00  0.00    +0.033 C 
ENDBRANCH  25  26
ENDBRANCH  24  25
ENDBRANCH  23  24
ENDBRANCH  21  23
ENDBRANCH   6  21
TORSDOF 6
ENDMDL
MODEL 3
REMARK VINA RESULT:      -9.8      1.483      2.844
REMARK  Name = 
REMARK  6 active torsions:
REMARK  status: ('A' for Active; 'I' for Inactive)
REMARK    1  A    between atoms: C_9  and  C_10
REMARK    2  A    between atoms: C_20  and  C_21
REMARK    3  A    between atoms: C_21  and  C_23
REMARK    4  A    between atoms: C_23  and  C_24
REMARK    5  A    between atoms: C_24  and  C_25
REMARK    6  A    between atoms: C_25  and  C_26
REMARK                            x       y       z     vdW  Elec       q    Type
REMARK                         _______ _______ _______ _____ _____    ______ ____
ROOT
ATOM      1  C   UNL     1       0.514   6.832  -5.847  0.00  0.00    -0.009 C 
ATOM      2  C   UNL     1       1.684   6.287  -6.091  0.00  0.00    -0.045 C 
ATOM      3  C   UNL     1       2.404   7.110  -7.300  0.00  0.00    +0.018 C 
ATOM      4  C   UNL     1       1.276   6.618  -8.399  0.00  0.00    +0.004 C 
ATOM      5  C   UNL     1       2.084   6.335  -9.584  0.00  0.00    +0.000 C 
ATOM      6  C   UNL     1       3.631   6.576  -9.114  0.00  0.00    +0.000 C 
ATOM      7  C   UNL     1       3.359   5.817  -7.704  0.00  0.00    +0.003 C 
ATOM      8  C   UNL     1       2.558   4.658  -7.881  0.00  0.00    +0.000 C 
ATOM      9  C   UNL     1       4.446   5.986  -6.782  0.00  0.00    +0.001 C 
ATOM     10  C   UNL     1       4.030   5.800  -5.372  0.00  0.00    +0.004 C 
ATOM     11  C   UNL     1       2.682   6.297  -4.992  0.00  0.00    +0.022 C 
ENDROOT
BRANCH   1  15
ATOM     12  C   UNL     1      -1.436   5.474  -5.986  0.00  0.00    -0.005 C 
ATOM     13  C   UNL     1      -1.982   6.015  -5.272  0.00  0.00    -0.026 C 
ATOM     14  C   UNL     1      -1.268   6.903  -4.323  0.00  0.00    -0.024 C 
ATOM     15  C   UNL     1       0.013   7.205  -4.522  0.00  0.00    -0.005 C 
ATOM     16  C   UNL     1      -2.201   7.603  -3.443  0.00  0.00    +0.059 C 
ATOM     17  C   UNL     1      -2.630   6.519  -2.236  0.00  0.00    +0.157 C 
ATOM     18  O   UNL     1      -4.131   6.677  -2.568  0.00  0.00    -0.223 OA
ATOM     19  C   UNL     1      -2.518   5.147  -3.196  0.00  0.00    +0.038 C 
ATOM     20  C   UNL     1      -3.173   5.516  -4.493  0.00  0.00    +0.029 C 
ENDBRANCH   1  15
BRANCH   6  21
ATOM     21  C   UNL     1       4.134   5.161  -9.952  0.00  0.00    +0.000 C 
ATOM     22  C   UNL     1       5.721   5.518  -9.804  0.00  0.00    +0.000 C 
BRANCH  21  23
ATOM     23  C   UNL     1       3.997   5.925 -11.391  0.00  0.00    +0.000 C 
BRANCH  23  24
ATOM     24  C   UNL     1       4.743   5.164 -12.400  0.00  0.00    +0.003 C 
BRANCH  24  25
ATOM     25  C   UNL     1       5.202   5.848 -13.624  0.00  0.00    +0.030 C 
BRANCH  25  26
ATOM     26  C   UNL     1       6.693   5.954 -13.708  0.00  0.00    +0.127 C 
ATOM     27  O   UNL     1       7.345   4.775 -13.412  0.00  0.00    -0.226 OA
ATOM     28  C   UNL     1       6.977   6.370 -15.148  0.00  0.00    +0.033 C 
ATOM     29  C   UNL     1       7.152   7.033 -12.755  0.00  0.00    +0.033 C 
ENDBRANCH  25  26
ENDBRANCH  24  25
ENDBRANCH  23  24
ENDBRANCH  21  23
ENDBRANCH   6  21
TORSDOF 6
ENDMDL
MODEL 4
REMARK VINA RESULT:      -9.5      1.787      9.053
REMARK  Name = 
REMARK  6 active torsions:
REMARK  status: ('A' for Active; 'I' for Inactive)
REMARK    1  A    between atoms: C_9  and  C_10
REMARK    2  A    between atoms: C_20  and  C_21
REMARK    3  A    between atoms: C_21  and  C_23
REMARK    4  A    between atoms: C_23  and  C_24
REMARK    5  A    between atoms: C_24  and  C_25
REMARK    6  A    between atoms: C_25  and  C_26
REMARK                            x       y       z     vdW  Elec       q    Type
REMARK                         _______ _______ _______ _____ _____    ______ ____
ROOT
ATOM      1  C   UNL     1       4.030   6.673  -9.738  0.00  0.00    -0.009 C 
ATOM      2  C   UNL     1       2.912   6.065  -9.411  0.00  0.00    -0.045 C 
ATOM      3  C   UNL     1       2.043   7.049  -8.444  0.00  0.00    +0.018 C 
ATOM      4  C   UNL     1       3.155   6.949  -7.228  0.00  0.00    +0.004 C 
ATOM      5  C   UNL     1       2.317   6.846  -6.034  0.00  0.00    +0.000 C 
ATOM      6  C   UNL     1       0.781   6.796  -6.593  0.00  0.00    +0.000 C 
ATOM      7  C   UNL     1       1.209   5.778  -7.784  0.00  0.00    +0.003 C 
ATOM      8  C   UNL     1       2.117   4.788  -7.323  0.00  0.00    +0.000 C 
ATOM      9  C   UNL     1       0.163   5.610  -8.752  0.00  0.00    +0.001 C 
ATOM     10  C   UNL     1       0.674   5.163 -10.069  0.00  0.00    +0.004 C 
ATOM     11  C   UNL     1       1.980   5.715 -10.513  0.00  0.00    +0.022 C 
ENDROOT
BRANCH   1  15
ATOM     12  C   UNL     1       6.122   5.663  -9.222  0.00  0.00    -0.005 C 
ATOM     13  C   UNL     1       6.639   6.094 -10.026  0.00  0.00    -0.026 C 
ATOM     14  C   UNL     1       5.879   6.634 -11.180  0.00  0.00    -0.024 C 
ATOM     15  C   UNL     1       4.561   6.796 -11.098  0.00  0.00    -0.005 C 
ATOM     16  C   UNL     1       6.770   7.234 -12.171  0.00  0.00    +0.059 C 
ATOM     17  C   UNL     1       7.405   5.970 -13.075  0.00  0.00    +0.157 C 
ATOM     18  O   UNL     1       8.851   6.403 -12.743  0.00  0.00    -0.223 OA
ATOM     19  C   UNL     1       7.407   4.852 -11.822  0.00  0.00    +0.038 C 
ATOM     20  C   UNL     1       7.929   5.596 -10.628  0.00  0.00    +0.029 C 
ENDBRANCH   1  15
BRANCH   6  21
ATOM     21  C   UNL     1       0.385   5.556  -5.470  0.00  0.00    +0.000 C 
ATOM     22  C   UNL     1      -1.217   5.656  -5.774  0.00  0.00    +0.000 C 
BRANCH  21  23
ATOM     23  C   UNL     1       0.319   6.640  -4.247  0.00  0.00    +0.000 C 
BRANCH  23  24
ATOM     24  C   UNL     1       0.758   5.981  -3.011  0.00  0.00    +0.003 C 
BRANCH  24  25
ATOM     25  C   UNL     1       2.141   6.184  -2.539  0.00  0.00    +0.030 C 
BRANCH  25  26
ATOM     26  C   UNL     1       2.408   5.528  -1.220  0.00  0.00    +0.127 C 
ATOM     27  O   UNL     1       2.377   6.404  -0.154  0.00  0.00    -0.226 OA
ATOM     28  C   UNL     1       1.311   4.478  -1.074  0.00  0.00    +0.033 C 
ATOM     29  C   UNL     1       3.763   4.861  -1.281  0.00  0.00    +0.033 C 
ENDBRANCH  25  26
ENDBRANCH  24  25
ENDBRANCH  23  24
ENDBRANCH  21  23
ENDBRANCH   6  21
TORSDOF 6
ENDMDL
MODEL 5
REMARK VINA RESULT:      -9.4      2.360      4.097
REMARK  Name = 
REMARK  6 active torsions:
REMARK  status: ('A' for Active; 'I' for Inactive)
REMARK    1  A    between atoms: C_9  and  C_10
REMARK    2  A    between atoms: C_20  and  C_21
REMARK    3  A    between atoms: C_21  and  C_23
REMARK    4  A    between atoms: C_23  and  C_24
REMARK    5  A    between atoms: C_24  and  C_25
REMARK    6  A    between atoms: C_25  and  C_26
REMARK                            x       y       z     vdW  Elec       q    Type
REMARK                         _______ _______ _______ _____ _____    ______ ____
ROOT
ATOM      1  C   UNL     1       0.596   6.735  -5.992  0.00  0.00    -0.009 C 
ATOM      2  C   UNL     1       1.742   6.192  -6.332  0.00  0.00    -0.045 C 
ATOM      3  C   UNL     1       2.426   7.099  -7.502  0.00  0.00    +0.018 C 
ATOM      4  C   UNL     1       1.240   6.720  -8.585  0.00  0.00    +0.004 C 
ATOM      5  C   UNL     1       1.989   6.522  -9.825  0.00  0.00    +0.000 C 
ATOM      6  C   UNL     1       3.560   6.696  -9.407  0.00  0.00    +0.000 C 
ATOM      7  C   UNL     1       3.334   5.827  -8.054  0.00  0.00    +0.003 C 
ATOM      8  C   UNL     1       2.502   4.702  -8.289  0.00  0.00    +0.000 C 
ATOM      9  C   UNL     1       4.464   5.900  -7.172  0.00  0.00    +0.001 C 
ATOM     10  C   UNL     1       4.106   5.606  -5.764  0.00  0.00    +0.004 C 
ATOM     11  C   UNL     1       2.788   6.093  -5.283  0.00  0.00    +0.022 C 
ENDROOT
BRANCH   1  15
ATOM     12  C   UNL     1      -1.480   5.593  -6.214  0.00  0.00    -0.005 C 
ATOM     13  C   UNL     1      -1.955   6.101  -5.430  0.00  0.00    -0.026 C 
ATOM     14  C   UNL     1      -1.138   6.807  -4.413  0.00  0.00    -0.024 C 
ATOM     15  C   UNL     1       0.161   7.006  -4.619  0.00  0.00    -0.005 C 
ATOM     16  C   UNL     1      -1.979   7.492  -3.434  0.00  0.00    +0.059 C 
ATOM     17  C   UNL     1      -2.487   6.327  -2.337  0.00  0.00    +0.157 C 
ATOM     18  O   UNL     1      -3.972   6.663  -2.603  0.00  0.00    -0.223 OA
ATOM     19  C   UNL     1      -2.530   5.064  -3.443  0.00  0.00    +0.038 C 
ATOM     20  C   UNL     1      -3.173   5.634  -4.672  0.00  0.00    +0.029 C 
ENDBRANCH   1  15
BRANCH   6  21
ATOM     21  C   UNL     1       3.996   5.347 -10.381  0.00  0.00    +0.000 C 
ATOM     22  C   UNL     1       5.597   5.642 -10.247  0.00  0.00    +0.000 C 
BRANCH  21  23
ATOM     23  C   UNL     1       3.846   6.240 -11.743  0.00  0.00    +0.000 C 
BRANCH  23  24
ATOM     24  C   UNL     1       3.330   5.379 -12.814  0.00  0.00    +0.003 C 
BRANCH  24  25
ATOM     25  C   UNL     1       2.766   5.999 -14.028  0.00  0.00    +0.030 C 
BRANCH  25  26
ATOM     26  C   UNL     1       1.270   6.004 -14.039  0.00  0.00    +0.127 C 
ATOM     27  O   UNL     1       0.729   5.921 -15.306  0.00  0.00    -0.226 OA
ATOM     28  C   UNL     1       0.867   4.787 -13.211  0.00  0.00    +0.033 C 
ATOM     29  C   UNL     1       0.788   7.271 -13.371  0.00  0.00    +0.033 C 
ENDBRANCH  25  26
ENDBRANCH  24  25
ENDBRANCH  23  24
ENDBRANCH  21  23
ENDBRANCH   6  21
TORSDOF 6
ENDMDL
MODEL 6
REMARK VINA RESULT:      -9.3      2.505      3.471
REMARK  Name = 
REMARK  6 active torsions:
REMARK  status: ('A' for Active; 'I' for Inactive)
REMARK    1  A    between atoms: C_9  and  C_10
REMARK    2  A    between atoms: C_20  and  C_21
REMARK    3  A    between atoms: C_21  and  C_23
REMARK    4  A    between atoms: C_23  and  C_24
REMARK    5  A    between atoms: C_24  and  C_25
REMARK    6  A    between atoms: C_25  and  C_26
REMARK                            x       y       z     vdW  Elec       q    Type
REMARK                         _______ _______ _______ _____ _____    ______ ____
ROOT
ATOM      1  C   UNL     1       2.982   5.783  -5.249  0.00  0.00    -0.009 C 
ATOM      2  C   UNL     1       2.303   5.983  -6.355  0.00  0.00    -0.045 C 
ATOM      3  C   UNL     1       2.838   4.946  -7.494  0.00  0.00    +0.018 C 
ATOM      4  C   UNL     1       4.317   5.676  -7.561  0.00  0.00    +0.004 C 
ATOM      5  C   UNL     1       4.607   5.681  -8.994  0.00  0.00    +0.000 C 
ATOM      6  C   UNL     1       3.275   5.053  -9.703  0.00  0.00    +0.000 C 
ATOM      7  C   UNL     1       2.305   5.917  -8.727  0.00  0.00    +0.003 C 
ATOM      8  C   UNL     1       2.789   7.239  -8.548  0.00  0.00    +0.000 C 
ATOM      9  C   UNL     1       0.935   5.501  -8.823  0.00  0.00    +0.001 C 
ATOM     10  C   UNL     1       0.148   5.851  -7.618  0.00  0.00    +0.004 C 
ATOM     11  C   UNL     1       0.837   5.751  -6.306  0.00  0.00    +0.022 C 
ENDROOT
BRANCH   1  15
ATOM     12  C   UNL     1       4.677   7.030  -4.136  0.00  0.00    -0.005 C 
ATOM     13  C   UNL     1       4.516   6.595  -3.196  0.00  0.00    -0.026 C 
ATOM     14  C   UNL     1       3.235   5.900  -2.920  0.00  0.00    -0.024 C 
ATOM     15  C   UNL     1       2.400   5.615  -3.915  0.00  0.00    -0.005 C 
ATOM     16  C   UNL     1       3.221   5.321  -1.578  0.00  0.00    +0.059 C 
ATOM     17  C   UNL     1       2.867   6.573  -0.517  0.00  0.00    +0.157 C 
ATOM     18  O   UNL     1       4.157   6.309   0.292  0.00  0.00    -0.223 OA
ATOM     19  C   UNL     1       3.624   7.772  -1.415  0.00  0.00    +0.038 C 
ATOM     20  C   UNL     1       4.923   7.172  -1.863  0.00  0.00    +0.029 C 
ENDBRANCH   1  15
BRANCH   6  21
ATOM     21  C   UNL     1       3.340   6.244 -10.942  0.00  0.00    +0.000 C 
ATOM     22  C   UNL     1       1.980   5.705 -11.668  0.00  0.00    +0.000 C 
BRANCH  21  23
ATOM     23  C   UNL     1       4.316   5.294 -11.848  0.00  0.00    +0.000 C 
BRANCH  23  24
ATOM     24  C   UNL     1       5.504   6.069 -12.228  0.00  0.00    +0.003 C 
BRANCH  24  25
ATOM     25  C   UNL     1       6.808   5.386 -12.324  0.00  0.00    +0.030 C 
BRANCH  25  26
ATOM     26  C   UNL     1       7.820   5.925 -11.362  0.00  0.00    +0.127 C 
ATOM     27  O   UNL     1       7.988   5.137 -10.242  0.00  0.00    -0.226 OA
ATOM     28  C   UNL     1       9.119   5.999 -12.158  0.00  0.00    +0.033 C 
ATOM     29  C   UNL     1       7.390   7.311 -10.939  0.00  0.00    +0.033 C 
ENDBRANCH  25  26
ENDBRANCH  24  25
ENDBRANCH  23  24
ENDBRANCH  21  23
ENDBRANCH   6  21
TORSDOF 6
ENDMDL
MODEL 7
REMARK VINA RESULT:      -9.1      2.321      4.155
REMARK  Name = 
REMARK  6 active torsions:
REMARK  status: ('A' for Active; 'I' for Inactive)
REMARK    1  A    between atoms: C_9  and  C_10
REMARK    2  A    between atoms: C_20  and  C_21
REMARK    3  A    between atoms: C_21  and  C_23
REMARK    4  A    between atoms: C_23  and  C_24
REMARK    5  A    between atoms: C_24  and  C_25
REMARK    6  A    between atoms: C_25  and  C_26
REMARK                            x       y       z     vdW  Elec       q    Type
REMARK                         _______ _______ _______ _____ _____    ______ ____
ROOT
ATOM      1  C   UNL     1       0.744   5.229  -4.712  0.00  0.00    -0.009 C 
ATOM      2  C   UNL     1       1.903   5.085  -5.315  0.00  0.00    -0.045 C 
ATOM      3  C   UNL     1       2.106   6.318  -6.361  0.00  0.00    +0.018 C 
ATOM      4  C   UNL     1       0.867   5.801  -7.319  0.00  0.00    +0.004 C 
ATOM      5  C   UNL     1       1.391   6.015  -8.667  0.00  0.00    +0.000 C 
ATOM      6  C   UNL     1       2.921   6.551  -8.450  0.00  0.00    +0.000 C 
ATOM      7  C   UNL     1       3.178   5.452  -7.282  0.00  0.00    +0.003 C 
ATOM      8  C   UNL     1       2.619   4.191  -7.620  0.00  0.00    +0.000 C 
ATOM      9  C   UNL     1       4.401   5.695  -6.573  0.00  0.00    +0.001 C 
ATOM     10  C   UNL     1       4.402   5.095  -5.218  0.00  0.00    +0.004 C 
ATOM     11  C   UNL     1       3.121   5.117  -4.466  0.00  0.00    +0.022 C 
ENDROOT
BRANCH   1  15
ATOM     12  C   UNL     1      -1.336   6.383  -4.765  0.00  0.00    -0.005 C 
ATOM     13  C   UNL     1      -1.305   6.685  -3.761  0.00  0.00    -0.026 C 
ATOM     14  C   UNL     1      -0.406   5.984  -2.813  0.00  0.00    -0.024 C 
ATOM     15  C   UNL     1       0.526   5.149  -3.266  0.00  0.00    -0.005 C 
ATOM     16  C   UNL     1      -0.468   6.579  -1.480  0.00  0.00    +0.059 C 
ATOM     17  C   UNL     1      -1.852   5.974  -0.746  0.00  0.00    +0.157 C 
ATOM     18  O   UNL     1      -2.393   7.399  -0.493  0.00  0.00    -0.223 OA
ATOM     19  C   UNL     1      -2.746   5.839  -2.161  0.00  0.00    +0.038 C 
ATOM     20  C   UNL     1      -2.483   7.107  -2.918  0.00  0.00    +0.029 C 
ENDBRANCH   1  15
BRANCH   6  21
ATOM     21  C   UNL     1       3.482   5.546  -9.728  0.00  0.00    +0.000 C 
ATOM     22  C   UNL     1       4.945   6.269  -9.788  0.00  0.00    +0.000 C 
BRANCH  21  23
ATOM     23  C   UNL     1       2.832   6.548 -10.845  0.00  0.00    +0.000 C 
BRANCH  23  24
ATOM     24  C   UNL     1       2.726   5.826 -12.119  0.00  0.00    +0.003 C 
BRANCH  24  25
ATOM     25  C   UNL     1       1.391   5.474 -12.638  0.00  0.00    +0.030 C 
BRANCH  25  26
ATOM     26  C   UNL     1       1.395   5.179 -14.105  0.00  0.00    +0.127 C 
ATOM     27  O   UNL     1       2.657   4.957 -14.617  0.00  0.00    -0.226 OA
ATOM     28  C   UNL     1       0.534   3.929 -14.258  0.00  0.00    +0.033 C 
ATOM     29  C   UNL     1       0.758   6.342 -14.830  0.00  0.00    +0.033 C 
ENDBRANCH  25  26
ENDBRANCH  24  25
ENDBRANCH  23  24
ENDBRANCH  21  23
ENDBRANCH   6  21
TORSDOF 6
ENDMDL
MODEL 8
REMARK VINA RESULT:      -8.9      1.949      2.601
REMARK  Name = 
REMARK  6 active torsions:
REMARK  status: ('A' for Active; 'I' for Inactive)
REMARK    1  A    between atoms: C_9  and  C_10
REMARK    2  A    between atoms: C_20  and  C_21
REMARK    3  A    between atoms: C_21  and  C_23
REMARK    4  A    between atoms: C_23  and  C_24
REMARK    5  A    between atoms: C_24  and  C_25
REMARK    6  A    between atoms: C_25  and  C_26
REMARK                            x       y       z     vdW  Elec       q    Type
REMARK                         _______ _______ _______ _____ _____    ______ ____
ROOT
ATOM      1  C   UNL     1       1.727   6.310  -3.693  0.00  0.00    -0.009 C 
ATOM      2  C   UNL     1       1.535   6.296  -4.992  0.00  0.00    -0.045 C 
ATOM      3  C   UNL     1       2.469   5.132  -5.649  0.00  0.00    +0.018 C 
ATOM      4  C   UNL     1       3.859   5.930  -5.258  0.00  0.00    +0.004 C 
ATOM      5  C   UNL     1       4.687   5.734  -6.447  0.00  0.00    +0.000 C 
ATOM      6  C   UNL     1       3.735   4.925  -7.502  0.00  0.00    +0.000 C 
ATOM      7  C   UNL     1       2.465   5.868  -7.133  0.00  0.00    +0.003 C 
ATOM      8  C   UNL     1       2.846   7.229  -7.001  0.00  0.00    +0.000 C 
ATOM      9  C   UNL     1       1.240   5.361  -7.682  0.00  0.00    +0.001 C 
ATOM     10  C   UNL     1       0.045   5.844  -6.950  0.00  0.00    +0.004 C 
ATOM     11  C   UNL     1       0.166   5.987  -5.476  0.00  0.00    +0.022 C 
ENDROOT
BRANCH   1  15
ATOM     12  C   UNL     1       3.092   7.248  -1.985  0.00  0.00    -0.005 C 
ATOM     13  C   UNL     1       2.511   6.891  -1.189  0.00  0.00    -0.026 C 
ATOM     14  C   UNL     1       1.110   6.470  -1.435  0.00  0.00    -0.024 C 
ATOM     15  C   UNL     1       0.668   6.312  -2.681  0.00  0.00    -0.005 C 
ATOM     16  C   UNL     1       0.484   5.961  -0.218  0.00  0.00    +0.059 C 
ATOM     17  C   UNL     1       0.011   7.300   0.677  0.00  0.00    +0.157 C 
ATOM     18  O   UNL     1       0.829   6.824   1.900  0.00  0.00    -0.223 OA
ATOM     19  C   UNL     1       1.267   8.292   0.170  0.00  0.00    +0.038 C 
ATOM     20  C   UNL     1       2.496   7.433   0.219  0.00  0.00    +0.029 C 
ENDBRANCH   1  15
BRANCH   6  21
ATOM     21  C   UNL     1       4.285   5.914  -8.797  0.00  0.00    +0.000 C 
ATOM     22  C   UNL     1       3.739   4.888  -9.944  0.00  0.00    +0.000 C 
BRANCH  21  23
ATOM     23  C   UNL     1       5.765   5.219  -8.742  0.00  0.00    +0.000 C 
BRANCH  23  24
ATOM     24  C   UNL     1       6.714   6.078  -9.459  0.00  0.00    +0.003 C 
BRANCH  24  25
ATOM     25  C   UNL     1       7.738   5.458 -10.322  0.00  0.00    +0.030 C 
BRANCH  25  26
ATOM     26  C   UNL     1       7.569   5.806 -11.768  0.00  0.00    +0.127 C 
ATOM     27  O   UNL     1       6.802   4.896 -12.466  0.00  0.00    -0.226 OA
ATOM     28  C   UNL     1       6.895   7.175 -11.766  0.00  0.00    +0.033 C 
ATOM     29  C   UNL     1       8.937   5.900 -12.402  0.00  0.00    +0.033 C 
ENDBRANCH  25  26
ENDBRANCH  24  25
ENDBRANCH  23  24
ENDBRANCH  21  23
ENDBRANCH   6  21
TORSDOF 6
ENDMDL
MODEL 9
REMARK VINA RESULT:      -8.8      2.845      9.091
REMARK  Name = 
REMARK  6 active torsions:
REMARK  status: ('A' for Active; 'I' for Inactive)
REMARK    1  A    between atoms: C_9  and  C_10
REMARK    2  A    between atoms: C_20  and  C_21
REMARK    3  A    between atoms: C_21  and  C_23
REMARK    4  A    between atoms: C_23  and  C_24
REMARK    5  A    between atoms: C_24  and  C_25
REMARK    6  A    between atoms: C_25  and  C_26
REMARK                            x       y       z     vdW  Elec       q    Type
REMARK                         _______ _______ _______ _____ _____    ______ ____
ROOT
ATOM      1  C   UNL     1       2.093   6.091 -10.448  0.00  0.00    -0.009 C 
ATOM      2  C   UNL     1       2.816   6.158  -9.354  0.00  0.00    -0.045 C 
ATOM      3  C   UNL     1       2.272   5.043  -8.296  0.00  0.00    +0.018 C 
ATOM      4  C   UNL     1       0.831   5.824  -8.108  0.00  0.00    +0.004 C 
ATOM      5  C   UNL     1       0.588   5.709  -6.671  0.00  0.00    +0.000 C 
ATOM      6  C   UNL     1       1.913   4.962  -6.072  0.00  0.00    +0.000 C 
ATOM      7  C   UNL     1       2.889   5.871  -6.999  0.00  0.00    +0.003 C 
ATOM      8  C   UNL     1       2.459   7.224  -7.038  0.00  0.00    +0.000 C 
ATOM      9  C   UNL     1       4.241   5.391  -6.992  0.00  0.00    +0.001 C 
ATOM     10  C   UNL     1       5.003   5.819  -8.188  0.00  0.00    +0.004 C 
ATOM     11  C   UNL     1       4.267   5.871  -9.478  0.00  0.00    +0.022 C 
ENDROOT
BRANCH   1  15
ATOM     12  C   UNL     1       0.181   7.092 -11.452  0.00  0.00    -0.005 C 
ATOM     13  C   UNL     1       0.354   6.695 -12.407  0.00  0.00    -0.026 C 
ATOM     14  C   UNL     1       1.705   6.196 -12.759  0.00  0.00    -0.024 C 
ATOM     15  C   UNL     1       2.624   6.023 -11.812  0.00  0.00    -0.005 C 
ATOM     16  C   UNL     1       1.733   5.640 -14.110  0.00  0.00    +0.059 C 
ATOM     17  C   UNL     1       1.848   6.941 -15.164  0.00  0.00    +0.157 C 
ATOM     18  O   UNL     1       0.568   6.503 -15.912  0.00  0.00    -0.223 OA
ATOM     19  C   UNL     1       0.974   8.009 -14.207  0.00  0.00    +0.038 C 
ATOM     20  C   UNL     1      -0.201   7.223 -13.707  0.00  0.00    +0.029 C 
ENDBRANCH   1  15
BRANCH   6  21
ATOM     21  C   UNL     1       1.942   6.033  -4.728  0.00  0.00    +0.000 C 
ATOM     22  C   UNL     1       3.154   5.228  -3.985  0.00  0.00    +0.000 C 
BRANCH  21  23
ATOM     23  C   UNL     1       0.776   5.171  -3.973  0.00  0.00    +0.000 C 
BRANCH  23  24
ATOM     24  C   UNL     1       0.028   6.068  -3.084  0.00  0.00    +0.003 C 
BRANCH  24  25
ATOM     25  C   UNL     1      -1.350   5.713  -2.696  0.00  0.00    +0.030 C 
BRANCH  25  26
ATOM     26  C   UNL     1      -2.383   6.320  -3.593  0.00  0.00    +0.127 C 
ATOM     27  O   UNL     1      -2.603   5.594  -4.747  0.00  0.00    -0.226 OA
ATOM     28  C   UNL     1      -3.653   6.373  -2.751  0.00  0.00    +0.033 C 
ATOM     29  C   UNL     1      -1.941   7.718  -3.958  0.00  0.00    +0.033 C 
ENDBRANCH  25  26
ENDBRANCH  24  25
ENDBRANCH  23  24
ENDBRANCH  21  23
ENDBRANCH   6  21
TORSDOF 6
ENDMDL
