MODEL 1
REMARK VINA RESULT:      -7.9      0.000      0.000
REMARK  Name = 
REMARK  6 active torsions:
REMARK  status: ('A' for Active; 'I' for Inactive)
REMARK    1  A    between atoms: C_2  and  N_4
REMARK    2  A    between atoms: C_11  and  O_12
REMARK    3  A    between atoms: O_12  and  C_13
REMARK    4  A    between atoms: C_13  and  C_15
REMARK    5  A    between atoms: C_15  and  C_16
REMARK    6  A    between atoms: C_15  and  C_18
REMARK                            x       y       z     vdW  Elec       q    Type
REMARK                         _______ _______ _______ _____ _____    ______ ____
ROOT
ATOM      1  N   UNL     1       2.853   6.484  -4.102  0.00  0.00    +0.289 N 
ATOM      2  C   UNL     1       3.934   7.248  -4.874  0.00  0.00    +0.062 C 
ATOM      3  C   UNL     1       4.035   6.344  -6.249  0.00  0.00    +0.099 C 
ATOM      4  C   UNL     1       2.469   5.926  -6.461  0.00  0.00    +0.180 C 
ATOM      5  C   UNL     1       2.665   4.547  -5.622  0.00  0.00    +0.099 C 
ATOM      6  C   UNL     1       5.161   6.436  -4.138  0.00  0.00    +0.061 C 
ATOM      7  C   UNL     1       4.760   5.105  -4.572  0.00  0.00    +0.061 C 
ATOM      8  C   UNL     1       3.183   4.981  -4.124  0.00  0.00    +0.062 C 
ATOM      9  C   UNL     1       1.560   6.855  -4.332  0.00  0.00    +0.170 C 
ENDROOT
BRANCH   1  11
ATOM     10  C   UNL     1       2.333   5.624  -1.970  0.00  0.00    +0.061 C 
ATOM     11  C   UNL     1       3.025   6.676  -2.692  0.00  0.00    +0.058 C 
ATOM     12  C   UNL     1       3.523   7.846  -2.080  0.00  0.00    +0.061 C 
ENDBRANCH   1  11
BRANCH   4  13
ATOM     13  O   UNL     1       2.777   5.218  -7.798  0.00  0.00    -0.452 OA
BRANCH  13  14
ATOM     14  C   UNL     1       3.090   6.045  -8.862  0.00  0.00    +0.323 C 
ATOM     15  O   UNL     1       2.197   6.884  -9.149  0.00  0.00    -0.250 OA
BRANCH  14  16
ATOM     16  C   UNL     1       3.781   5.329 -10.132  0.00  0.00    +0.154 C 
BRANCH  16  17
ATOM     17  C   UNL     1       5.123   6.199 -10.092  0.00  0.00    -0.009 A 
ATOM     18  C   UNL     1       5.337   7.264 -10.851  0.00  0.00    -0.004 A 
ATOM     19  C   UNL     1       6.650   7.635 -11.126  0.00  0.00    -0.000 A 
ATOM     20  C   UNL     1       7.676   6.873 -10.576  0.00  0.00    -0.000 A 
ATOM     21  C   UNL     1       7.391   6.026  -9.511  0.00  0.00    -0.000 A 
ATOM     22  C   UNL     1       6.083   5.628  -9.310  0.00  0.00    -0.004 A 
ENDBRANCH  16  17
BRANCH  16  23
ATOM     23  C   UNL     1       3.059   6.313 -11.223  0.00  0.00    +0.198 C 
ATOM     24  O   UNL     1       2.489   5.532 -12.188  0.00  0.00    -0.219 OA
ENDBRANCH  16  23
ENDBRANCH  14  16
ENDBRANCH  13  14
ENDBRANCH   4  13
TORSDOF 6
ENDMDL
MODEL 2
REMARK VINA RESULT:      -7.8      1.238      2.499
REMARK  Name = 
REMARK  6 active torsions:
REMARK  status: ('A' for Active; 'I' for Inactive)
REMARK    1  A    between atoms: C_2  and  N_4
REMARK    2  A    between atoms: C_11  and  O_12
REMARK    3  A    between atoms: O_12  and  C_13
REMARK    4  A    between atoms: C_13  and  C_15
REMARK    5  A    between atoms: C_15  and  C_16
REMARK    6  A    between atoms: C_15  and  C_18
REMARK                            x       y       z     vdW  Elec       q    Type
REMARK                         _______ _______ _______ _____ _____    ______ ____
ROOT
ATOM      1  N   UNL     1       3.313   5.764  -5.824  0.00  0.00    +0.289 N 
ATOM      2  C   UNL     1       2.173   4.748  -5.934  0.00  0.00    +0.062 C 
ATOM      3  C   UNL     1       1.572   5.112  -7.426  0.00  0.00    +0.099 C 
ATOM      4  C   UNL     1       2.946   5.475  -8.233  0.00  0.00    +0.180 C 
ATOM      5  C   UNL     1       2.809   7.053  -7.869  0.00  0.00    +0.099 C 
ATOM      6  C   UNL     1       1.102   5.730  -5.161  0.00  0.00    +0.061 C 
ATOM      7  C   UNL     1       1.185   6.836  -6.104  0.00  0.00    +0.061 C 
ATOM      8  C   UNL     1       2.793   7.155  -6.229  0.00  0.00    +0.062 C 
ATOM      9  C   UNL     1       4.528   5.374  -6.308  0.00  0.00    +0.170 C 
ENDROOT
BRANCH   1  11
ATOM     10  C   UNL     1       4.157   7.395  -4.347  0.00  0.00    +0.061 C 
ATOM     11  C   UNL     1       3.569   6.073  -4.448  0.00  0.00    +0.058 C 
ATOM     12  C   UNL     1       3.544   5.146  -3.383  0.00  0.00    +0.061 C 
ENDBRANCH   1  11
BRANCH   4  13
ATOM     13  O   UNL     1       2.185   5.662  -9.564  0.00  0.00    -0.452 OA
BRANCH  13  14
ATOM     14  C   UNL     1       2.947   6.070 -10.644  0.00  0.00    +0.323 C 
ATOM     15  O   UNL     1       2.279   6.490 -11.624  0.00  0.00    -0.250 OA
BRANCH  14  16
ATOM     16  C   UNL     1       4.191   5.118 -11.029  0.00  0.00    +0.154 C 
BRANCH  16  17
ATOM     17  C   UNL     1       5.327   6.162 -10.606  0.00  0.00    -0.009 A 
ATOM     18  C   UNL     1       5.474   7.358 -11.156  0.00  0.00    -0.004 A 
ATOM     19  C   UNL     1       6.726   7.965 -11.111  0.00  0.00    -0.000 A 
ATOM     20  C   UNL     1       7.761   7.285 -10.477  0.00  0.00    -0.000 A 
ATOM     21  C   UNL     1       7.453   6.238  -9.615  0.00  0.00    -0.000 A 
ATOM     22  C   UNL     1       6.224   5.620  -9.733  0.00  0.00    -0.004 A 
ENDBRANCH  16  17
BRANCH  16  23
ATOM     23  C   UNL     1       4.209   5.585 -12.599  0.00  0.00    +0.198 C 
ATOM     24  O   UNL     1       4.858   4.624 -13.320  0.00  0.00    -0.219 OA
ENDBRANCH  16  23
ENDBRANCH  14  16
ENDBRANCH  13  14
ENDBRANCH   4  13
TORSDOF 6
ENDMDL
MODEL 3
REMARK VINA RESULT:      -7.6      2.468      3.409
REMARK  Name = 
REMARK  6 active torsions:
REMARK  status: ('A' for Active; 'I' for Inactive)
REMARK    1  A    between atoms: C_2  and  N_4
REMARK    2  A    between atoms: C_11  and  O_12
REMARK    3  A    between atoms: O_12  and  C_13
REMARK    4  A    between atoms: C_13  and  C_15
REMARK    5  A    between atoms: C_15  and  C_16
REMARK    6  A    between atoms: C_15  and  C_18
REMARK                            x       y       z     vdW  Elec       q    Type
REMARK                         _______ _______ _______ _____ _____    ______ ____
ROOT
ATOM      1  N   UNL     1       1.763   5.705  -7.730  0.00  0.00    +0.289 N 
ATOM      2  C   UNL     1       2.478   7.032  -8.000  0.00  0.00    +0.062 C 
ATOM      3  C   UNL     1       3.658   6.545  -9.045  0.00  0.00    +0.099 C 
ATOM      4  C   UNL     1       2.859   5.407  -9.905  0.00  0.00    +0.180 C 
ATOM      5  C   UNL     1       3.352   4.224  -8.905  0.00  0.00    +0.099 C 
ATOM      6  C   UNL     1       3.452   6.880  -6.683  0.00  0.00    +0.061 C 
ATOM      7  C   UNL     1       4.072   5.625  -7.082  0.00  0.00    +0.061 C 
ATOM      8  C   UNL     1       2.809   4.623  -7.406  0.00  0.00    +0.062 C 
ATOM      9  C   UNL     1       0.748   5.373  -8.579  0.00  0.00    +0.170 C 
ENDROOT
BRANCH   1  11
ATOM     10  C   UNL     1       1.045   4.382  -5.915  0.00  0.00    +0.061 C 
ATOM     11  C   UNL     1       1.142   5.732  -6.438  0.00  0.00    +0.058 C 
ATOM     12  C   UNL     1       0.460   6.836  -5.881  0.00  0.00    +0.061 C 
ENDBRANCH   1  11
BRANCH   4  13
ATOM     13  O   UNL     1       4.065   5.187 -10.845  0.00  0.00    -0.452 OA
BRANCH  13  14
ATOM     14  C   UNL     1       3.937   5.703 -12.123  0.00  0.00    +0.323 C 
ATOM     15  O   UNL     1       2.758   5.728 -12.559  0.00  0.00    -0.250 OA
BRANCH  14  16
ATOM     16  C   UNL     1       5.046   5.222 -13.191  0.00  0.00    +0.154 C 
BRANCH  16  17
ATOM     17  C   UNL     1       6.295   5.861 -12.422  0.00  0.00    -0.009 A 
ATOM     18  C   UNL     1       7.321   5.158 -11.964  0.00  0.00    -0.004 A 
ATOM     19  C   UNL     1       8.068   5.675 -10.909  0.00  0.00    -0.000 A 
ATOM     20  C   UNL     1       7.704   6.916 -10.396  0.00  0.00    -0.000 A 
ATOM     21  C   UNL     1       6.882   7.746 -11.151  0.00  0.00    -0.000 A 
ATOM     22  C   UNL     1       6.108   7.184 -12.148  0.00  0.00    -0.004 A 
ENDBRANCH  16  17
BRANCH  16  23
ATOM     23  C   UNL     1       4.847   6.529 -14.157  0.00  0.00    +0.198 C 
ATOM     24  O   UNL     1       4.123   6.144 -15.249  0.00  0.00    -0.219 OA
ENDBRANCH  16  23
ENDBRANCH  14  16
ENDBRANCH  13  14
ENDBRANCH   4  13
TORSDOF 6
ENDMDL
MODEL 4
REMARK VINA RESULT:      -7.5      2.403      7.255
REMARK  Name = 
REMARK  6 active torsions:
REMARK  status: ('A' for Active; 'I' for Inactive)
REMARK    1  A    between atoms: C_2  and  N_4
REMARK    2  A    between atoms: C_11  and  O_12
REMARK    3  A    between atoms: O_12  and  C_13
REMARK    4  A    between atoms: C_13  and  C_15
REMARK    5  A    between atoms: C_15  and  C_16
REMARK    6  A    between atoms: C_15  and  C_18
REMARK                            x       y       z     vdW  Elec       q    Type
REMARK                         _______ _______ _______ _____ _____    ______ ____
ROOT
ATOM      1  N   UNL     1       6.047   5.977 -12.143  0.00  0.00    +0.289 N 
ATOM      2  C   UNL     1       6.983   5.299 -11.138  0.00  0.00    +0.062 C 
ATOM      3  C   UNL     1       6.299   5.763  -9.710  0.00  0.00    +0.099 C 
ATOM      4  C   UNL     1       4.712   5.722 -10.099  0.00  0.00    +0.180 C 
ATOM      5  C   UNL     1       4.719   7.290 -10.527  0.00  0.00    +0.099 C 
ATOM      6  C   UNL     1       8.047   6.554 -11.144  0.00  0.00    +0.061 C 
ATOM      7  C   UNL     1       7.106   7.569 -10.692  0.00  0.00    +0.061 C 
ATOM      8  C   UNL     1       5.833   7.444 -11.726  0.00  0.00    +0.062 C 
ATOM      9  C   UNL     1       4.954   5.263 -12.539  0.00  0.00    +0.170 C 
ENDROOT
BRANCH   1  11
ATOM     10  C   UNL     1       6.097   7.340 -14.065  0.00  0.00    +0.061 C 
ATOM     11  C   UNL     1       6.747   6.249 -13.364  0.00  0.00    +0.058 C 
ATOM     12  C   UNL     1       7.722   5.414 -13.951  0.00  0.00    +0.061 C 
ENDBRANCH   1  11
BRANCH   4  13
ATOM     13  O   UNL     1       4.289   6.064  -8.654  0.00  0.00    -0.452 OA
BRANCH  13  14
ATOM     14  C   UNL     1       3.654   5.053  -7.955  0.00  0.00    +0.323 C 
ATOM     15  O   UNL     1       3.256   4.097  -8.669  0.00  0.00    -0.250 OA
BRANCH  14  16
ATOM     16  C   UNL     1       2.616   5.527  -6.816  0.00  0.00    +0.154 C 
BRANCH  16  17
ATOM     17  C   UNL     1       3.725   5.815  -5.700  0.00  0.00    -0.009 A 
ATOM     18  C   UNL     1       4.334   4.868  -5.001  0.00  0.00    -0.004 A 
ATOM     19  C   UNL     1       4.869   5.195  -3.758  0.00  0.00    -0.000 A 
ATOM     20  C   UNL     1       4.747   6.509  -3.317  0.00  0.00    -0.000 A 
ATOM     21  C   UNL     1       4.444   7.505  -4.238  0.00  0.00    -0.000 A 
ATOM     22  C   UNL     1       3.855   7.147  -5.435  0.00  0.00    -0.004 A 
ENDBRANCH  16  17
BRANCH  16  23
ATOM     23  C   UNL     1       2.331   4.006  -6.281  0.00  0.00    +0.198 C 
ATOM     24  O   UNL     1       1.014   3.918  -5.933  0.00  0.00    -0.219 OA
ENDBRANCH  16  23
ENDBRANCH  14  16
ENDBRANCH  13  14
ENDBRANCH   4  13
TORSDOF 6
ENDMDL
MODEL 5
REMARK VINA RESULT:      -7.4      2.270      3.741
REMARK  Name = 
REMARK  6 active torsions:
REMARK  status: ('A' for Active; 'I' for Inactive)
REMARK    1  A    between atoms: C_2  and  N_4
REMARK    2  A    between atoms: C_11  and  O_12
REMARK    3  A    between atoms: O_12  and  C_13
REMARK    4  A    between atoms: C_13  and  C_15
REMARK    5  A    between atoms: C_15  and  C_16
REMARK    6  A    between atoms: C_15  and  C_18
REMARK                            x       y       z     vdW  Elec       q    Type
REMARK                         _______ _______ _______ _____ _____    ______ ____
ROOT
ATOM      1  N   UNL     1       1.700   6.151  -6.927  0.00  0.00    +0.289 N 
ATOM      2  C   UNL     1       2.750   6.363  -5.832  0.00  0.00    +0.062 C 
ATOM      3  C   UNL     1       4.037   5.553  -6.471  0.00  0.00    +0.099 C 
ATOM      4  C   UNL     1       3.863   5.898  -8.059  0.00  0.00    +0.180 C 
ATOM      5  C   UNL     1       2.981   4.556  -8.312  0.00  0.00    +0.099 C 
ATOM      6  C   UNL     1       2.241   5.061  -4.965  0.00  0.00    +0.061 C 
ATOM      7  C   UNL     1       2.467   4.071  -6.009  0.00  0.00    +0.061 C 
ATOM      8  C   UNL     1       1.673   4.663  -7.322  0.00  0.00    +0.062 C 
ATOM      9  C   UNL     1       1.668   7.075  -7.931  0.00  0.00    +0.170 C 
ENDROOT
BRANCH   1  11
ATOM     10  C   UNL     1      -0.532   5.447  -7.201  0.00  0.00    +0.061 C 
ATOM     11  C   UNL     1       0.382   6.202  -6.365  0.00  0.00    +0.058 C 
ATOM     12  C   UNL     1      -0.037   7.078  -5.341  0.00  0.00    +0.061 C 
ENDBRANCH   1  11
BRANCH   4  13
ATOM     13  O   UNL     1       5.174   5.167  -8.422  0.00  0.00    -0.452 OA
BRANCH  13  14
ATOM     14  C   UNL     1       5.843   5.642  -9.536  0.00  0.00    +0.323 C 
ATOM     15  O   UNL     1       7.090   5.733  -9.396  0.00  0.00    -0.250 OA
BRANCH  14  16
ATOM     16  C   UNL     1       5.153   6.887 -10.294  0.00  0.00    +0.154 C 
BRANCH  16  17
ATOM     17  C   UNL     1       4.539   6.022 -11.493  0.00  0.00    -0.009 A 
ATOM     18  C   UNL     1       5.268   5.317 -12.345  0.00  0.00    -0.004 A 
ATOM     19  C   UNL     1       4.739   5.034 -13.601  0.00  0.00    -0.000 A 
ATOM     20  C   UNL     1       3.460   5.496 -13.893  0.00  0.00    -0.000 A 
ATOM     21  C   UNL     1       2.628   5.887 -12.849  0.00  0.00    -0.000 A 
ATOM     22  C   UNL     1       3.197   6.222 -11.636  0.00  0.00    -0.004 A 
ENDBRANCH  16  17
BRANCH  16  23
ATOM     23  C   UNL     1       6.504   7.272 -11.135  0.00  0.00    +0.198 C 
ATOM     24  O   UNL     1       6.424   8.587 -11.490  0.00  0.00    -0.219 OA
ENDBRANCH  16  23
ENDBRANCH  14  16
ENDBRANCH  13  14
ENDBRANCH   4  13
TORSDOF 6
ENDMDL
MODEL 6
REMARK VINA RESULT:      -7.2      3.121      7.356
REMARK  Name = 
REMARK  6 active torsions:
REMARK  status: ('A' for Active; 'I' for Inactive)
REMARK    1  A    between atoms: C_2  and  N_4
REMARK    2  A    between atoms: C_11  and  O_12
REMARK    3  A    between atoms: O_12  and  C_13
REMARK    4  A    between atoms: C_13  and  C_15
REMARK    5  A    between atoms: C_15  and  C_16
REMARK    6  A    between atoms: C_15  and  C_18
REMARK                            x       y       z     vdW  Elec       q    Type
REMARK                         _______ _______ _______ _____ _____    ______ ____
ROOT
ATOM      1  N   UNL     1       6.071   5.988 -12.030  0.00  0.00    +0.289 N 
ATOM      2  C   UNL     1       6.941   5.325 -10.958  0.00  0.00    +0.062 C 
ATOM      3  C   UNL     1       6.154   5.791  -9.585  0.00  0.00    +0.099 C 
ATOM      4  C   UNL     1       4.599   5.733 -10.084  0.00  0.00    +0.180 C 
ATOM      5  C   UNL     1       4.621   7.298 -10.521  0.00  0.00    +0.099 C 
ATOM      6  C   UNL     1       7.991   6.590 -10.898  0.00  0.00    +0.061 C 
ATOM      7  C   UNL     1       7.011   7.598 -10.519  0.00  0.00    +0.061 C 
ATOM      8  C   UNL     1       5.815   7.455 -11.639  0.00  0.00    +0.062 C 
ATOM      9  C   UNL     1       5.015   5.261 -12.497  0.00  0.00    +0.170 C 
ENDROOT
BRANCH   1  11
ATOM     10  C   UNL     1       6.214   7.301 -13.982  0.00  0.00    +0.061 C 
ATOM     11  C   UNL     1       6.853   6.259 -13.202  0.00  0.00    +0.058 C 
ATOM     12  C   UNL     1       7.905   5.453 -13.687  0.00  0.00    +0.061 C 
ENDBRANCH   1  11
BRANCH   4  13
ATOM     13  O   UNL     1       4.072   6.079  -8.674  0.00  0.00    -0.452 OA
BRANCH  13  14
ATOM     14  C   UNL     1       2.783   5.663  -8.391  0.00  0.00    +0.323 C 
ATOM     15  O   UNL     1       2.497   4.520  -8.831  0.00  0.00    -0.250 OA
BRANCH  14  16
ATOM     16  C   UNL     1       1.627   6.772  -8.581  0.00  0.00    +0.154 C 
BRANCH  16  17
ATOM     17  C   UNL     1       0.667   6.197  -7.437  0.00  0.00    -0.009 A 
ATOM     18  C   UNL     1      -0.394   5.439  -7.673  0.00  0.00    -0.004 A 
ATOM     19  C   UNL     1      -1.420   5.415  -6.732  0.00  0.00    -0.000 A 
ATOM     20  C   UNL     1      -1.271   6.181  -5.581  0.00  0.00    -0.000 A 
ATOM     21  C   UNL     1      -0.005   6.637  -5.231  0.00  0.00    -0.000 A 
ATOM     22  C   UNL     1       0.969   6.707  -6.208  0.00  0.00    -0.004 A 
ENDBRANCH  16  17
BRANCH  16  23
ATOM     23  C   UNL     1       0.868   5.942  -9.771  0.00  0.00    +0.198 C 
ATOM     24  O   UNL     1       1.157   6.545 -10.961  0.00  0.00    -0.219 OA
ENDBRANCH  16  23
ENDBRANCH  14  16
ENDBRANCH  13  14
ENDBRANCH   4  13
TORSDOF 6
ENDMDL
MODEL 7
REMARK VINA RESULT:      -7.2      3.659      7.802
REMARK  Name = 
REMARK  6 active torsions:
REMARK  status: ('A' for Active; 'I' for Inactive)
REMARK    1  A    between atoms: C_2  and  N_4
REMARK    2  A    between atoms: C_11  and  O_12
REMARK    3  A    between atoms: O_12  and  C_13
REMARK    4  A    between atoms: C_13  and  C_15
REMARK    5  A    between atoms: C_15  and  C_16
REMARK    6  A    between atoms: C_15  and  C_18
REMARK                            x       y       z     vdW  Elec       q    Type
REMARK                         _______ _______ _______ _____ _____    ______ ____
ROOT
ATOM      1  N   UNL     1       2.783   6.134  -6.393  0.00  0.00    +0.289 N 
ATOM      2  C   UNL     1       1.274   6.059  -6.646  0.00  0.00    +0.062 C 
ATOM      3  C   UNL     1       0.761   5.322  -5.263  0.00  0.00    +0.099 C 
ATOM      4  C   UNL     1       1.769   5.990  -4.163  0.00  0.00    +0.180 C 
ATOM      5  C   UNL     1       2.842   4.781  -4.328  0.00  0.00    +0.099 C 
ATOM      6  C   UNL     1       1.391   4.640  -7.470  0.00  0.00    +0.061 C 
ATOM      7  C   UNL     1       1.987   3.870  -6.387  0.00  0.00    +0.061 C 
ATOM      8  C   UNL     1       3.284   4.761  -5.911  0.00  0.00    +0.062 C 
ATOM      9  C   UNL     1       3.239   7.242  -5.740  0.00  0.00    +0.170 C 
ENDROOT
BRANCH   1  11
ATOM     10  C   UNL     1       4.780   5.498  -7.472  0.00  0.00    +0.061 C 
ATOM     11  C   UNL     1       3.492   6.146  -7.639  0.00  0.00    +0.058 C 
ATOM     12  C   UNL     1       3.147   6.917  -8.770  0.00  0.00    +0.061 C 
ENDBRANCH   1  11
BRANCH   4  13
ATOM     13  O   UNL     1       1.062   5.274  -2.992  0.00  0.00    -0.452 OA
BRANCH  13  14
ATOM     14  C   UNL     1       0.423   6.093  -2.079  0.00  0.00    +0.323 C 
ATOM     15  O   UNL     1       1.183   6.602  -1.215  0.00  0.00    -0.250 OA
BRANCH  14  16
ATOM     16  C   UNL     1      -0.985   5.549  -1.508  0.00  0.00    +0.154 C 
BRANCH  16  17
ATOM     17  C   UNL     1      -1.867   6.075  -2.735  0.00  0.00    -0.009 A 
ATOM     18  C   UNL     1      -2.530   5.281  -3.563  0.00  0.00    -0.004 A 
ATOM     19  C   UNL     1      -2.827   5.747  -4.841  0.00  0.00    -0.000 A 
ATOM     20  C   UNL     1      -2.421   7.033  -5.180  0.00  0.00    -0.000 A 
ATOM     21  C   UNL     1      -2.078   7.923  -4.168  0.00  0.00    -0.000 A 
ATOM     22  C   UNL     1      -1.727   7.418  -2.931  0.00  0.00    -0.004 A 
ENDBRANCH  16  17
BRANCH  16  23
ATOM     23  C   UNL     1      -1.266   6.887  -0.606  0.00  0.00    +0.198 C 
ATOM     24  O   UNL     1      -1.634   6.486   0.646  0.00  0.00    -0.219 OA
ENDBRANCH  16  23
ENDBRANCH  14  16
ENDBRANCH  13  14
ENDBRANCH   4  13
TORSDOF 6
ENDMDL
MODEL 8
REMARK VINA RESULT:      -7.1      3.177      7.606
REMARK  Name = 
REMARK  6 active torsions:
REMARK  status: ('A' for Active; 'I' for Inactive)
REMARK    1  A    between atoms: C_2  and  N_4
REMARK    2  A    between atoms: C_11  and  O_12
REMARK    3  A    between atoms: O_12  and  C_13
REMARK    4  A    between atoms: C_13  and  C_15
REMARK    5  A    between atoms: C_15  and  C_16
REMARK    6  A    between atoms: C_15  and  C_18
REMARK                            x       y       z     vdW  Elec       q    Type
REMARK                         _______ _______ _______ _____ _____    ______ ____
ROOT
ATOM      1  N   UNL     1       0.966   5.568  -9.252  0.00  0.00    +0.289 N 
ATOM      2  C   UNL     1       2.045   4.496  -9.069  0.00  0.00    +0.062 C 
ATOM      3  C   UNL     1       2.750   4.998  -7.665  0.00  0.00    +0.099 C 
ATOM      4  C   UNL     1       1.449   5.554  -6.846  0.00  0.00    +0.180 C 
ATOM      5  C   UNL     1       1.665   7.062  -7.414  0.00  0.00    +0.099 C 
ATOM      6  C   UNL     1       3.130   5.297 -10.010  0.00  0.00    +0.061 C 
ATOM      7  C   UNL     1       3.171   6.515  -9.213  0.00  0.00    +0.061 C 
ATOM      8  C   UNL     1       1.595   6.959  -9.052  0.00  0.00    +0.062 C 
ATOM      9  C   UNL     1      -0.242   5.327  -8.665  0.00  0.00    +0.170 C 
ENDROOT
BRANCH   1  11
ATOM     10  C   UNL     1       0.183   7.071 -10.890  0.00  0.00    +0.061 C 
ATOM     11  C   UNL     1       0.654   5.721 -10.643  0.00  0.00    +0.058 C 
ATOM     12  C   UNL     1       0.529   4.668 -11.574  0.00  0.00    +0.061 C 
ENDBRANCH   1  11
BRANCH   4  13
ATOM     13  O   UNL     1       2.293   5.850  -5.587  0.00  0.00    -0.452 OA
BRANCH  13  14
ATOM     14  C   UNL     1       1.591   6.276  -4.474  0.00  0.00    +0.323 C 
ATOM     15  O   UNL     1       2.237   7.040  -3.711  0.00  0.00    -0.250 OA
BRANCH  14  16
ATOM     16  C   UNL     1       0.712   5.152  -3.723  0.00  0.00    +0.154 C 
BRANCH  16  17
ATOM     17  C   UNL     1      -0.709   5.794  -4.084  0.00  0.00    -0.009 A 
ATOM     18  C   UNL     1      -1.397   5.501  -5.177  0.00  0.00    -0.004 A 
ATOM     19  C   UNL     1      -2.315   6.430  -5.658  0.00  0.00    -0.000 A 
ATOM     20  C   UNL     1      -2.474   7.619  -4.954  0.00  0.00    -0.000 A 
ATOM     21  C   UNL     1      -2.013   7.695  -3.644  0.00  0.00    -0.000 A 
ATOM     22  C   UNL     1      -1.054   6.795  -3.224  0.00  0.00    -0.004 A 
ENDBRANCH  16  17
BRANCH  16  23
ATOM     23  C   UNL     1       0.790   5.900  -2.268  0.00  0.00    +0.198 C 
ATOM     24  O   UNL     1       1.212   4.988  -1.344  0.00  0.00    -0.219 OA
ENDBRANCH  16  23
ENDBRANCH  14  16
ENDBRANCH  13  14
ENDBRANCH   4  13
TORSDOF 6
ENDMDL
MODEL 9
REMARK VINA RESULT:      -7.0      4.776      7.303
REMARK  Name = 
REMARK  6 active torsions:
REMARK  status: ('A' for Active; 'I' for Inactive)
REMARK    1  A    between atoms: C_2  and  N_4
REMARK    2  A    between atoms: C_11  and  O_12
REMARK    3  A    between atoms: O_12  and  C_13
REMARK    4  A    between atoms: C_13  and  C_15
REMARK    5  A    between atoms: C_15  and  C_16
REMARK    6  A    between atoms: C_15  and  C_18
REMARK                            x       y       z     vdW  Elec       q    Type
REMARK                         _______ _______ _______ _____ _____    ______ ____
ROOT
ATOM      1  N   UNL     1      -1.650   6.859  -4.188  0.00  0.00    +0.289 N 
ATOM      2  C   UNL     1      -2.247   7.505  -2.934  0.00  0.00    +0.062 C 
ATOM      3  C   UNL     1      -1.439   6.691  -1.749  0.00  0.00    +0.099 C 
ATOM      4  C   UNL     1       0.035   6.525  -2.436  0.00  0.00    +0.180 C 
ATOM      5  C   UNL     1      -0.359   5.079  -3.065  0.00  0.00    +0.099 C 
ATOM      6  C   UNL     1      -3.526   6.472  -2.901  0.00  0.00    +0.061 C 
ATOM      7  C   UNL     1      -2.746   5.247  -2.788  0.00  0.00    +0.061 C 
ATOM      8  C   UNL     1      -1.667   5.328  -4.027  0.00  0.00    +0.062 C 
ATOM      9  C   UNL     1      -0.518   7.432  -4.692  0.00  0.00    +0.170 C 
ENDROOT
BRANCH   1  11
ATOM     10  C   UNL     1      -2.348   5.828  -6.190  0.00  0.00    +0.061 C 
ATOM     11  C   UNL     1      -2.586   6.926  -5.272  0.00  0.00    +0.058 C 
ATOM     12  C   UNL     1      -3.410   8.032  -5.574  0.00  0.00    +0.061 C 
ENDBRANCH   1  11
BRANCH   4  13
ATOM     13  O   UNL     1       0.620   5.872  -1.164  0.00  0.00    -0.452 OA
BRANCH  13  14
ATOM     14  C   UNL     1       1.896   5.351  -1.284  0.00  0.00    +0.323 C 
ATOM     15  O   UNL     1       2.127   4.364  -0.539  0.00  0.00    -0.250 OA
BRANCH  14  16
ATOM     16  C   UNL     1       3.092   6.429  -1.373  0.00  0.00    +0.154 C 
BRANCH  16  17
ATOM     17  C   UNL     1       3.452   6.140  -2.905  0.00  0.00    -0.009 A 
ATOM     18  C   UNL     1       3.952   4.995  -3.344  0.00  0.00    -0.004 A 
ATOM     19  C   UNL     1       4.688   4.996  -4.526  0.00  0.00    -0.000 A 
ATOM     20  C   UNL     1       4.849   6.205  -5.195  0.00  0.00    -0.000 A 
ATOM     21  C   UNL     1       4.002   7.265  -4.891  0.00  0.00    -0.000 A 
ATOM     22  C   UNL     1       3.339   7.258  -3.679  0.00  0.00    -0.004 A 
ENDBRANCH  16  17
BRANCH  16  23
ATOM     23  C   UNL     1       4.224   5.389  -0.809  0.00  0.00    +0.198 C 
ATOM     24  O   UNL     1       4.777   5.931   0.315  0.00  0.00    -0.219 OA
ENDBRANCH  16  23
ENDBRANCH  14  16
ENDBRANCH  13  14
ENDBRANCH   4  13
TORSDOF 6
ENDMDL
