MODEL 1
REMARK VINA RESULT:      -7.1      0.000      0.000
REMARK  Name = 
REMARK  16 active torsions:
REMARK  status: ('A' for Active; 'I' for Inactive)
REMARK    1  A    between atoms: C_2  and  C_3
REMARK    2  A    between atoms: C_5  and  C_6
REMARK    3  A    between atoms: C_6  and  C_8
REMARK    4  A    between atoms: C_8  and  N_9
REMARK    5  A    between atoms: N_9  and  C_10
REMARK    6  A    between atoms: C_10  and  C_11
REMARK    7  A    between atoms: C_11  and  C_12
REMARK    8  A    between atoms: C_12  and  C_13
REMARK    9  A    between atoms: C_13  and  C_14
REMARK   10  A    between atoms: C_14  and  C_15
REMARK   11  A    between atoms: C_15  and  O_16
REMARK   12  A    between atoms: O_16  and  C_17
REMARK   13  A    between atoms: C_17  and  C_18
REMARK   14  A    between atoms: C_18  and  C_19
REMARK   15  A    between atoms: C_19  and  C_20
REMARK   16  A    between atoms: C_20  and  C_21
REMARK                            x       y       z     vdW  Elec       q    Type
REMARK                         _______ _______ _______ _____ _____    ______ ____
ROOT
ATOM      1  C   UNL     1      -0.682   5.331  -5.885  0.00  0.00    +0.019 C 
ENDROOT
BRANCH   1   2
ATOM      2  C   UNL     1      -0.296   5.432  -7.355  0.00  0.00    +0.089 C 
BRANCH   2   3
ATOM      3  N   UNL     1       0.857   6.318  -7.402  0.00  0.00    -0.215 NA
BRANCH   3   4
ATOM      4  C   UNL     1       1.965   5.721  -8.111  0.00  0.00    +0.126 C 
BRANCH   4   5
ATOM      5  C   UNL     1       2.229   6.788  -9.392  0.00  0.00    +0.192 C 
ATOM      6  O   UNL     1       2.141   5.632 -10.426  0.00  0.00    -0.217 OA
BRANCH   5  12
ATOM      7  C   UNL     1       5.839   6.378 -10.516  0.00  0.00    +0.049 A 
ATOM      8  C   UNL     1       6.407   5.683  -9.454  0.00  0.00    +0.194 A 
ATOM      9  O   UNL     1       7.775   5.768  -9.166  0.00  0.00    -0.287 OA
ATOM     10  C   UNL     1       5.522   5.103  -8.552  0.00  0.00    +0.042 A 
ATOM     11  C   UNL     1       4.169   5.425  -8.541  0.00  0.00    +0.001 A 
ATOM     12  C   UNL     1       3.866   6.582  -9.254  0.00  0.00    +0.009 A 
ATOM     13  C   UNL     1       4.478   6.653 -10.505  0.00  0.00    -0.000 A 
BRANCH   7  15
ATOM     14  O   UNL     1       6.257   8.428 -11.488  0.00  0.00    -0.215 OA
ATOM     15  C   UNL     1       6.798   7.140 -11.377  0.00  0.00    +0.212 C 
ENDBRANCH   7  15
ENDBRANCH   5  12
ENDBRANCH   4   5
ENDBRANCH   3   4
ENDBRANCH   2   3
ENDBRANCH   1   2
BRANCH   1  16
ATOM     16  C   UNL     1      -1.030   6.678  -5.307  0.00  0.00    +0.002 C 
BRANCH  16  17
ATOM     17  C   UNL     1      -2.526   6.844  -5.103  0.00  0.00    +0.003 C 
BRANCH  17  18
ATOM     18  C   UNL     1      -2.747   6.819  -3.596  0.00  0.00    +0.032 C 
BRANCH  18  19
ATOM     19  C   UNL     1      -3.186   5.395  -3.276  0.00  0.00    +0.142 C 
BRANCH  19  20
ATOM     20  O   UNL     1      -2.162   4.852  -2.494  0.00  0.00    -0.354 OA
BRANCH  20  21
ATOM     21  C   UNL     1      -1.815   5.774  -1.520  0.00  0.00    +0.142 C 
BRANCH  21  22
ATOM     22  C   UNL     1      -0.388   5.550  -1.107  0.00  0.00    +0.032 C 
BRANCH  22  23
ATOM     23  C   UNL     1       0.454   5.179  -2.312  0.00  0.00    +0.007 C 
BRANCH  23  24
ATOM     24  C   UNL     1       1.897   5.556  -2.011  0.00  0.00    +0.026 C 
BRANCH  24  25
ATOM     25  C   UNL     1       2.647   5.584  -3.279  0.00  0.00    -0.022 A 
ATOM     26  C   UNL     1       3.819   4.875  -3.409  0.00  0.00    -0.004 A 
ATOM     27  C   UNL     1       4.720   5.177  -4.416  0.00  0.00    -0.000 A 
ATOM     28  C   UNL     1       4.608   6.382  -5.077  0.00  0.00    -0.000 A 
ATOM     29  C   UNL     1       3.456   7.142  -4.955  0.00  0.00    -0.000 A 
ATOM     30  C   UNL     1       2.446   6.641  -4.154  0.00  0.00    -0.004 A 
ENDBRANCH  24  25
ENDBRANCH  23  24
ENDBRANCH  22  23
ENDBRANCH  21  22
ENDBRANCH  20  21
ENDBRANCH  19  20
ENDBRANCH  18  19
ENDBRANCH  17  18
ENDBRANCH  16  17
ENDBRANCH   1  16
TORSDOF 16
ENDMDL
MODEL 2
REMARK VINA RESULT:      -7.0      1.523      3.858
REMARK  Name = 
REMARK  16 active torsions:
REMARK  status: ('A' for Active; 'I' for Inactive)
REMARK    1  A    between atoms: C_2  and  C_3
REMARK    2  A    between atoms: C_5  and  C_6
REMARK    3  A    between atoms: C_6  and  C_8
REMARK    4  A    between atoms: C_8  and  N_9
REMARK    5  A    between atoms: N_9  and  C_10
REMARK    6  A    between atoms: C_10  and  C_11
REMARK    7  A    between atoms: C_11  and  C_12
REMARK    8  A    between atoms: C_12  and  C_13
REMARK    9  A    between atoms: C_13  and  C_14
REMARK   10  A    between atoms: C_14  and  C_15
REMARK   11  A    between atoms: C_15  and  O_16
REMARK   12  A    between atoms: O_16  and  C_17
REMARK   13  A    between atoms: C_17  and  C_18
REMARK   14  A    between atoms: C_18  and  C_19
REMARK   15  A    between atoms: C_19  and  C_20
REMARK   16  A    between atoms: C_20  and  C_21
REMARK                            x       y       z     vdW  Elec       q    Type
REMARK                         _______ _______ _______ _____ _____    ______ ____
ROOT
ATOM      1  C   UNL     1       3.383   6.744  -4.737  0.00  0.00    +0.019 C 
ENDROOT
BRANCH   1   2
ATOM      2  C   UNL     1       3.574   6.801  -6.246  0.00  0.00    +0.089 C 
BRANCH   2   3
ATOM      3  N   UNL     1       3.871   5.438  -6.660  0.00  0.00    -0.215 NA
BRANCH   3   4
ATOM      4  C   UNL     1       4.862   5.400  -7.711  0.00  0.00    +0.126 C 
BRANCH   4   5
ATOM      5  C   UNL     1       4.049   6.054  -9.038  0.00  0.00    +0.192 C 
ATOM      6  O   UNL     1       3.751   4.638  -9.604  0.00  0.00    -0.217 OA
BRANCH   5  12
ATOM      7  C   UNL     1       6.486   5.427 -11.889  0.00  0.00    +0.049 A 
ATOM      8  C   UNL     1       7.721   5.547 -11.260  0.00  0.00    +0.194 A 
ATOM      9  O   UNL     1       8.872   5.921 -11.965  0.00  0.00    -0.287 OA
ATOM     10  C   UNL     1       7.711   5.521  -9.870  0.00  0.00    +0.042 A 
ATOM     11  C   UNL     1       6.534   5.651  -9.142  0.00  0.00    +0.001 A 
ATOM     12  C   UNL     1       5.464   6.133  -9.894  0.00  0.00    +0.009 A 
ATOM     13  C   UNL     1       5.323   5.517 -11.137  0.00  0.00    -0.000 A 
BRANCH   7  15
ATOM     14  O   UNL     1       6.151   6.975 -13.565  0.00  0.00    -0.215 OA
ATOM     15  C   UNL     1       6.493   5.630 -13.372  0.00  0.00    +0.212 C 
ENDBRANCH   7  15
ENDBRANCH   5  12
ENDBRANCH   4   5
ENDBRANCH   3   4
ENDBRANCH   2   3
ENDBRANCH   1   2
BRANCH   1  16
ATOM     16  C   UNL     1       3.186   5.332  -4.253  0.00  0.00    +0.002 C 
BRANCH  16  17
ATOM     17  C   UNL     1       2.958   5.267  -2.753  0.00  0.00    +0.003 C 
BRANCH  17  18
ATOM     18  C   UNL     1       1.635   5.981  -2.501  0.00  0.00    +0.032 C 
BRANCH  18  19
ATOM     19  C   UNL     1       0.888   5.106  -1.501  0.00  0.00    +0.142 C 
BRANCH  19  20
ATOM     20  O   UNL     1      -0.466   5.233  -1.828  0.00  0.00    -0.354 OA
BRANCH  20  21
ATOM     21  C   UNL     1      -1.113   5.877  -0.786  0.00  0.00    +0.142 C 
BRANCH  21  22
ATOM     22  C   UNL     1      -1.750   7.138  -1.298  0.00  0.00    +0.032 C 
BRANCH  22  23
ATOM     23  C   UNL     1      -2.424   6.880  -2.630  0.00  0.00    +0.007 C 
BRANCH  23  24
ATOM     24  C   UNL     1      -1.959   7.951  -3.606  0.00  0.00    +0.026 C 
BRANCH  24  25
ATOM     25  C   UNL     1      -1.693   7.313  -4.908  0.00  0.00    -0.022 A 
ATOM     26  C   UNL     1      -2.686   6.614  -5.555  0.00  0.00    -0.004 A 
ATOM     27  C   UNL     1      -2.375   5.706  -6.553  0.00  0.00    -0.000 A 
ATOM     28  C   UNL     1      -1.076   5.261  -6.675  0.00  0.00    -0.000 A 
ATOM     29  C   UNL     1      -0.047   5.918  -6.020  0.00  0.00    -0.000 A 
ATOM     30  C   UNL     1      -0.383   7.021  -5.256  0.00  0.00    -0.004 A 
ENDBRANCH  24  25
ENDBRANCH  23  24
ENDBRANCH  22  23
ENDBRANCH  21  22
ENDBRANCH  20  21
ENDBRANCH  19  20
ENDBRANCH  18  19
ENDBRANCH  17  18
ENDBRANCH  16  17
ENDBRANCH   1  16
TORSDOF 16
ENDMDL
MODEL 3
REMARK VINA RESULT:      -7.0      1.957      4.192
REMARK  Name = 
REMARK  16 active torsions:
REMARK  status: ('A' for Active; 'I' for Inactive)
REMARK    1  A    between atoms: C_2  and  C_3
REMARK    2  A    between atoms: C_5  and  C_6
REMARK    3  A    between atoms: C_6  and  C_8
REMARK    4  A    between atoms: C_8  and  N_9
REMARK    5  A    between atoms: N_9  and  C_10
REMARK    6  A    between atoms: C_10  and  C_11
REMARK    7  A    between atoms: C_11  and  C_12
REMARK    8  A    between atoms: C_12  and  C_13
REMARK    9  A    between atoms: C_13  and  C_14
REMARK   10  A    between atoms: C_14  and  C_15
REMARK   11  A    between atoms: C_15  and  O_16
REMARK   12  A    between atoms: O_16  and  C_17
REMARK   13  A    between atoms: C_17  and  C_18
REMARK   14  A    between atoms: C_18  and  C_19
REMARK   15  A    between atoms: C_19  and  C_20
REMARK   16  A    between atoms: C_20  and  C_21
REMARK                            x       y       z     vdW  Elec       q    Type
REMARK                         _______ _______ _______ _____ _____    ______ ____
ROOT
ATOM      1  C   UNL     1       4.551   5.738  -6.337  0.00  0.00    +0.019 C 
ENDROOT
BRANCH   1   2
ATOM      2  C   UNL     1       3.484   5.958  -7.401  0.00  0.00    +0.089 C 
BRANCH   2   3
ATOM      3  N   UNL     1       3.411   4.715  -8.154  0.00  0.00    -0.215 NA
BRANCH   3   4
ATOM      4  C   UNL     1       4.204   4.771  -9.360  0.00  0.00    +0.126 C 
BRANCH   4   5
ATOM      5  C   UNL     1       4.123   6.397  -9.805  0.00  0.00    +0.192 C 
ATOM      6  O   UNL     1       3.478   6.033 -11.171  0.00  0.00    -0.217 OA
BRANCH   5  12
ATOM      7  C   UNL     1       6.856   5.394 -12.251  0.00  0.00    +0.049 A 
ATOM      8  C   UNL     1       8.003   5.475 -11.470  0.00  0.00    +0.194 A 
ATOM      9  O   UNL     1       9.263   5.716 -12.034  0.00  0.00    -0.287 OA
ATOM     10  C   UNL     1       7.810   5.553 -10.094  0.00  0.00    +0.042 A 
ATOM     11  C   UNL     1       6.561   5.818  -9.544  0.00  0.00    +0.001 A 
ATOM     12  C   UNL     1       5.640   6.315 -10.463  0.00  0.00    +0.009 A 
ATOM     13  C   UNL     1       5.615   5.620 -11.671  0.00  0.00    -0.000 A 
BRANCH   7  15
ATOM     14  O   UNL     1       6.601   6.753 -14.097  0.00  0.00    -0.215 OA
ATOM     15  C   UNL     1       7.073   5.486 -13.730  0.00  0.00    +0.212 C 
ENDBRANCH   7  15
ENDBRANCH   5  12
ENDBRANCH   4   5
ENDBRANCH   3   4
ENDBRANCH   2   3
ENDBRANCH   1   2
BRANCH   1  16
ATOM     16  C   UNL     1       4.059   6.122  -4.967  0.00  0.00    +0.002 C 
BRANCH  16  17
ATOM     17  C   UNL     1       4.552   5.168  -3.893  0.00  0.00    +0.003 C 
BRANCH  17  18
ATOM     18  C   UNL     1       4.267   5.853  -2.562  0.00  0.00    +0.032 C 
BRANCH  18  19
ATOM     19  C   UNL     1       3.924   4.728  -1.594  0.00  0.00    +0.142 C 
BRANCH  19  20
ATOM     20  O   UNL     1       3.393   5.354  -0.462  0.00  0.00    -0.354 OA
BRANCH  20  21
ATOM     21  C   UNL     1       2.215   5.990  -0.821  0.00  0.00    +0.142 C 
BRANCH  21  22
ATOM     22  C   UNL     1       1.158   4.960  -1.102  0.00  0.00    +0.032 C 
BRANCH  22  23
ATOM     23  C   UNL     1       0.045   5.566  -1.934  0.00  0.00    +0.007 C 
BRANCH  23  24
ATOM     24  C   UNL     1       0.642   6.023  -3.257  0.00  0.00    +0.026 C 
BRANCH  24  25
ATOM     25  C   UNL     1      -0.194   5.499  -4.352  0.00  0.00    -0.022 A 
ATOM     26  C   UNL     1       0.358   5.242  -5.585  0.00  0.00    -0.004 A 
ATOM     27  C   UNL     1      -0.444   5.124  -6.708  0.00  0.00    -0.000 A 
ATOM     28  C   UNL     1      -1.743   5.583  -6.655  0.00  0.00    -0.000 A 
ATOM     29  C   UNL     1      -2.331   5.879  -5.437  0.00  0.00    -0.000 A 
ATOM     30  C   UNL     1      -1.566   5.693  -4.300  0.00  0.00    -0.004 A 
ENDBRANCH  24  25
ENDBRANCH  23  24
ENDBRANCH  22  23
ENDBRANCH  21  22
ENDBRANCH  20  21
ENDBRANCH  19  20
ENDBRANCH  18  19
ENDBRANCH  17  18
ENDBRANCH  16  17
ENDBRANCH   1  16
TORSDOF 16
ENDMDL
MODEL 4
REMARK VINA RESULT:      -6.9      2.399      8.007
REMARK  Name = 
REMARK  16 active torsions:
REMARK  status: ('A' for Active; 'I' for Inactive)
REMARK    1  A    between atoms: C_2  and  C_3
REMARK    2  A    between atoms: C_5  and  C_6
REMARK    3  A    between atoms: C_6  and  C_8
REMARK    4  A    between atoms: C_8  and  N_9
REMARK    5  A    between atoms: N_9  and  C_10
REMARK    6  A    between atoms: C_10  and  C_11
REMARK    7  A    between atoms: C_11  and  C_12
REMARK    8  A    between atoms: C_12  and  C_13
REMARK    9  A    between atoms: C_13  and  C_14
REMARK   10  A    between atoms: C_14  and  C_15
REMARK   11  A    between atoms: C_15  and  O_16
REMARK   12  A    between atoms: O_16  and  C_17
REMARK   13  A    between atoms: C_17  and  C_18
REMARK   14  A    between atoms: C_18  and  C_19
REMARK   15  A    between atoms: C_19  and  C_20
REMARK   16  A    between atoms: C_20  and  C_21
REMARK                            x       y       z     vdW  Elec       q    Type
REMARK                         _______ _______ _______ _____ _____    ______ ____
ROOT
ATOM      1  C   UNL     1       4.685   5.907  -5.633  0.00  0.00    +0.019 C 
ENDROOT
BRANCH   1   2
ATOM      2  C   UNL     1       4.127   4.921  -4.615  0.00  0.00    +0.089 C 
BRANCH   2   3
ATOM      3  N   UNL     1       4.297   5.553  -3.316  0.00  0.00    -0.215 NA
BRANCH   3   4
ATOM      4  C   UNL     1       3.344   5.059  -2.349  0.00  0.00    +0.126 C 
BRANCH   4   5
ATOM      5  C   UNL     1       2.706   6.468  -1.675  0.00  0.00    +0.192 C 
ATOM      6  O   UNL     1       2.814   5.879  -0.241  0.00  0.00    -0.217 OA
BRANCH   5  12
ATOM      7  C   UNL     1      -0.736   5.963  -3.212  0.00  0.00    +0.049 A 
ATOM      8  C   UNL     1      -1.506   5.605  -2.110  0.00  0.00    +0.194 A 
ATOM      9  O   UNL     1      -2.664   4.827  -2.244  0.00  0.00    -0.287 OA
ATOM     10  C   UNL     1      -0.946   5.843  -0.860  0.00  0.00    +0.042 A 
ATOM     11  C   UNL     1       0.401   6.153  -0.707  0.00  0.00    +0.001 A 
ATOM     12  C   UNL     1       1.169   5.876  -1.836  0.00  0.00    +0.009 A 
ATOM     13  C   UNL     1       0.596   6.310  -3.031  0.00  0.00    -0.000 A 
BRANCH   7  15
ATOM     14  O   UNL     1      -1.962   6.661  -5.036  0.00  0.00    -0.215 OA
ATOM     15  C   UNL     1      -1.276   5.543  -4.543  0.00  0.00    +0.212 C 
ENDBRANCH   7  15
ENDBRANCH   5  12
ENDBRANCH   4   5
ENDBRANCH   3   4
ENDBRANCH   2   3
ENDBRANCH   1   2
BRANCH   1  16
ATOM     16  C   UNL     1       3.616   6.828  -6.160  0.00  0.00    +0.002 C 
BRANCH  16  17
ATOM     17  C   UNL     1       2.220   6.275  -5.932  0.00  0.00    +0.003 C 
BRANCH  17  18
ATOM     18  C   UNL     1       1.288   7.134  -6.778  0.00  0.00    +0.032 C 
BRANCH  18  19
ATOM     19  C   UNL     1       1.649   6.817  -8.224  0.00  0.00    +0.142 C 
BRANCH  19  20
ATOM     20  O   UNL     1       0.864   5.714  -8.574  0.00  0.00    -0.354 OA
BRANCH  20  21
ATOM     21  C   UNL     1       1.605   4.891  -9.406  0.00  0.00    +0.142 C 
BRANCH  21  22
ATOM     22  C   UNL     1       2.535   4.051  -8.576  0.00  0.00    +0.032 C 
BRANCH  22  23
ATOM     23  C   UNL     1       3.955   4.177  -9.091  0.00  0.00    +0.007 C 
BRANCH  23  24
ATOM     24  C   UNL     1       3.959   5.211 -10.207  0.00  0.00    +0.026 C 
BRANCH  24  25
ATOM     25  C   UNL     1       5.126   6.093 -10.022  0.00  0.00    -0.022 A 
ATOM     26  C   UNL     1       5.367   7.121 -10.904  0.00  0.00    -0.004 A 
ATOM     27  C   UNL     1       6.620   7.704 -10.985  0.00  0.00    -0.000 A 
ATOM     28  C   UNL     1       7.700   7.052 -10.429  0.00  0.00    -0.000 A 
ATOM     29  C   UNL     1       7.506   5.995  -9.555  0.00  0.00    -0.000 A 
ATOM     30  C   UNL     1       6.200   5.635  -9.273  0.00  0.00    -0.004 A 
ENDBRANCH  24  25
ENDBRANCH  23  24
ENDBRANCH  22  23
ENDBRANCH  21  22
ENDBRANCH  20  21
ENDBRANCH  19  20
ENDBRANCH  18  19
ENDBRANCH  17  18
ENDBRANCH  16  17
ENDBRANCH   1  16
TORSDOF 16
ENDMDL
MODEL 5
REMARK VINA RESULT:      -6.8      1.725      3.757
REMARK  Name = 
REMARK  16 active torsions:
REMARK  status: ('A' for Active; 'I' for Inactive)
REMARK    1  A    between atoms: C_2  and  C_3
REMARK    2  A    between atoms: C_5  and  C_6
REMARK    3  A    between atoms: C_6  and  C_8
REMARK    4  A    between atoms: C_8  and  N_9
REMARK    5  A    between atoms: N_9  and  C_10
REMARK    6  A    between atoms: C_10  and  C_11
REMARK    7  A    between atoms: C_11  and  C_12
REMARK    8  A    between atoms: C_12  and  C_13
REMARK    9  A    between atoms: C_13  and  C_14
REMARK   10  A    between atoms: C_14  and  C_15
REMARK   11  A    between atoms: C_15  and  O_16
REMARK   12  A    between atoms: O_16  and  C_17
REMARK   13  A    between atoms: C_17  and  C_18
REMARK   14  A    between atoms: C_18  and  C_19
REMARK   15  A    between atoms: C_19  and  C_20
REMARK   16  A    between atoms: C_20  and  C_21
REMARK                            x       y       z     vdW  Elec       q    Type
REMARK                         _______ _______ _______ _____ _____    ______ ____
ROOT
ATOM      1  C   UNL     1       1.286   5.571  -7.009  0.00  0.00    +0.019 C 
ENDROOT
BRANCH   1   2
ATOM      2  C   UNL     1       2.036   4.567  -7.874  0.00  0.00    +0.089 C 
BRANCH   2   3
ATOM      3  N   UNL     1       3.446   4.898  -7.734  0.00  0.00    -0.215 NA
BRANCH   3   4
ATOM      4  C   UNL     1       4.135   4.861  -9.004  0.00  0.00    +0.126 C 
BRANCH   4   5
ATOM      5  C   UNL     1       4.019   6.451  -9.557  0.00  0.00    +0.192 C 
ATOM      6  O   UNL     1       3.322   5.988 -10.867  0.00  0.00    -0.217 OA
BRANCH   5  12
ATOM      7  C   UNL     1       6.629   5.419 -12.124  0.00  0.00    +0.049 A 
ATOM      8  C   UNL     1       7.805   5.440 -11.381  0.00  0.00    +0.194 A 
ATOM      9  O   UNL     1       9.052   5.653 -11.984  0.00  0.00    -0.287 OA
ATOM     10  C   UNL     1       7.662   5.489  -9.999  0.00  0.00    +0.042 A 
ATOM     11  C   UNL     1       6.443   5.782  -9.397  0.00  0.00    +0.001 A 
ATOM     12  C   UNL     1       5.508   6.334 -10.271  0.00  0.00    +0.009 A 
ATOM     13  C   UNL     1       5.418   5.672 -11.494  0.00  0.00    -0.000 A 
BRANCH   7  15
ATOM     14  O   UNL     1       6.730   6.915 -13.875  0.00  0.00    -0.215 OA
ATOM     15  C   UNL     1       6.798   5.542 -13.606  0.00  0.00    +0.212 C 
ENDBRANCH   7  15
ENDBRANCH   5  12
ENDBRANCH   4   5
ENDBRANCH   3   4
ENDBRANCH   2   3
ENDBRANCH   1   2
BRANCH   1  16
ATOM     16  C   UNL     1       1.358   5.212  -5.549  0.00  0.00    +0.002 C 
BRANCH  16  17
ATOM     17  C   UNL     1       2.069   6.277  -4.732  0.00  0.00    +0.003 C 
BRANCH  17  18
ATOM     18  C   UNL     1       1.324   6.352  -3.405  0.00  0.00    +0.032 C 
BRANCH  18  19
ATOM     19  C   UNL     1       0.614   5.011  -3.265  0.00  0.00    +0.142 C 
BRANCH  19  20
ATOM     20  O   UNL     1       0.337   4.873  -1.900  0.00  0.00    -0.354 OA
BRANCH  20  21
ATOM     21  C   UNL     1       0.596   6.081  -1.273  0.00  0.00    +0.142 C 
BRANCH  21  22
ATOM     22  C   UNL     1      -0.344   6.253  -0.114  0.00  0.00    +0.032 C 
BRANCH  22  23
ATOM     23  C   UNL     1      -1.778   6.281  -0.603  0.00  0.00    +0.007 C 
BRANCH  23  24
ATOM     24  C   UNL     1      -1.953   7.514  -1.476  0.00  0.00    +0.026 C 
BRANCH  24  25
ATOM     25  C   UNL     1      -2.454   7.086  -2.795  0.00  0.00    -0.022 A 
ATOM     26  C   UNL     1      -2.919   5.805  -2.979  0.00  0.00    -0.004 A 
ATOM     27  C   UNL     1      -3.029   5.269  -4.251  0.00  0.00    -0.000 A 
ATOM     28  C   UNL     1      -2.374   5.883  -5.297  0.00  0.00    -0.000 A 
ATOM     29  C   UNL     1      -1.867   7.164  -5.149  0.00  0.00    -0.000 A 
ATOM     30  C   UNL     1      -2.048   7.782  -3.924  0.00  0.00    -0.004 A 
ENDBRANCH  24  25
ENDBRANCH  23  24
ENDBRANCH  22  23
ENDBRANCH  21  22
ENDBRANCH  20  21
ENDBRANCH  19  20
ENDBRANCH  18  19
ENDBRANCH  17  18
ENDBRANCH  16  17
ENDBRANCH   1  16
TORSDOF 16
ENDMDL
MODEL 6
REMARK VINA RESULT:      -6.8      1.913      2.656
REMARK  Name = 
REMARK  16 active torsions:
REMARK  status: ('A' for Active; 'I' for Inactive)
REMARK    1  A    between atoms: C_2  and  C_3
REMARK    2  A    between atoms: C_5  and  C_6
REMARK    3  A    between atoms: C_6  and  C_8
REMARK    4  A    between atoms: C_8  and  N_9
REMARK    5  A    between atoms: N_9  and  C_10
REMARK    6  A    between atoms: C_10  and  C_11
REMARK    7  A    between atoms: C_11  and  C_12
REMARK    8  A    between atoms: C_12  and  C_13
REMARK    9  A    between atoms: C_13  and  C_14
REMARK   10  A    between atoms: C_14  and  C_15
REMARK   11  A    between atoms: C_15  and  O_16
REMARK   12  A    between atoms: O_16  and  C_17
REMARK   13  A    between atoms: C_17  and  C_18
REMARK   14  A    between atoms: C_18  and  C_19
REMARK   15  A    between atoms: C_19  and  C_20
REMARK   16  A    between atoms: C_20  and  C_21
REMARK                            x       y       z     vdW  Elec       q    Type
REMARK                         _______ _______ _______ _____ _____    ______ ____
ROOT
ATOM      1  C   UNL     1       1.416   4.922  -7.638  0.00  0.00    +0.019 C 
ENDROOT
BRANCH   1   2
ATOM      2  C   UNL     1       2.491   3.863  -7.840  0.00  0.00    +0.089 C 
BRANCH   2   3
ATOM      3  N   UNL     1       3.152   4.201  -9.090  0.00  0.00    -0.215 NA
BRANCH   3   4
ATOM      4  C   UNL     1       4.439   4.819  -8.868  0.00  0.00    +0.126 C 
BRANCH   4   5
ATOM      5  C   UNL     1       4.240   6.371  -9.502  0.00  0.00    +0.192 C 
ATOM      6  O   UNL     1       3.572   5.804 -10.786  0.00  0.00    -0.217 OA
BRANCH   5  12
ATOM      7  C   UNL     1       6.891   5.412 -12.055  0.00  0.00    +0.049 A 
ATOM      8  C   UNL     1       8.062   5.470 -11.307  0.00  0.00    +0.194 A 
ATOM      9  O   UNL     1       9.305   5.718 -11.904  0.00  0.00    -0.287 OA
ATOM     10  C   UNL     1       7.911   5.517  -9.925  0.00  0.00    +0.042 A 
ATOM     11  C   UNL     1       6.681   5.775  -9.330  0.00  0.00    +0.001 A 
ATOM     12  C   UNL     1       5.735   6.297 -10.209  0.00  0.00    +0.009 A 
ATOM     13  C   UNL     1       5.670   5.630 -11.431  0.00  0.00    -0.000 A 
BRANCH   7  15
ATOM     14  O   UNL     1       5.836   5.145 -14.088  0.00  0.00    -0.215 OA
ATOM     15  C   UNL     1       7.063   5.537 -13.536  0.00  0.00    +0.212 C 
ENDBRANCH   7  15
ENDBRANCH   5  12
ENDBRANCH   4   5
ENDBRANCH   3   4
ENDBRANCH   2   3
ENDBRANCH   1   2
BRANCH   1  16
ATOM     16  C   UNL     1       0.702   4.749  -6.324  0.00  0.00    +0.002 C 
BRANCH  16  17
ATOM     17  C   UNL     1      -0.148   5.957  -5.971  0.00  0.00    +0.003 C 
BRANCH  17  18
ATOM     18  C   UNL     1       0.549   6.629  -4.795  0.00  0.00    +0.032 C 
BRANCH  18  19
ATOM     19  C   UNL     1      -0.125   6.065  -3.550  0.00  0.00    +0.142 C 
BRANCH  19  20
ATOM     20  O   UNL     1       0.871   5.351  -2.874  0.00  0.00    -0.354 OA
BRANCH  20  21
ATOM     21  C   UNL     1       0.542   5.301  -1.530  0.00  0.00    +0.142 C 
BRANCH  21  22
ATOM     22  C   UNL     1       1.768   5.576  -0.706  0.00  0.00    +0.032 C 
BRANCH  22  23
ATOM     23  C   UNL     1       2.968   4.866  -1.301  0.00  0.00    +0.007 C 
BRANCH  23  24
ATOM     24  C   UNL     1       4.129   5.849  -1.326  0.00  0.00    +0.026 C 
BRANCH  24  25
ATOM     25  C   UNL     1       4.507   6.089  -2.730  0.00  0.00    -0.022 A 
ATOM     26  C   UNL     1       4.360   7.339  -3.286  0.00  0.00    -0.004 A 
ATOM     27  C   UNL     1       4.338   7.504  -4.660  0.00  0.00    -0.000 A 
ATOM     28  C   UNL     1       4.134   6.402  -5.465  0.00  0.00    -0.000 A 
ATOM     29  C   UNL     1       4.247   5.125  -4.942  0.00  0.00    -0.000 A 
ATOM     30  C   UNL     1       4.569   5.012  -3.602  0.00  0.00    -0.004 A 
ENDBRANCH  24  25
ENDBRANCH  23  24
ENDBRANCH  22  23
ENDBRANCH  21  22
ENDBRANCH  20  21
ENDBRANCH  19  20
ENDBRANCH  18  19
ENDBRANCH  17  18
ENDBRANCH  16  17
ENDBRANCH   1  16
TORSDOF 16
ENDMDL
MODEL 7
REMARK VINA RESULT:      -6.8      2.626      6.627
REMARK  Name = 
REMARK  16 active torsions:
REMARK  status: ('A' for Active; 'I' for Inactive)
REMARK    1  A    between atoms: C_2  and  C_3
REMARK    2  A    between atoms: C_5  and  C_6
REMARK    3  A    between atoms: C_6  and  C_8
REMARK    4  A    between atoms: C_8  and  N_9
REMARK    5  A    between atoms: N_9  and  C_10
REMARK    6  A    between atoms: C_10  and  C_11
REMARK    7  A    between atoms: C_11  and  C_12
REMARK    8  A    between atoms: C_12  and  C_13
REMARK    9  A    between atoms: C_13  and  C_14
REMARK   10  A    between atoms: C_14  and  C_15
REMARK   11  A    between atoms: C_15  and  O_16
REMARK   12  A    between atoms: O_16  and  C_17
REMARK   13  A    between atoms: C_17  and  C_18
REMARK   14  A    between atoms: C_18  and  C_19
REMARK   15  A    between atoms: C_19  and  C_20
REMARK   16  A    between atoms: C_20  and  C_21
REMARK                            x       y       z     vdW  Elec       q    Type
REMARK                         _______ _______ _______ _____ _____    ______ ____
ROOT
ATOM      1  C   UNL     1      -1.866   5.498  -3.418  0.00  0.00    +0.019 C 
ENDROOT
BRANCH   1   2
ATOM      2  C   UNL     1      -2.389   5.532  -1.988  0.00  0.00    +0.089 C 
BRANCH   2   3
ATOM      3  N   UNL     1      -1.214   5.452  -1.134  0.00  0.00    -0.215 NA
BRANCH   3   4
ATOM      4  C   UNL     1      -0.034   5.960  -1.795  0.00  0.00    +0.126 C 
BRANCH   4   5
ATOM      5  C   UNL     1       1.230   5.186  -0.985  0.00  0.00    +0.192 C 
ATOM      6  O   UNL     1       1.287   6.313   0.084  0.00  0.00    -0.217 OA
BRANCH   5  12
ATOM      7  C   UNL     1       4.404   5.696  -3.017  0.00  0.00    +0.049 A 
ATOM      8  C   UNL     1       4.602   7.069  -2.924  0.00  0.00    +0.194 A 
ATOM      9  O   UNL     1       5.302   7.780  -3.908  0.00  0.00    -0.287 OA
ATOM     10  C   UNL     1       3.870   7.735  -1.947  0.00  0.00    +0.042 A 
ATOM     11  C   UNL     1       2.802   7.131  -1.292  0.00  0.00    +0.001 A 
ATOM     12  C   UNL     1       2.343   5.976  -1.922  0.00  0.00    +0.009 A 
ATOM     13  C   UNL     1       3.357   5.107  -2.321  0.00  0.00    -0.000 A 
BRANCH   7  15
ATOM     14  O   UNL     1       4.040   4.801  -5.111  0.00  0.00    -0.215 OA
ATOM     15  C   UNL     1       5.064   5.025  -4.181  0.00  0.00    +0.212 C 
ENDBRANCH   7  15
ENDBRANCH   5  12
ENDBRANCH   4   5
ENDBRANCH   3   4
ENDBRANCH   2   3
ENDBRANCH   1   2
BRANCH   1  16
ATOM     16  C   UNL     1      -2.663   6.400  -4.324  0.00  0.00    +0.002 C 
BRANCH  16  17
ATOM     17  C   UNL     1      -1.914   6.732  -5.603  0.00  0.00    +0.003 C 
BRANCH  17  18
ATOM     18  C   UNL     1      -1.910   5.451  -6.429  0.00  0.00    +0.032 C 
BRANCH  18  19
ATOM     19  C   UNL     1      -0.625   5.502  -7.246  0.00  0.00    +0.142 C 
BRANCH  19  20
ATOM     20  O   UNL     1       0.229   6.365  -6.550  0.00  0.00    -0.354 OA
BRANCH  20  21
ATOM     21  C   UNL     1       1.530   6.119  -6.954  0.00  0.00    +0.142 C 
BRANCH  21  22
ATOM     22  C   UNL     1       2.105   7.364  -7.569  0.00  0.00    +0.032 C 
BRANCH  22  23
ATOM     23  C   UNL     1       2.807   7.029  -8.870  0.00  0.00    +0.007 C 
BRANCH  23  24
ATOM     24  C   UNL     1       3.787   5.898  -8.598  0.00  0.00    +0.026 C 
BRANCH  24  25
ATOM     25  C   UNL     1       4.918   6.024  -9.534  0.00  0.00    -0.022 A 
ATOM     26  C   UNL     1       6.179   5.622  -9.159  0.00  0.00    -0.004 A 
ATOM     27  C   UNL     1       7.297   6.070  -9.843  0.00  0.00    -0.000 A 
ATOM     28  C   UNL     1       7.179   7.160 -10.679  0.00  0.00    -0.000 A 
ATOM     29  C   UNL     1       5.929   7.615 -11.064  0.00  0.00    -0.000 A 
ATOM     30  C   UNL     1       4.827   6.934 -10.577  0.00  0.00    -0.004 A 
ENDBRANCH  24  25
ENDBRANCH  23  24
ENDBRANCH  22  23
ENDBRANCH  21  22
ENDBRANCH  20  21
ENDBRANCH  19  20
ENDBRANCH  18  19
ENDBRANCH  17  18
ENDBRANCH  16  17
ENDBRANCH   1  16
TORSDOF 16
ENDMDL
MODEL 8
REMARK VINA RESULT:      -6.7      2.759      5.057
REMARK  Name = 
REMARK  16 active torsions:
REMARK  status: ('A' for Active; 'I' for Inactive)
REMARK    1  A    between atoms: C_2  and  C_3
REMARK    2  A    between atoms: C_5  and  C_6
REMARK    3  A    between atoms: C_6  and  C_8
REMARK    4  A    between atoms: C_8  and  N_9
REMARK    5  A    between atoms: N_9  and  C_10
REMARK    6  A    between atoms: C_10  and  C_11
REMARK    7  A    between atoms: C_11  and  C_12
REMARK    8  A    between atoms: C_12  and  C_13
REMARK    9  A    between atoms: C_13  and  C_14
REMARK   10  A    between atoms: C_14  and  C_15
REMARK   11  A    between atoms: C_15  and  O_16
REMARK   12  A    between atoms: O_16  and  C_17
REMARK   13  A    between atoms: C_17  and  C_18
REMARK   14  A    between atoms: C_18  and  C_19
REMARK   15  A    between atoms: C_19  and  C_20
REMARK   16  A    between atoms: C_20  and  C_21
REMARK                            x       y       z     vdW  Elec       q    Type
REMARK                         _______ _______ _______ _____ _____    ______ ____
ROOT
ATOM      1  C   UNL     1       0.434   6.675 -11.950  0.00  0.00    +0.019 C 
ENDROOT
BRANCH   1   2
ATOM      2  C   UNL     1       0.641   5.434 -12.809  0.00  0.00    +0.089 C 
BRANCH   2   3
ATOM      3  N   UNL     1       1.886   5.654 -13.530  0.00  0.00    -0.215 NA
BRANCH   3   4
ATOM      4  C   UNL     1       3.006   5.811 -12.631  0.00  0.00    +0.126 C 
BRANCH   4   5
ATOM      5  C   UNL     1       4.333   5.896 -13.672  0.00  0.00    +0.192 C 
ATOM      6  O   UNL     1       4.560   4.362 -13.571  0.00  0.00    -0.217 OA
BRANCH   5  12
ATOM      7  C   UNL     1       7.393   5.484 -11.452  0.00  0.00    +0.049 A 
ATOM      8  C   UNL     1       6.919   5.891 -10.209  0.00  0.00    +0.194 A 
ATOM      9  O   UNL     1       7.776   6.411  -9.229  0.00  0.00    -0.287 OA
ATOM     10  C   UNL     1       5.538   5.990 -10.076  0.00  0.00    +0.042 A 
ATOM     11  C   UNL     1       4.692   5.961 -11.179  0.00  0.00    +0.001 A 
ATOM     12  C   UNL     1       5.348   6.162 -12.391  0.00  0.00    +0.009 A 
ATOM     13  C   UNL     1       6.520   5.422 -12.530  0.00  0.00    -0.000 A 
BRANCH   7  15
ATOM     14  O   UNL     1       9.075   6.148 -12.883  0.00  0.00    -0.215 OA
ATOM     15  C   UNL     1       8.878   5.551 -11.631  0.00  0.00    +0.212 C 
ENDBRANCH   7  15
ENDBRANCH   5  12
ENDBRANCH   4   5
ENDBRANCH   3   4
ENDBRANCH   2   3
ENDBRANCH   1   2
BRANCH   1  16
ATOM     16  C   UNL     1      -0.038   6.320 -10.565  0.00  0.00    +0.002 C 
BRANCH  16  17
ATOM     17  C   UNL     1       1.056   6.495  -9.525  0.00  0.00    +0.003 C 
BRANCH  17  18
ATOM     18  C   UNL     1       1.039   5.225  -8.683  0.00  0.00    +0.032 C 
BRANCH  18  19
ATOM     19  C   UNL     1       2.201   4.385  -9.198  0.00  0.00    +0.142 C 
BRANCH  19  20
ATOM     20  O   UNL     1       3.051   4.209  -8.101  0.00  0.00    -0.354 OA
BRANCH  20  21
ATOM     21  C   UNL     1       2.277   4.007  -6.970  0.00  0.00    +0.142 C 
BRANCH  21  22
ATOM     22  C   UNL     1       2.951   4.640  -5.785  0.00  0.00    +0.032 C 
BRANCH  22  23
ATOM     23  C   UNL     1       1.987   5.562  -5.066  0.00  0.00    +0.007 C 
BRANCH  23  24
ATOM     24  C   UNL     1       0.605   4.928  -5.116  0.00  0.00    +0.026 C 
BRANCH  24  25
ATOM     25  C   UNL     1      -0.380   5.979  -5.429  0.00  0.00    -0.022 A 
ATOM     26  C   UNL     1      -0.445   7.120  -4.664  0.00  0.00    -0.004 A 
ATOM     27  C   UNL     1      -1.573   7.922  -4.686  0.00  0.00    -0.000 A 
ATOM     28  C   UNL     1      -2.745   7.418  -5.209  0.00  0.00    -0.000 A 
ATOM     29  C   UNL     1      -2.731   6.257  -5.965  0.00  0.00    -0.000 A 
ATOM     30  C   UNL     1      -1.508   5.643  -6.164  0.00  0.00    -0.004 A 
ENDBRANCH  24  25
ENDBRANCH  23  24
ENDBRANCH  22  23
ENDBRANCH  21  22
ENDBRANCH  20  21
ENDBRANCH  19  20
ENDBRANCH  18  19
ENDBRANCH  17  18
ENDBRANCH  16  17
ENDBRANCH   1  16
TORSDOF 16
ENDMDL
MODEL 9
REMARK VINA RESULT:      -6.7      2.773      9.350
REMARK  Name = 
REMARK  16 active torsions:
REMARK  status: ('A' for Active; 'I' for Inactive)
REMARK    1  A    between atoms: C_2  and  C_3
REMARK    2  A    between atoms: C_5  and  C_6
REMARK    3  A    between atoms: C_6  and  C_8
REMARK    4  A    between atoms: C_8  and  N_9
REMARK    5  A    between atoms: N_9  and  C_10
REMARK    6  A    between atoms: C_10  and  C_11
REMARK    7  A    between atoms: C_11  and  C_12
REMARK    8  A    between atoms: C_12  and  C_13
REMARK    9  A    between atoms: C_13  and  C_14
REMARK   10  A    between atoms: C_14  and  C_15
REMARK   11  A    between atoms: C_15  and  O_16
REMARK   12  A    between atoms: O_16  and  C_17
REMARK   13  A    between atoms: C_17  and  C_18
REMARK   14  A    between atoms: C_18  and  C_19
REMARK   15  A    between atoms: C_19  and  C_20
REMARK   16  A    between atoms: C_20  and  C_21
REMARK                            x       y       z     vdW  Elec       q    Type
REMARK                         _______ _______ _______ _____ _____    ______ ____
ROOT
ATOM      1  C   UNL     1       5.731   5.751  -9.365  0.00  0.00    +0.019 C 
ENDROOT
BRANCH   1   2
ATOM      2  C   UNL     1       5.213   5.110  -8.084  0.00  0.00    +0.089 C 
BRANCH   2   3
ATOM      3  N   UNL     1       3.811   4.810  -8.329  0.00  0.00    -0.215 NA
BRANCH   3   4
ATOM      4  C   UNL     1       2.967   5.272  -7.251  0.00  0.00    +0.126 C 
BRANCH   4   5
ATOM      5  C   UNL     1       2.123   6.560  -7.941  0.00  0.00    +0.192 C 
ATOM      6  O   UNL     1       2.836   7.579  -7.009  0.00  0.00    -0.217 OA
BRANCH   5  12
ATOM      7  C   UNL     1       0.379   5.419  -4.760  0.00  0.00    +0.049 A 
ATOM      8  C   UNL     1      -0.954   5.367  -5.151  0.00  0.00    +0.194 A 
ATOM      9  O   UNL     1      -1.999   5.518  -4.229  0.00  0.00    -0.287 OA
ATOM     10  C   UNL     1      -1.199   5.405  -6.520  0.00  0.00    +0.042 A 
ATOM     11  C   UNL     1      -0.210   5.757  -7.432  0.00  0.00    +0.001 A 
ATOM     12  C   UNL     1       0.895   6.371  -6.847  0.00  0.00    +0.009 A 
ATOM     13  C   UNL     1       1.355   5.731  -5.697  0.00  0.00    -0.000 A 
BRANCH   7  15
ATOM     14  O   UNL     1       1.576   6.564  -3.156  0.00  0.00    -0.215 OA
ATOM     15  C   UNL     1       0.616   5.553  -3.288  0.00  0.00    +0.212 C 
ENDBRANCH   7  15
ENDBRANCH   5  12
ENDBRANCH   4   5
ENDBRANCH   3   4
ENDBRANCH   2   3
ENDBRANCH   1   2
BRANCH   1  16
ATOM     16  C   UNL     1       7.232   5.675  -9.458  0.00  0.00    +0.002 C 
BRANCH  16  17
ATOM     17  C   UNL     1       7.785   6.592 -10.536  0.00  0.00    +0.003 C 
BRANCH  17  18
ATOM     18  C   UNL     1       6.832   6.468 -11.718  0.00  0.00    +0.032 C 
BRANCH  18  19
ATOM     19  C   UNL     1       7.473   5.445 -12.648  0.00  0.00    +0.142 C 
BRANCH  19  20
ATOM     20  O   UNL     1       6.433   4.960 -13.448  0.00  0.00    -0.354 OA
BRANCH  20  21
ATOM     21  C   UNL     1       5.230   5.407 -12.927  0.00  0.00    +0.142 C 
BRANCH  21  22
ATOM     22  C   UNL     1       4.293   5.742 -14.052  0.00  0.00    +0.032 C 
BRANCH  22  23
ATOM     23  C   UNL     1       2.949   5.077 -13.829  0.00  0.00    +0.007 C 
BRANCH  23  24
ATOM     24  C   UNL     1       1.874   5.986 -14.405  0.00  0.00    +0.026 C 
BRANCH  24  25
ATOM     25  C   UNL     1       0.796   6.125 -13.409  0.00  0.00    -0.022 A 
ATOM     26  C   UNL     1       0.349   7.372 -13.039  0.00  0.00    -0.004 A 
ATOM     27  C   UNL     1      -0.363   7.548 -11.864  0.00  0.00    -0.000 A 
ATOM     28  C   UNL     1      -0.341   6.552 -10.911  0.00  0.00    -0.000 A 
ATOM     29  C   UNL     1       0.125   5.288 -11.232  0.00  0.00    -0.000 A 
ATOM     30  C   UNL     1       0.558   5.080 -12.529  0.00  0.00    -0.004 A 
ENDBRANCH  24  25
ENDBRANCH  23  24
ENDBRANCH  22  23
ENDBRANCH  21  22
ENDBRANCH  20  21
ENDBRANCH  19  20
ENDBRANCH  18  19
ENDBRANCH  17  18
ENDBRANCH  16  17
ENDBRANCH   1  16
TORSDOF 16
ENDMDL
