MODEL 1
REMARK VINA RESULT:      -5.0      0.000      0.000
REMARK  Name = 
REMARK  1 active torsions:
REMARK  status: ('A' for Active; 'I' for Inactive)
REMARK    1  A    between atoms: C_2  and  C_4
REMARK                            x       y       z     vdW  Elec       q    Type
REMARK                         _______ _______ _______ _____ _____    ______ ____
ROOT
ATOM      1  C   UNL     1       7.506   6.373 -11.196  0.00  0.00    +0.099 A 
ATOM      2  C   UNL     1       6.610   7.380 -11.513  0.00  0.00    +0.105 A 
ATOM      3  N   UNL     1       5.381   7.409 -10.937  0.00  0.00    -0.242 NA
ATOM      4  C   UNL     1       4.987   6.460 -10.053  0.00  0.00    +0.099 A 
ATOM      5  C   UNL     1       6.014   5.783  -9.408  0.00  0.00    +0.021 A 
ATOM      6  C   UNL     1       7.266   5.701 -10.004  0.00  0.00    +0.010 A 
ENDROOT
BRANCH   1   8
ATOM      7  O   UNL     1       7.904   4.680 -12.770  0.00  0.00    -0.240 OA
ATOM      8  C   UNL     1       8.354   5.721 -12.201  0.00  0.00    +0.389 C 
ATOM      9  O   UNL     1       9.716   5.936 -12.296  0.00  0.00    -0.240 OA
ENDBRANCH   1   8
TORSDOF 1
ENDMDL
MODEL 2
REMARK VINA RESULT:      -4.8     10.301     11.345
REMARK  Name = 
REMARK  1 active torsions:
REMARK  status: ('A' for Active; 'I' for Inactive)
REMARK    1  A    between atoms: C_2  and  C_4
REMARK                            x       y       z     vdW  Elec       q    Type
REMARK                         _______ _______ _______ _____ _____    ______ ____
ROOT
ATOM      1  C   UNL     1      -1.336   5.802  -4.190  0.00  0.00    +0.099 A 
ATOM      2  C   UNL     1      -0.138   5.554  -4.839  0.00  0.00    +0.105 A 
ATOM      3  N   UNL     1      -0.128   5.246  -6.161  0.00  0.00    -0.242 NA
ATOM      4  C   UNL     1      -1.273   5.159  -6.880  0.00  0.00    +0.099 A 
ATOM      5  C   UNL     1      -2.356   5.858  -6.363  0.00  0.00    +0.021 A 
ATOM      6  C   UNL     1      -2.409   6.142  -5.004  0.00  0.00    +0.010 A 
ENDROOT
BRANCH   1   8
ATOM      7  O   UNL     1      -0.636   4.994  -2.102  0.00  0.00    -0.240 OA
ATOM      8  C   UNL     1      -1.621   5.310  -2.836  0.00  0.00    +0.389 C 
ATOM      9  O   UNL     1      -2.857   4.825  -2.453  0.00  0.00    -0.240 OA
ENDBRANCH   1   8
TORSDOF 1
ENDMDL
MODEL 3
REMARK VINA RESULT:      -4.6      1.537      1.964
REMARK  Name = 
REMARK  1 active torsions:
REMARK  status: ('A' for Active; 'I' for Inactive)
REMARK    1  A    between atoms: C_2  and  C_4
REMARK                            x       y       z     vdW  Elec       q    Type
REMARK                         _______ _______ _______ _____ _____    ______ ____
ROOT
ATOM      1  C   UNL     1       6.214   5.804 -11.515  0.00  0.00    +0.099 A 
ATOM      2  C   UNL     1       4.947   5.711 -10.964  0.00  0.00    +0.105 A 
ATOM      3  N   UNL     1       4.794   5.464  -9.638  0.00  0.00    -0.242 NA
ATOM      4  C   UNL     1       5.859   5.290  -8.819  0.00  0.00    +0.099 A 
ATOM      5  C   UNL     1       7.051   5.850  -9.264  0.00  0.00    +0.021 A 
ATOM      6  C   UNL     1       7.246   6.066 -10.622  0.00  0.00    +0.010 A 
ENDROOT
BRANCH   1   8
ATOM      7  O   UNL     1       5.602   4.868 -13.577  0.00  0.00    -0.240 OA
ATOM      8  C   UNL     1       6.556   5.226 -12.820  0.00  0.00    +0.389 C 
ATOM      9  O   UNL     1       7.804   4.712 -13.116  0.00  0.00    -0.240 OA
ENDBRANCH   1   8
TORSDOF 1
ENDMDL
MODEL 4
REMARK VINA RESULT:      -4.5      1.162      1.178
REMARK  Name = 
REMARK  1 active torsions:
REMARK  status: ('A' for Active; 'I' for Inactive)
REMARK    1  A    between atoms: C_2  and  C_4
REMARK                            x       y       z     vdW  Elec       q    Type
REMARK                         _______ _______ _______ _____ _____    ______ ____
ROOT
ATOM      1  C   UNL     1       6.769   6.129 -11.706  0.00  0.00    +0.099 A 
ATOM      2  C   UNL     1       5.419   5.929 -11.937  0.00  0.00    +0.105 A 
ATOM      3  N   UNL     1       4.605   5.522 -10.930  0.00  0.00    -0.242 NA
ATOM      4  C   UNL     1       5.080   5.286  -9.683  0.00  0.00    +0.099 A 
ATOM      5  C   UNL     1       6.268   5.933  -9.365  0.00  0.00    +0.021 A 
ATOM      6  C   UNL     1       7.137   6.315 -10.379  0.00  0.00    +0.010 A 
ENDROOT
BRANCH   1   8
ATOM      7  O   UNL     1       7.506   4.832 -13.516  0.00  0.00    -0.240 OA
ATOM      8  C   UNL     1       7.806   5.721 -12.662  0.00  0.00    +0.389 C 
ATOM      9  O   UNL     1       9.153   5.955 -12.463  0.00  0.00    -0.240 OA
ENDBRANCH   1   8
TORSDOF 1
ENDMDL
MODEL 5
REMARK VINA RESULT:      -4.4      2.680      3.706
REMARK  Name = 
REMARK  1 active torsions:
REMARK  status: ('A' for Active; 'I' for Inactive)
REMARK    1  A    between atoms: C_2  and  C_4
REMARK                            x       y       z     vdW  Elec       q    Type
REMARK                         _______ _______ _______ _____ _____    ______ ____
ROOT
ATOM      1  C   UNL     1       6.996   6.257 -11.421  0.00  0.00    +0.099 A 
ATOM      2  C   UNL     1       7.722   5.196 -11.934  0.00  0.00    +0.105 A 
ATOM      3  N   UNL     1       7.645   4.889 -13.254  0.00  0.00    -0.242 NA
ATOM      4  C   UNL     1       6.855   5.592 -14.102  0.00  0.00    +0.099 A 
ATOM      5  C   UNL     1       6.541   6.882 -13.695  0.00  0.00    +0.021 A 
ATOM      6  C   UNL     1       6.568   7.203 -12.343  0.00  0.00    +0.010 A 
ENDROOT
BRANCH   1   8
ATOM      7  O   UNL     1       6.857   5.519  -9.198  0.00  0.00    -0.240 OA
ATOM      8  C   UNL     1       6.311   6.195 -10.123  0.00  0.00    +0.389 C 
ATOM      9  O   UNL     1       4.973   6.499  -9.958  0.00  0.00    -0.240 OA
ENDBRANCH   1   8
TORSDOF 1
ENDMDL
MODEL 6
REMARK VINA RESULT:      -4.3      3.079      3.681
REMARK  Name = 
REMARK  1 active torsions:
REMARK  status: ('A' for Active; 'I' for Inactive)
REMARK    1  A    between atoms: C_2  and  C_4
REMARK                            x       y       z     vdW  Elec       q    Type
REMARK                         _______ _______ _______ _____ _____    ______ ____
ROOT
ATOM      1  C   UNL     1       5.672   5.570  -9.861  0.00  0.00    +0.099 A 
ATOM      2  C   UNL     1       5.057   6.238 -10.906  0.00  0.00    +0.105 A 
ATOM      3  N   UNL     1       5.635   7.342 -11.446  0.00  0.00    -0.242 NA
ATOM      4  C   UNL     1       6.810   7.829 -10.981  0.00  0.00    +0.099 A 
ATOM      5  C   UNL     1       7.611   6.915 -10.308  0.00  0.00    +0.021 A 
ATOM      6  C   UNL     1       7.033   5.804  -9.708  0.00  0.00    +0.010 A 
ENDROOT
BRANCH   1   8
ATOM      7  O   UNL     1       4.012   4.186  -8.948  0.00  0.00    -0.240 OA
ATOM      8  C   UNL     1       4.927   5.034  -8.715  0.00  0.00    +0.389 C 
ATOM      9  O   UNL     1       4.899   5.648  -7.477  0.00  0.00    -0.240 OA
ENDBRANCH   1   8
TORSDOF 1
ENDMDL
MODEL 7
REMARK VINA RESULT:      -4.2      2.892      3.781
REMARK  Name = 
REMARK  1 active torsions:
REMARK  status: ('A' for Active; 'I' for Inactive)
REMARK    1  A    between atoms: C_2  and  C_4
REMARK                            x       y       z     vdW  Elec       q    Type
REMARK                         _______ _______ _______ _____ _____    ______ ____
ROOT
ATOM      1  C   UNL     1       5.942   5.737 -11.574  0.00  0.00    +0.099 A 
ATOM      2  C   UNL     1       6.250   5.157 -12.793  0.00  0.00    +0.105 A 
ATOM      3  N   UNL     1       7.539   5.090 -13.212  0.00  0.00    -0.242 NA
ATOM      4  C   UNL     1       8.555   5.594 -12.470  0.00  0.00    +0.099 A 
ATOM      5  C   UNL     1       8.298   5.714 -11.110  0.00  0.00    +0.021 A 
ATOM      6  C   UNL     1       6.987   5.831 -10.665  0.00  0.00    +0.010 A 
ENDROOT
BRANCH   1   8
ATOM      7  O   UNL     1       4.901   7.603 -10.605  0.00  0.00    -0.240 OA
ATOM      8  C   UNL     1       4.776   6.609 -11.384  0.00  0.00    +0.389 C 
ATOM      9  O   UNL     1       3.484   6.223 -11.688  0.00  0.00    -0.240 OA
ENDBRANCH   1   8
TORSDOF 1
ENDMDL
MODEL 8
REMARK VINA RESULT:      -4.0      2.534      3.435
REMARK  Name = 
REMARK  1 active torsions:
REMARK  status: ('A' for Active; 'I' for Inactive)
REMARK    1  A    between atoms: C_2  and  C_4
REMARK                            x       y       z     vdW  Elec       q    Type
REMARK                         _______ _______ _______ _____ _____    ______ ____
ROOT
ATOM      1  C   UNL     1       6.246   6.182 -12.797  0.00  0.00    +0.099 A 
ATOM      2  C   UNL     1       6.146   6.260 -11.419  0.00  0.00    +0.105 A 
ATOM      3  N   UNL     1       7.185   5.879 -10.635  0.00  0.00    -0.242 NA
ATOM      4  C   UNL     1       8.338   5.402 -11.164  0.00  0.00    +0.099 A 
ATOM      5  C   UNL     1       8.592   5.778 -12.477  0.00  0.00    +0.021 A 
ATOM      6  C   UNL     1       7.536   6.126 -13.310  0.00  0.00    +0.010 A 
ENDROOT
BRANCH   1   8
ATOM      7  O   UNL     1       4.743   4.526 -13.505  0.00  0.00    -0.240 OA
ATOM      8  C   UNL     1       5.141   5.722 -13.648  0.00  0.00    +0.389 C 
ATOM      9  O   UNL     1       4.768   6.360 -14.816  0.00  0.00    -0.240 OA
ENDBRANCH   1   8
TORSDOF 1
ENDMDL
MODEL 9
REMARK VINA RESULT:      -4.0      7.735      9.051
REMARK  Name = 
REMARK  1 active torsions:
REMARK  status: ('A' for Active; 'I' for Inactive)
REMARK    1  A    between atoms: C_2  and  C_4
REMARK                            x       y       z     vdW  Elec       q    Type
REMARK                         _______ _______ _______ _____ _____    ______ ____
ROOT
ATOM      1  C   UNL     1       0.008   5.398  -6.394  0.00  0.00    +0.099 A 
ATOM      2  C   UNL     1      -0.059   5.378  -5.011  0.00  0.00    +0.105 A 
ATOM      3  N   UNL     1      -1.202   5.741  -4.376  0.00  0.00    -0.242 NA
ATOM      4  C   UNL     1      -2.299   6.144  -5.061  0.00  0.00    +0.099 A 
ATOM      5  C   UNL     1      -2.374   5.707  -6.378  0.00  0.00    +0.021 A 
ATOM      6  C   UNL     1      -1.210   5.376  -7.060  0.00  0.00    +0.010 A 
ENDROOT
BRANCH   1   8
ATOM      7  O   UNL     1       1.606   7.048  -6.872  0.00  0.00    -0.240 OA
ATOM      8  C   UNL     1       1.189   5.876  -7.124  0.00  0.00    +0.389 C 
ATOM      9  O   UNL     1       1.637   5.301  -8.298  0.00  0.00    -0.240 OA
ENDBRANCH   1   8
TORSDOF 1
ENDMDL
