MODEL 1
REMARK VINA RESULT:      -8.4      0.000      0.000
REMARK  Name = 
REMARK  2 active torsions:
REMARK  status: ('A' for Active; 'I' for Inactive)
REMARK    1  A    between atoms: C_2  and  CA_4
REMARK    2  A    between atoms: C_6  and  C_7
REMARK                            x       y       z     vdW  Elec       q    Type
REMARK                         _______ _______ _______ _____ _____    ______ ____
ROOT
ATOM      1  CA  UNL     1       3.391   5.280  -7.672  0.00  0.00    +0.284 C 
ATOM      2  C   UNL     1       1.768   5.578  -7.677  0.00  0.00    +0.279 C 
ATOM      3  O   UNL     1       1.340   5.190  -6.555  0.00  0.00    -0.270 OA
ATOM      4  N   UNL     1       1.069   4.951  -8.764  0.00  0.00    -0.177 NA
ATOM      5  C   UNL     1       1.450   4.982 -10.142  0.00  0.00    +0.075 A 
ATOM      6  C   UNL     1       2.483   5.736 -10.686  0.00  0.00    +0.033 A 
ATOM      7  C   UNL     1       2.371   6.357 -11.927  0.00  0.00    +0.014 A 
ATOM      8  C   UNL     1       1.158   6.307 -12.607  0.00  0.00    +0.058 A 
ATOM      9  C   UNL     1       0.348   5.235 -12.254  0.00  0.00    +0.013 A 
ATOM     10 CL   UNL     1       0.512   7.690 -13.477  0.00  0.00    -0.082 Cl
ATOM     11  C   UNL     1       3.653   6.265  -9.966  0.00  0.00    +0.078 C 
ATOM     12  C   UNL     1       0.419   4.643 -11.002  0.00  0.00    +0.018 A 
ATOM     13  N   UNL     1       3.713   6.493  -8.685  0.00  0.00    -0.252 NA
ENDROOT
BRANCH  11  14
ATOM     14  C   UNL     1       4.798   6.410 -10.823  0.00  0.00    +0.017 A 
ATOM     15  C   UNL     1       5.468   5.364 -11.433  0.00  0.00    +0.001 A 
ATOM     16  C   UNL     1       6.707   5.576 -12.031  0.00  0.00    +0.000 A 
ATOM     17  C   UNL     1       7.432   6.734 -11.768  0.00  0.00    +0.000 A 
ATOM     18  C   UNL     1       6.797   7.773 -11.105  0.00  0.00    +0.000 A 
ATOM     19  C   UNL     1       5.459   7.632 -10.915  0.00  0.00    +0.001 A 
ENDBRANCH  11  14
BRANCH   1  21
ATOM     20  O   UNL     1       4.505   5.934  -5.907  0.00  0.00    -0.243 OA
ATOM     21  C   UNL     1       3.653   6.222  -6.344  0.00  0.00    +0.396 C 
ATOM     22  OXT UNL     1       3.245   7.519  -6.459  0.00  0.00    -0.243 OA
ENDBRANCH   1  21
TORSDOF 2
ENDMDL
MODEL 2
REMARK VINA RESULT:      -8.0      4.176      7.734
REMARK  Name = 
REMARK  2 active torsions:
REMARK  status: ('A' for Active; 'I' for Inactive)
REMARK    1  A    between atoms: C_2  and  CA_4
REMARK    2  A    between atoms: C_6  and  C_7
REMARK                            x       y       z     vdW  Elec       q    Type
REMARK                         _______ _______ _______ _____ _____    ______ ____
ROOT
ATOM      1  CA  UNL     1       1.421   5.142  -7.781  0.00  0.00    +0.284 C 
ATOM      2  C   UNL     1       3.016   5.569  -7.798  0.00  0.00    +0.279 C 
ATOM      3  O   UNL     1       3.490   5.098  -8.870  0.00  0.00    -0.270 OA
ATOM      4  N   UNL     1       3.746   5.120  -6.645  0.00  0.00    -0.177 NA
ATOM      5  C   UNL     1       3.343   5.268  -5.281  0.00  0.00    +0.075 A 
ATOM      6  C   UNL     1       2.246   5.991  -4.829  0.00  0.00    +0.033 A 
ATOM      7  C   UNL     1       2.290   6.750  -3.662  0.00  0.00    +0.014 A 
ATOM      8  C   UNL     1       3.493   6.870  -2.973  0.00  0.00    +0.058 A 
ATOM      9  C   UNL     1       4.391   5.835  -3.203  0.00  0.00    +0.013 A 
ATOM     10 CL   UNL     1       4.015   8.387  -2.254  0.00  0.00    -0.082 Cl
ATOM     11  C   UNL     1       1.048   6.344  -5.609  0.00  0.00    +0.078 C 
ATOM     12  C   UNL     1       4.385   5.108  -4.383  0.00  0.00    +0.018 A 
ATOM     13  N   UNL     1       0.990   6.428  -6.907  0.00  0.00    -0.252 NA
ENDROOT
BRANCH  11  14
ATOM     14  C   UNL     1      -0.117   6.488  -4.779  0.00  0.00    +0.017 A 
ATOM     15  C   UNL     1      -0.655   5.488  -3.989  0.00  0.00    +0.001 A 
ATOM     16  C   UNL     1      -1.918   5.640  -3.425  0.00  0.00    +0.000 A 
ATOM     17  C   UNL     1      -2.783   6.630  -3.881  0.00  0.00    +0.000 A 
ATOM     18  C   UNL     1      -2.279   7.609  -4.722  0.00  0.00    +0.000 A 
ATOM     19  C   UNL     1      -0.931   7.612  -4.898  0.00  0.00    +0.001 A 
ENDBRANCH  11  14
BRANCH   1  21
ATOM     20  O   UNL     1       0.342   5.452  -9.658  0.00  0.00    -0.243 OA
ATOM     21  C   UNL     1       1.105   5.912  -9.205  0.00  0.00    +0.396 C 
ATOM     22  OXT UNL     1       1.292   7.264  -9.191  0.00  0.00    -0.243 OA
ENDBRANCH   1  21
TORSDOF 2
ENDMDL
MODEL 3
REMARK VINA RESULT:      -8.0      4.474      7.261
REMARK  Name = 
REMARK  2 active torsions:
REMARK  status: ('A' for Active; 'I' for Inactive)
REMARK    1  A    between atoms: C_2  and  CA_4
REMARK    2  A    between atoms: C_6  and  C_7
REMARK                            x       y       z     vdW  Elec       q    Type
REMARK                         _______ _______ _______ _____ _____    ______ ____
ROOT
ATOM      1  CA  UNL     1       1.979   6.192  -2.251  0.00  0.00    +0.284 C 
ATOM      2  C   UNL     1       3.286   5.244  -2.593  0.00  0.00    +0.279 C 
ATOM      3  O   UNL     1       3.993   5.237  -1.547  0.00  0.00    -0.270 OA
ATOM      4  N   UNL     1       4.032   5.680  -3.741  0.00  0.00    -0.177 NA
ATOM      5  C   UNL     1       3.489   6.027  -5.018  0.00  0.00    +0.075 A 
ATOM      6  C   UNL     1       2.165   5.871  -5.410  0.00  0.00    +0.033 A 
ATOM      7  C   UNL     1       1.817   5.462  -6.695  0.00  0.00    +0.014 A 
ATOM      8  C   UNL     1       2.821   5.103  -7.590  0.00  0.00    +0.058 A 
ATOM      9  C   UNL     1       4.061   5.667  -7.316  0.00  0.00    +0.013 A 
ATOM     10 CL   UNL     1       2.664   3.730  -8.675  0.00  0.00    -0.082 Cl
ATOM     11  C   UNL     1       0.994   5.778  -4.522  0.00  0.00    +0.078 C 
ATOM     12  C   UNL     1       4.433   6.031  -6.030  0.00  0.00    +0.018 A 
ATOM     13  N   UNL     1       1.018   5.400  -3.277  0.00  0.00    -0.252 NA
ENDROOT
BRANCH  11  14
ATOM     14  C   UNL     1      -0.204   6.263  -5.152  0.00  0.00    +0.017 A 
ATOM     15  C   UNL     1      -0.902   7.393  -4.764  0.00  0.00    +0.001 A 
ATOM     16  C   UNL     1      -2.177   7.638  -5.262  0.00  0.00    +0.000 A 
ATOM     17  C   UNL     1      -2.896   6.630  -5.897  0.00  0.00    +0.000 A 
ATOM     18  C   UNL     1      -2.231   5.463  -6.242  0.00  0.00    +0.000 A 
ATOM     19  C   UNL     1      -0.882   5.472  -6.078  0.00  0.00    +0.001 A 
ENDBRANCH  11  14
BRANCH   1  21
ATOM     20  O   UNL     1       1.383   5.837  -0.177  0.00  0.00    -0.243 OA
ATOM     21  C   UNL     1       1.516   5.253  -0.977  0.00  0.00    +0.396 C 
ATOM     22  OXT UNL     1       0.724   4.187  -1.295  0.00  0.00    -0.243 OA
ENDBRANCH   1  21
TORSDOF 2
ENDMDL
MODEL 4
REMARK VINA RESULT:      -7.8      3.756      6.910
REMARK  Name = 
REMARK  2 active torsions:
REMARK  status: ('A' for Active; 'I' for Inactive)
REMARK    1  A    between atoms: C_2  and  CA_4
REMARK    2  A    between atoms: C_6  and  C_7
REMARK                            x       y       z     vdW  Elec       q    Type
REMARK                         _______ _______ _______ _____ _____    ______ ____
ROOT
ATOM      1  CA  UNL     1       3.006   7.251  -3.711  0.00  0.00    +0.284 C 
ATOM      2  C   UNL     1       4.041   6.676  -4.862  0.00  0.00    +0.279 C 
ATOM      3  O   UNL     1       5.204   6.940  -4.446  0.00  0.00    -0.270 OA
ATOM      4  N   UNL     1       3.805   7.215  -6.172  0.00  0.00    -0.177 NA
ATOM      5  C   UNL     1       2.539   7.305  -6.832  0.00  0.00    +0.075 A 
ATOM      6  C   UNL     1       1.343   6.763  -6.378  0.00  0.00    +0.033 A 
ATOM      7  C   UNL     1       0.419   6.181  -7.243  0.00  0.00    +0.014 A 
ATOM      8  C   UNL     1       0.739   6.047  -8.590  0.00  0.00    +0.058 A 
ATOM      9  C   UNL     1       1.694   6.948  -9.045  0.00  0.00    +0.013 A 
ATOM     10 CL   UNL     1       0.332   4.608  -9.513  0.00  0.00    -0.082 Cl
ATOM     11  C   UNL     1       1.012   6.417  -4.986  0.00  0.00    +0.078 C 
ATOM     12  C   UNL     1       2.648   7.493  -8.199  0.00  0.00    +0.018 A 
ATOM     13  N   UNL     1       1.874   6.152  -4.047  0.00  0.00    -0.252 NA
ENDROOT
BRANCH  11  14
ATOM     14  C   UNL     1      -0.400   6.506  -4.726  0.00  0.00    +0.017 A 
ATOM     15  C   UNL     1      -1.142   7.673  -4.771  0.00  0.00    +0.001 A 
ATOM     16  C   UNL     1      -2.435   7.704  -4.259  0.00  0.00    +0.000 A 
ATOM     17  C   UNL     1      -2.894   6.686  -3.429  0.00  0.00    +0.000 A 
ATOM     18  C   UNL     1      -2.136   5.531  -3.322  0.00  0.00    +0.000 A 
ATOM     19  C   UNL     1      -1.084   5.424  -4.176  0.00  0.00    +0.001 A 
ENDBRANCH  11  14
BRANCH   1  21
ATOM     20  O   UNL     1       3.614   6.814  -1.656  0.00  0.00    -0.243 OA
ATOM     21  C   UNL     1       3.664   6.317  -2.522  0.00  0.00    +0.396 C 
ATOM     22  OXT UNL     1       3.457   4.974  -2.653  0.00  0.00    -0.243 OA
ENDBRANCH   1  21
TORSDOF 2
ENDMDL
MODEL 5
REMARK VINA RESULT:      -7.7      3.287      4.651
REMARK  Name = 
REMARK  2 active torsions:
REMARK  status: ('A' for Active; 'I' for Inactive)
REMARK    1  A    between atoms: C_2  and  CA_4
REMARK    2  A    between atoms: C_6  and  C_7
REMARK                            x       y       z     vdW  Elec       q    Type
REMARK                         _______ _______ _______ _____ _____    ______ ____
ROOT
ATOM      1  CA  UNL     1       1.670   6.794 -11.828  0.00  0.00    +0.284 C 
ATOM      2  C   UNL     1       0.582   6.339 -10.673  0.00  0.00    +0.279 C 
ATOM      3  O   UNL     1      -0.560   6.532 -11.176  0.00  0.00    -0.270 OA
ATOM      4  N   UNL     1       0.742   7.031  -9.424  0.00  0.00    -0.177 NA
ATOM      5  C   UNL     1       1.969   7.219  -8.715  0.00  0.00    +0.075 A 
ATOM      6  C   UNL     1       3.194   6.649  -9.039  0.00  0.00    +0.033 A 
ATOM      7  C   UNL     1       4.077   6.188  -8.066  0.00  0.00    +0.014 A 
ATOM      8  C   UNL     1       3.688   6.206  -6.731  0.00  0.00    +0.058 A 
ATOM      9  C   UNL     1       2.699   7.137  -6.435  0.00  0.00    +0.013 A 
ATOM     10 CL   UNL     1       4.062   4.892  -5.626  0.00  0.00    -0.082 Cl
ATOM     11  C   UNL     1       3.603   6.150 -10.363  0.00  0.00    +0.078 C 
ATOM     12  C   UNL     1       1.786   7.563  -7.386  0.00  0.00    +0.018 A 
ATOM     13  N   UNL     1       2.796   5.763 -11.307  0.00  0.00    -0.252 NA
ENDROOT
BRANCH  11  14
ATOM     14  C   UNL     1       5.026   6.233 -10.558  0.00  0.00    +0.017 A 
ATOM     15  C   UNL     1       5.963   5.464  -9.892  0.00  0.00    +0.001 A 
ATOM     16  C   UNL     1       7.315   5.790  -9.957  0.00  0.00    +0.000 A 
ATOM     17  C   UNL     1       7.721   7.039 -10.416  0.00  0.00    +0.000 A 
ATOM     18  C   UNL     1       6.784   7.852 -11.034  0.00  0.00    +0.000 A 
ATOM     19  C   UNL     1       5.575   7.284 -11.289  0.00  0.00    +0.001 A 
ENDBRANCH  11  14
BRANCH   1  21
ATOM     20  O   UNL     1       1.415   5.977 -13.840  0.00  0.00    -0.243 OA
ATOM     21  C   UNL     1       1.088   5.717 -12.932  0.00  0.00    +0.396 C 
ATOM     22  OXT UNL     1       0.979   4.430 -12.491  0.00  0.00    -0.243 OA
ENDBRANCH   1  21
TORSDOF 2
ENDMDL
MODEL 6
REMARK VINA RESULT:      -7.7      4.986      6.950
REMARK  Name = 
REMARK  2 active torsions:
REMARK  status: ('A' for Active; 'I' for Inactive)
REMARK    1  A    between atoms: C_2  and  CA_4
REMARK    2  A    between atoms: C_6  and  C_7
REMARK                            x       y       z     vdW  Elec       q    Type
REMARK                         _______ _______ _______ _____ _____    ______ ____
ROOT
ATOM      1  CA  UNL     1       2.283   5.389  -1.761  0.00  0.00    +0.284 C 
ATOM      2  C   UNL     1       1.069   6.179  -0.970  0.00  0.00    +0.279 C 
ATOM      3  O   UNL     1       1.341   6.091   0.260  0.00  0.00    -0.270 OA
ATOM      4  N   UNL     1      -0.241   5.669  -1.267  0.00  0.00    -0.177 NA
ATOM      5  C   UNL     1      -0.767   5.403  -2.570  0.00  0.00    +0.075 A 
ATOM      6  C   UNL     1      -0.155   5.719  -3.777  0.00  0.00    +0.033 A 
ATOM      7  C   UNL     1      -0.877   6.181  -4.875  0.00  0.00    +0.014 A 
ATOM      8  C   UNL     1      -2.240   6.427  -4.738  0.00  0.00    +0.058 A 
ATOM      9  C   UNL     1      -2.850   5.717  -3.711  0.00  0.00    +0.013 A 
ATOM     10 CL   UNL     1      -3.020   7.821  -5.471  0.00  0.00    -0.082 Cl
ATOM     11  C   UNL     1       1.284   5.942  -3.996  0.00  0.00    +0.078 C 
ATOM     12  C   UNL     1      -2.147   5.298  -2.592  0.00  0.00    +0.018 A 
ATOM     13  N   UNL     1       2.141   6.301  -3.085  0.00  0.00    -0.252 NA
ENDROOT
BRANCH  11  14
ATOM     14  C   UNL     1       1.686   5.610  -5.337  0.00  0.00    +0.017 A 
ATOM     15  C   UNL     1       1.685   4.333  -5.871  0.00  0.00    +0.001 A 
ATOM     16  C   UNL     1       2.327   4.076  -7.078  0.00  0.00    +0.000 A 
ATOM     17  C   UNL     1       3.230   4.991  -7.611  0.00  0.00    +0.000 A 
ATOM     18  C   UNL     1       3.290   6.258  -7.052  0.00  0.00    +0.000 A 
ATOM     19  C   UNL     1       2.335   6.553  -6.131  0.00  0.00    +0.001 A 
ENDBRANCH  11  14
BRANCH   1  21
ATOM     20  O   UNL     1       4.249   5.803  -0.897  0.00  0.00    -0.243 OA
ATOM     21  C   UNL     1       3.454   6.363  -1.127  0.00  0.00    +0.396 C 
ATOM     22  OXT UNL     1       3.521   7.618  -1.661  0.00  0.00    -0.243 OA
ENDBRANCH   1  21
TORSDOF 2
ENDMDL
MODEL 7
REMARK VINA RESULT:      -7.6      4.085      6.155
REMARK  Name = 
REMARK  2 active torsions:
REMARK  status: ('A' for Active; 'I' for Inactive)
REMARK    1  A    between atoms: C_2  and  CA_4
REMARK    2  A    between atoms: C_6  and  C_7
REMARK                            x       y       z     vdW  Elec       q    Type
REMARK                         _______ _______ _______ _____ _____    ______ ____
ROOT
ATOM      1  CA  UNL     1       3.159   4.902  -4.122  0.00  0.00    +0.284 C 
ATOM      2  C   UNL     1       2.601   5.500  -2.688  0.00  0.00    +0.279 C 
ATOM      3  O   UNL     1       3.268   4.920  -1.787  0.00  0.00    -0.270 OA
ATOM      4  N   UNL     1       1.186   5.330  -2.502  0.00  0.00    -0.177 NA
ATOM      5  C   UNL     1       0.167   5.649  -3.453  0.00  0.00    +0.075 A 
ATOM      6  C   UNL     1       0.356   6.305  -4.663  0.00  0.00    +0.033 A 
ATOM      7  C   UNL     1      -0.554   7.242  -5.148  0.00  0.00    +0.014 A 
ATOM      8  C   UNL     1      -1.638   7.609  -4.358  0.00  0.00    +0.058 A 
ATOM      9  C   UNL     1      -2.005   6.660  -3.411  0.00  0.00    +0.013 A 
ATOM     10 CL   UNL     1      -2.198   9.272  -4.245  0.00  0.00    -0.082 Cl
ATOM     11  C   UNL     1       1.612   6.387  -5.426  0.00  0.00    +0.078 C 
ATOM     12  C   UNL     1      -1.093   5.757  -2.887  0.00  0.00    +0.018 A 
ATOM     13  N   UNL     1       2.808   6.253  -4.930  0.00  0.00    -0.252 NA
ENDROOT
BRANCH  11  14
ATOM     14  C   UNL     1       1.381   6.529  -6.838  0.00  0.00    +0.017 A 
ATOM     15  C   UNL     1       0.630   5.658  -7.609  0.00  0.00    +0.001 A 
ATOM     16  C   UNL     1       0.674   5.733  -8.998  0.00  0.00    +0.000 A 
ATOM     17  C   UNL     1       1.681   6.449  -9.639  0.00  0.00    +0.000 A 
ATOM     18  C   UNL     1       2.484   7.282  -8.876  0.00  0.00    +0.000 A 
ATOM     19  C   UNL     1       2.107   7.456  -7.582  0.00  0.00    +0.001 A 
ENDBRANCH  11  14
BRANCH   1  21
ATOM     20  O   UNL     1       5.335   4.686  -4.160  0.00  0.00    -0.243 OA
ATOM     21  C   UNL     1       4.706   5.390  -3.829  0.00  0.00    +0.396 C 
ATOM     22  OXT UNL     1       4.925   6.733  -3.939  0.00  0.00    -0.243 OA
ENDBRANCH   1  21
TORSDOF 2
ENDMDL
MODEL 8
REMARK VINA RESULT:      -7.4      3.133      5.065
REMARK  Name = 
REMARK  2 active torsions:
REMARK  status: ('A' for Active; 'I' for Inactive)
REMARK    1  A    between atoms: C_2  and  CA_4
REMARK    2  A    between atoms: C_6  and  C_7
REMARK                            x       y       z     vdW  Elec       q    Type
REMARK                         _______ _______ _______ _____ _____    ______ ____
ROOT
ATOM      1  CA  UNL     1      -0.159   5.389  -5.445  0.00  0.00    +0.284 C 
ATOM      2  C   UNL     1      -0.739   5.770  -6.942  0.00  0.00    +0.279 C 
ATOM      3  O   UNL     1      -1.975   5.513  -6.911  0.00  0.00    -0.270 OA
ATOM      4  N   UNL     1      -0.074   5.080  -8.013  0.00  0.00    -0.177 NA
ATOM      5  C   UNL     1       1.340   4.960  -8.189  0.00  0.00    +0.075 A 
ATOM      6  C   UNL     1       2.313   5.604  -7.436  0.00  0.00    +0.033 A 
ATOM      7  C   UNL     1       3.478   6.110  -8.008  0.00  0.00    +0.014 A 
ATOM      8  C   UNL     1       3.635   6.059  -9.389  0.00  0.00    +0.058 A 
ATOM      9  C   UNL     1       2.887   5.068 -10.015  0.00  0.00    +0.013 A 
ATOM     10 CL   UNL     1       4.337   7.385 -10.304  0.00  0.00    -0.082 Cl
ATOM     11  C   UNL     1       2.154   6.137  -6.072  0.00  0.00    +0.078 C 
ATOM     12  C   UNL     1       1.701   4.595  -9.475  0.00  0.00    +0.018 A 
ATOM     13  N   UNL     1       1.025   6.482  -5.523  0.00  0.00    -0.252 NA
ENDROOT
BRANCH  11  14
ATOM     14  C   UNL     1       3.393   6.140  -5.343  0.00  0.00    +0.017 A 
ATOM     15  C   UNL     1       3.905   5.059  -4.647  0.00  0.00    +0.001 A 
ATOM     16  C   UNL     1       4.970   5.230  -3.768  0.00  0.00    +0.000 A 
ATOM     17  C   UNL     1       5.336   6.501  -3.335  0.00  0.00    +0.000 A 
ATOM     18  C   UNL     1       4.789   7.599  -3.980  0.00  0.00    +0.000 A 
ATOM     19  C   UNL     1       4.063   7.337  -5.098  0.00  0.00    +0.001 A 
ENDBRANCH  11  14
BRANCH   1  21
ATOM     20  O   UNL     1      -1.455   6.040  -3.808  0.00  0.00    -0.243 OA
ATOM     21  C   UNL     1      -1.177   6.438  -4.682  0.00  0.00    +0.396 C 
ATOM     22  OXT UNL     1      -0.903   7.761  -4.875  0.00  0.00    -0.243 OA
ENDBRANCH   1  21
TORSDOF 2
ENDMDL
MODEL 9
REMARK VINA RESULT:      -7.3      5.062      7.557
REMARK  Name = 
REMARK  2 active torsions:
REMARK  status: ('A' for Active; 'I' for Inactive)
REMARK    1  A    between atoms: C_2  and  CA_4
REMARK    2  A    between atoms: C_6  and  C_7
REMARK                            x       y       z     vdW  Elec       q    Type
REMARK                         _______ _______ _______ _____ _____    ______ ____
ROOT
ATOM      1  CA  UNL     1       1.802   5.834  -6.713  0.00  0.00    +0.284 C 
ATOM      2  C   UNL     1       0.240   5.348  -6.932  0.00  0.00    +0.279 C 
ATOM      3  O   UNL     1       0.100   5.180  -8.176  0.00  0.00    -0.270 OA
ATOM      4  N   UNL     1      -0.730   6.265  -6.402  0.00  0.00    -0.177 NA
ATOM      5  C   UNL     1      -0.710   6.853  -5.098  0.00  0.00    +0.075 A 
ATOM      6  C   UNL     1       0.172   6.535  -4.073  0.00  0.00    +0.033 A 
ATOM      7  C   UNL     1      -0.232   6.468  -2.742  0.00  0.00    +0.014 A 
ATOM      8  C   UNL     1      -1.579   6.628  -2.431  0.00  0.00    +0.058 A 
ATOM      9  C   UNL     1      -2.304   7.341  -3.378  0.00  0.00    +0.013 A 
ATOM     10 CL   UNL     1      -2.385   5.649  -1.215  0.00  0.00    -0.082 Cl
ATOM     11  C   UNL     1       1.502   5.920  -4.223  0.00  0.00    +0.078 C 
ATOM     12  C   UNL     1      -1.935   7.371  -4.714  0.00  0.00    +0.018 A 
ATOM     13  N   UNL     1       1.892   5.198  -5.233  0.00  0.00    -0.252 NA
ENDROOT
BRANCH  11  14
ATOM     14  C   UNL     1       2.395   6.296  -3.160  0.00  0.00    +0.017 A 
ATOM     15  C   UNL     1       3.131   7.467  -3.120  0.00  0.00    +0.001 A 
ATOM     16  C   UNL     1       4.152   7.625  -2.188  0.00  0.00    +0.000 A 
ATOM     17  C   UNL     1       4.660   6.527  -1.501  0.00  0.00    +0.000 A 
ATOM     18  C   UNL     1       3.971   5.326  -1.575  0.00  0.00    +0.000 A 
ATOM     19  C   UNL     1       2.757   5.369  -2.185  0.00  0.00    +0.001 A 
ENDBRANCH  11  14
BRANCH   1  21
ATOM     20  O   UNL     1       3.235   4.724  -7.938  0.00  0.00    -0.243 OA
ATOM     21  C   UNL     1       2.420   4.476  -7.414  0.00  0.00    +0.396 C 
ATOM     22  OXT UNL     1       2.295   3.331  -6.681  0.00  0.00    -0.243 OA
ENDBRANCH   1  21
TORSDOF 2
ENDMDL
