MODEL 1
REMARK VINA RESULT:       5.9      0.000      0.000
REMARK  Name = 
REMARK  5 active torsions:
REMARK  status: ('A' for Active; 'I' for Inactive)
REMARK    1  A    between atoms: O_2  and  C_3
REMARK    2  A    between atoms: C_15  and  C_16
REMARK    3  A    between atoms: N_17  and  N_18
REMARK    4  A    between atoms: C_51  and  O_52
REMARK    5  A    between atoms: O_52  and  C_53
REMARK                            x       y       z     vdW  Elec       q    Type
REMARK                         _______ _______ _______ _____ _____    ______ ____
ROOT
ATOM      1  C   UNL     1       4.109   7.813  -0.385  0.00  0.00    +0.144 C 
ATOM      2  C   UNL     1       2.624   7.028  -0.089  0.00  0.00    +0.072 C 
ATOM      3  C   UNL     1       3.174   5.629   0.475  0.00  0.00    +0.007 C 
ATOM      4  C   UNL     1       2.370   7.742   1.412  0.00  0.00    +0.174 C 
ATOM      5  C   UNL     1       0.676   7.636   1.388  0.00  0.00    +0.071 C 
ATOM      6  C   UNL     1       0.611   6.096   0.945  0.00  0.00    +0.006 C 
ATOM      7  C   UNL     1       0.392   8.413  -0.097  0.00  0.00    +0.158 C 
ATOM      8  O   UNL     1      -1.059   8.536   0.283  0.00  0.00    -0.223 OA
ATOM      9  C   UNL     1       0.187   7.063  -1.074  0.00  0.00    +0.061 C 
ATOM     10  C   UNL     1       0.871   7.822  -2.340  0.00  0.00    +0.005 C 
ATOM     11  C   UNL     1      -1.298   7.416  -1.794  0.00  0.00    +0.158 C 
ATOM     12  O   UNL     1      -0.902   6.363  -2.793  0.00  0.00    -0.223 OA
ATOM     13  C   UNL     1      -2.229   6.378  -0.808  0.00  0.00    +0.053 C 
ATOM     14  C   UNL     1      -3.536   7.342  -0.938  0.00  0.00    +0.007 C 
ATOM     15  C   UNL     1      -2.773   5.388  -1.927  0.00  0.00    -0.024 C 
ATOM     16  C   UNL     1      -3.277   5.789  -3.024  0.00  0.00    -0.005 C 
ATOM     17  C   UNL     1      -3.282   5.400  -4.345  0.00  0.00    -0.000 C 
ATOM     18  C   UNL     1      -2.650   5.661  -5.481  0.00  0.00    +0.033 C 
ATOM     19  C   UNL     1      -2.806   7.027  -6.125  0.00  0.00    +0.036 C 
ATOM     20  C   UNL     1      -1.925   4.621  -6.254  0.00  0.00    +0.265 C 
ATOM     21  O   UNL     1      -2.656   3.962  -7.076  0.00  0.00    -0.268 OA
ATOM     22  N   UNL     1      -0.559   4.352  -6.205  0.00  0.00    -0.172 NA
ATOM     23  C   UNL     1       0.512   4.788  -7.084  0.00  0.00    +0.117 A 
ATOM     24  C   UNL     1       1.756   4.145  -6.970  0.00  0.00    +0.214 A 
ATOM     25  C   UNL     1       2.931   4.896  -6.811  0.00  0.00    +0.082 A 
ATOM     26  C   UNL     1       2.787   6.187  -6.251  0.00  0.00    +0.051 A 
ATOM     27  C   UNL     1       1.603   6.835  -6.589  0.00  0.00    +0.199 A 
ATOM     28  O   UNL     1       0.978   7.936  -5.983  0.00  0.00    -0.286 OA
ATOM     29  C   UNL     1       4.017   6.780  -5.980  0.00  0.00    +0.079 A 
ATOM     30  C   UNL     1       4.446   7.476  -4.773  0.00  0.00    +0.251 C 
ATOM     31  C   UNL     1       5.861   7.115  -4.427  0.00  0.00    +0.326 C 
ATOM     32  O   UNL     1       6.263   6.511  -5.603  0.00  0.00    -0.443 OA
ATOM     33  C   UNL     1       6.755   8.305  -4.239  0.00  0.00    +0.100 C 
ATOM     34  O   UNL     1       5.919   6.319  -3.284  0.00  0.00    -0.440 OA
ATOM     35  C   UNL     1       5.665   6.780  -2.017  0.00  0.00    +0.174 C 
ATOM     36  O   UNL     1       4.059   8.571  -4.246  0.00  0.00    -0.284 OA
ATOM     37  C   UNL     1       5.207   6.185  -6.405  0.00  0.00    +0.145 A 
ATOM     38  C   UNL     1       5.224   5.288  -7.470  0.00  0.00    +0.051 A 
ATOM     39  C   UNL     1       6.233   5.403  -8.532  0.00  0.00    +0.038 C 
ATOM     40  C   UNL     1       4.048   4.558  -7.585  0.00  0.00    +0.198 A 
ATOM     41  O   UNL     1       3.945   3.794  -8.755  0.00  0.00    -0.287 OA
ATOM     42  O   UNL     1       2.023   2.822  -7.361  0.00  0.00    -0.285 OA
ATOM     43  C   UNL     1       0.645   6.162  -7.376  0.00  0.00    +0.078 A 
ATOM     44  C   UNL     1       4.450   6.756  -1.557  0.00  0.00    +0.043 C 
ENDROOT
BRANCH   1  46
ATOM     45  C   UNL     1       5.349   7.302   0.783  0.00  0.00    +0.174 C 
ATOM     46  O   UNL     1       4.941   7.052   0.625  0.00  0.00    -0.349 OA
ENDBRANCH   1  46
BRANCH  43  47
ATOM     47  C   UNL     1       0.181   6.808  -8.628  0.00  0.00    +0.122 C 
ATOM     48  N   UNL     1       0.934   7.246  -9.552  0.00  0.00    -0.180 NA
BRANCH  48  49
ATOM     49  N   UNL     1       1.066   6.733 -10.842  0.00  0.00    -0.230 N 
ATOM     50  C   UNL     1       2.374   6.198 -11.210  0.00  0.00    +0.128 C 
ATOM     51  C   UNL     1       2.469   5.795 -12.642  0.00  0.00    +0.096 C 
ATOM     52  N   UNL     1       1.336   5.064 -13.135  0.00  0.00    -0.268 NA
ATOM     53  C   UNL     1       0.751   5.823 -14.213  0.00  0.00    +0.090 C 
ATOM     54  C   UNL     1       0.385   4.816 -12.076  0.00  0.00    +0.096 C 
ATOM     55  C   UNL     1      -0.066   6.184 -11.579  0.00  0.00    +0.128 C 
ENDBRANCH  48  49
ENDBRANCH  43  47
BRANCH   4  56
ATOM     56  O   UNL     1       2.403   9.169   0.887  0.00  0.00    -0.452 OA
BRANCH  56  57
ATOM     57  C   UNL     1       3.049  10.098   1.701  0.00  0.00    +0.317 C 
ATOM     58  O   UNL     1       2.961   9.902   2.927  0.00  0.00    -0.250 OA
ATOM     59  C   UNL     1       3.633  11.370   1.237  0.00  0.00    +0.121 C 
ENDBRANCH  56  57
ENDBRANCH   4  56
TORSDOF 5
ENDMDL
MODEL 2
REMARK VINA RESULT:       7.6      2.523      6.609
REMARK  Name = 
REMARK  5 active torsions:
REMARK  status: ('A' for Active; 'I' for Inactive)
REMARK    1  A    between atoms: O_2  and  C_3
REMARK    2  A    between atoms: C_15  and  C_16
REMARK    3  A    between atoms: N_17  and  N_18
REMARK    4  A    between atoms: C_51  and  O_52
REMARK    5  A    between atoms: O_52  and  C_53
REMARK                            x       y       z     vdW  Elec       q    Type
REMARK                         _______ _______ _______ _____ _____    ______ ____
ROOT
ATOM      1  C   UNL     1      -2.483   6.929   0.541  0.00  0.00    +0.144 C 
ATOM      2  C   UNL     1      -1.099   7.861   0.895  0.00  0.00    +0.072 C 
ATOM      3  C   UNL     1      -1.696   9.328   0.632  0.00  0.00    +0.007 C 
ATOM      4  C   UNL     1      -1.338   7.864   2.560  0.00  0.00    +0.174 C 
ATOM      5  C   UNL     1       0.294   8.060   2.984  0.00  0.00    +0.071 C 
ATOM      6  C   UNL     1       0.586   9.271   1.974  0.00  0.00    +0.006 C 
ATOM      7  C   UNL     1       0.944   6.750   2.117  0.00  0.00    +0.158 C 
ATOM      8  O   UNL     1       2.211   6.894   2.916  0.00  0.00    -0.223 OA
ATOM      9  C   UNL     1       1.511   7.574   0.768  0.00  0.00    +0.061 C 
ATOM     10  C   UNL     1       1.174   6.310  -0.198  0.00  0.00    +0.005 C 
ATOM     11  C   UNL     1       3.115   7.049   0.728  0.00  0.00    +0.158 C 
ATOM     12  O   UNL     1       3.095   7.554  -0.689  0.00  0.00    -0.223 OA
ATOM     13  C   UNL     1       3.786   8.464   1.407  0.00  0.00    +0.053 C 
ATOM     14  C   UNL     1       5.008   7.622   2.080  0.00  0.00    +0.007 C 
ATOM     15  C   UNL     1       4.695   8.923   0.186  0.00  0.00    -0.024 C 
ATOM     16  C   UNL     1       5.467   8.131  -0.441  0.00  0.00    -0.005 C 
ATOM     17  C   UNL     1       5.879   7.927  -1.740  0.00  0.00    -0.000 C 
ATOM     18  C   UNL     1       5.588   7.171  -2.789  0.00  0.00    +0.033 C 
ATOM     19  C   UNL     1       5.833   5.674  -2.723  0.00  0.00    +0.036 C 
ATOM     20  C   UNL     1       5.187   7.739  -4.102  0.00  0.00    +0.265 C 
ATOM     21  O   UNL     1       6.166   8.037  -4.874  0.00  0.00    -0.268 OA
ATOM     22  N   UNL     1       3.886   7.914  -4.568  0.00  0.00    -0.172 NA
ATOM     23  C   UNL     1       3.089   7.080  -5.450  0.00  0.00    +0.117 A 
ATOM     24  C   UNL     1       1.911   7.628  -5.983  0.00  0.00    +0.214 A 
ATOM     25  C   UNL     1       0.693   6.939  -5.870  0.00  0.00    +0.082 A 
ATOM     26  C   UNL     1       0.584   6.016  -4.803  0.00  0.00    +0.051 A 
ATOM     27  C   UNL     1       1.769   5.365  -4.479  0.00  0.00    +0.199 A 
ATOM     28  O   UNL     1       2.119   4.665  -3.313  0.00  0.00    -0.286 OA
ATOM     29  C   UNL     1      -0.709   5.514  -4.676  0.00  0.00    +0.079 A 
ATOM     30  C   UNL     1      -1.513   5.364  -3.470  0.00  0.00    +0.251 C 
ATOM     31  C   UNL     1      -2.941   5.744  -3.734  0.00  0.00    +0.326 C 
ATOM     32  O   UNL     1      -2.945   5.768  -5.116  0.00  0.00    -0.443 OA
ATOM     33  C   UNL     1      -3.927   4.688  -3.330  0.00  0.00    +0.100 C 
ATOM     34  O   UNL     1      -3.274   6.942  -3.104  0.00  0.00    -0.440 OA
ATOM     35  C   UNL     1      -3.428   7.075  -1.747  0.00  0.00    +0.174 C 
ATOM     36  O   UNL     1      -1.367   4.621  -2.444  0.00  0.00    -0.284 OA
ATOM     37  C   UNL     1      -1.683   5.795  -5.637  0.00  0.00    +0.145 A 
ATOM     38  C   UNL     1      -1.331   6.156  -6.935  0.00  0.00    +0.051 A 
ATOM     39  C   UNL     1      -1.996   5.539  -8.092  0.00  0.00    +0.038 C 
ATOM     40  C   UNL     1      -0.128   6.846  -7.001  0.00  0.00    +0.198 A 
ATOM     41  O   UNL     1       0.360   7.050  -8.298  0.00  0.00    -0.287 OA
ATOM     42  O   UNL     1       1.855   8.642  -6.954  0.00  0.00    -0.285 OA
ATOM     43  C   UNL     1       2.956   5.705  -5.161  0.00  0.00    +0.078 A 
ATOM     44  C   UNL     1      -2.400   7.370  -1.010  0.00  0.00    +0.043 C 
ENDROOT
BRANCH   1  46
ATOM     45  C   UNL     1      -3.951   7.804   1.035  0.00  0.00    +0.174 C 
ATOM     46  O   UNL     1      -3.519   7.988   0.849  0.00  0.00    -0.349 OA
ENDBRANCH   1  46
BRANCH  43  47
ATOM     47  C   UNL     1       3.720   4.623  -5.830  0.00  0.00    +0.122 C 
ATOM     48  N   UNL     1       3.615   4.299  -7.054  0.00  0.00    -0.180 NA
BRANCH  48  49
ATOM     49  N   UNL     1       4.576   4.464  -8.051  0.00  0.00    -0.230 N 
ATOM     50  C   UNL     1       4.087   4.687  -9.409  0.00  0.00    +0.128 C 
ATOM     51  C   UNL     1       5.170   4.718 -10.433  0.00  0.00    +0.096 C 
ATOM     52  N   UNL     1       6.329   5.478 -10.055  0.00  0.00    -0.268 NA
ATOM     53  C   UNL     1       7.461   4.584 -10.040  0.00  0.00    +0.090 C 
ATOM     54  C   UNL     1       6.130   6.115  -8.775  0.00  0.00    +0.096 C 
ATOM     55  C   UNL     1       5.906   4.991  -7.770  0.00  0.00    +0.128 C 
ENDBRANCH  48  49
ENDBRANCH  43  47
BRANCH   4  56
ATOM     56  O   UNL     1      -1.311   6.350   2.700  0.00  0.00    -0.452 OA
BRANCH  56  57
ATOM     57  C   UNL     1      -2.344   5.794   3.453  0.00  0.00    +0.317 C 
ATOM     58  O   UNL     1      -2.223   4.589   3.736  0.00  0.00    -0.250 OA
ATOM     59  C   UNL     1      -3.628   6.457   3.750  0.00  0.00    +0.121 C 
ENDBRANCH  56  57
ENDBRANCH   4  56
TORSDOF 5
ENDMDL
