MODEL 1
REMARK VINA RESULT:      -9.1      0.000      0.000
REMARK  Name = 
REMARK  13 active torsions:
REMARK  status: ('A' for Active; 'I' for Inactive)
REMARK    1  A    between atoms: C_3  and  C_4
REMARK    2  A    between atoms: C_4  and  C_5
REMARK    3  A    between atoms: C_5  and  C_7
REMARK    4  A    between atoms: C_7  and  C_9
REMARK    5  A    between atoms: C_10  and  C_11
REMARK    6  A    between atoms: C_15  and  C_16
REMARK    7  A    between atoms: C_16  and  C_17
REMARK    8  A    between atoms: C_17  and  C_18
REMARK    9  A    between atoms: C_18  and  C_19
REMARK   10  A    between atoms: C_19  and  O_21
REMARK   11  A    between atoms: O_21  and  C_22
REMARK   12  A    between atoms: C_22  and  C_23
REMARK   13  A    between atoms: C_23  and  C_25
REMARK                            x       y       z     vdW  Elec       q    Type
REMARK                         _______ _______ _______ _____ _____    ______ ____
ROOT
ATOM      1  C   UNL     1      -0.846   5.191  -6.500  0.00  0.00    +0.052 C 
ATOM      2  C   UNL     1      -2.333   6.031  -6.526  0.00  0.00    +0.156 C 
ATOM      3  O   UNL     1      -3.006   4.830  -5.883  0.00  0.00    -0.223 OA
ATOM      4  C   UNL     1      -2.196   6.774  -5.069  0.00  0.00    +0.034 C 
ATOM      5  C   UNL     1      -1.277   5.663  -4.353  0.00  0.00    +0.007 C 
ATOM      6  C   UNL     1      -0.555   6.630  -3.263  0.00  0.00    +0.022 C 
ATOM      7  C   UNL     1       0.728   5.842  -3.373  0.00  0.00    -0.048 C 
ATOM      8  C   UNL     1       1.792   6.147  -2.617  0.00  0.00    -0.035 C 
ATOM      9  C   UNL     1       0.893   5.228  -4.739  0.00  0.00    +0.022 C 
ATOM     10  C   UNL     1      -0.123   6.256  -5.440  0.00  0.00    +0.011 C 
ENDROOT
BRANCH   1  12
ATOM     11  C   UNL     1      -0.246   5.316  -8.949  0.00  0.00    +0.002 C 
ATOM     12  C   UNL     1      -0.287   5.925  -7.791  0.00  0.00    -0.026 C 
BRANCH  11  13
ATOM     13  C   UNL     1       0.845   5.949  -9.958  0.00  0.00    +0.175 C 
ATOM     14  O   UNL     1       1.446   4.584 -10.251  0.00  0.00    -0.218 OA
BRANCH  13  15
ATOM     15  C   UNL     1      -0.099   5.868 -11.393  0.00  0.00    +0.048 C 
ATOM     16  C   UNL     1      -0.662   7.386 -11.394  0.00  0.00    +0.004 C 
BRANCH  15  17
ATOM     17  C   UNL     1       1.195   6.302 -12.262  0.00  0.00    +0.079 C 
BRANCH  17  20
ATOM     18  C   UNL     1      -0.113   6.961 -16.016  0.00  0.00    +0.090 C 
ATOM     19  C   UNL     1       0.572   6.469 -14.810  0.00  0.00    -0.090 C 
ATOM     20  C   UNL     1       0.843   6.227 -13.671  0.00  0.00    -0.091 C 
ENDBRANCH  17  20
ENDBRANCH  15  17
ENDBRANCH  13  15
ENDBRANCH  11  13
ENDBRANCH   1  12
BRANCH   8  21
ATOM     21  C   UNL     1       2.807   5.041  -2.619  0.00  0.00    +0.026 C 
BRANCH  21  22
ATOM     22  C   UNL     1       4.146   5.736  -2.845  0.00  0.00    +0.016 C 
BRANCH  22  23
ATOM     23  C   UNL     1       4.814   5.147  -4.062  0.00  0.00    +0.110 C 
BRANCH  23  24
ATOM     24  C   UNL     1       4.330   5.868  -5.267  0.00  0.00    +0.317 C 
ATOM     25  O   UNL     1       4.189   7.124  -5.228  0.00  0.00    -0.250 OA
BRANCH  24  26
ATOM     26  O   UNL     1       4.251   5.310  -6.526  0.00  0.00    -0.440 OA
BRANCH  26  27
ATOM     27  C   UNL     1       3.871   6.100  -7.650  0.00  0.00    +0.277 C 
BRANCH  27  28
ATOM     28  C   UNL     1       4.273   5.380  -8.898  0.00  0.00    +0.217 C 
ATOM     29  O   UNL     1       4.333   4.117  -8.795  0.00  0.00    -0.287 OA
BRANCH  28  30
ATOM     30  C   UNL     1       5.294   6.000  -9.768  0.00  0.00    +0.038 A 
ATOM     31  C   UNL     1       6.641   5.794  -9.592  0.00  0.00    +0.003 A 
ATOM     32  C   UNL     1       7.638   6.521 -10.193  0.00  0.00    +0.000 A 
ATOM     33  C   UNL     1       7.207   7.487 -11.106  0.00  0.00    +0.000 A 
ATOM     34  C   UNL     1       5.847   7.744 -11.235  0.00  0.00    +0.000 A 
ATOM     35  C   UNL     1       4.875   7.061 -10.517  0.00  0.00    +0.003 A 
ENDBRANCH  28  30
ENDBRANCH  27  28
ENDBRANCH  26  27
ENDBRANCH  24  26
ENDBRANCH  23  24
ENDBRANCH  22  23
ENDBRANCH  21  22
ENDBRANCH   8  21
TORSDOF 13
ENDMDL
MODEL 2
REMARK VINA RESULT:      -9.1      2.456      5.918
REMARK  Name = 
REMARK  13 active torsions:
REMARK  status: ('A' for Active; 'I' for Inactive)
REMARK    1  A    between atoms: C_3  and  C_4
REMARK    2  A    between atoms: C_4  and  C_5
REMARK    3  A    between atoms: C_5  and  C_7
REMARK    4  A    between atoms: C_7  and  C_9
REMARK    5  A    between atoms: C_10  and  C_11
REMARK    6  A    between atoms: C_15  and  C_16
REMARK    7  A    between atoms: C_16  and  C_17
REMARK    8  A    between atoms: C_17  and  C_18
REMARK    9  A    between atoms: C_18  and  C_19
REMARK   10  A    between atoms: C_19  and  O_21
REMARK   11  A    between atoms: O_21  and  C_22
REMARK   12  A    between atoms: C_22  and  C_23
REMARK   13  A    between atoms: C_23  and  C_25
REMARK                            x       y       z     vdW  Elec       q    Type
REMARK                         _______ _______ _______ _____ _____    ______ ____
ROOT
ATOM      1  C   UNL     1       2.611   6.102  -0.478  0.00  0.00    +0.052 C 
ATOM      2  C   UNL     1       2.594   7.409   0.621  0.00  0.00    +0.156 C 
ATOM      3  O   UNL     1       3.917   6.929   1.191  0.00  0.00    -0.223 OA
ATOM      4  C   UNL     1       3.365   8.507  -0.325  0.00  0.00    +0.034 C 
ATOM      5  C   UNL     1       4.244   7.465  -1.181  0.00  0.00    +0.007 C 
ATOM      6  C   UNL     1       4.435   8.371  -2.519  0.00  0.00    +0.022 C 
ATOM      7  C   UNL     1       4.374   7.141  -3.392  0.00  0.00    -0.048 C 
ATOM      8  C   UNL     1       4.529   7.230  -4.721  0.00  0.00    -0.035 C 
ATOM      9  C   UNL     1       3.526   6.058  -2.778  0.00  0.00    +0.022 C 
ATOM     10  C   UNL     1       2.728   7.077  -1.826  0.00  0.00    +0.011 C 
ENDROOT
BRANCH   1  12
ATOM     11  C   UNL     1       0.441   5.187  -1.387  0.00  0.00    +0.002 C 
ATOM     12  C   UNL     1       1.029   6.004  -0.551  0.00  0.00    -0.026 C 
BRANCH  11  13
ATOM     13  C   UNL     1      -1.073   5.626  -1.742  0.00  0.00    +0.175 C 
ATOM     14  O   UNL     1      -0.922   6.942  -0.998  0.00  0.00    -0.218 OA
BRANCH  13  15
ATOM     15  C   UNL     1      -0.737   6.406  -3.237  0.00  0.00    +0.048 C 
ATOM     16  C   UNL     1       0.109   5.218  -3.941  0.00  0.00    +0.004 C 
BRANCH  15  17
ATOM     17  C   UNL     1      -2.125   5.833  -3.842  0.00  0.00    +0.079 C 
BRANCH  17  20
ATOM     18  C   UNL     1      -1.082   5.315  -7.699  0.00  0.00    +0.090 C 
ATOM     19  C   UNL     1      -1.790   5.575  -6.435  0.00  0.00    -0.090 C 
ATOM     20  C   UNL     1      -2.025   5.834  -5.292  0.00  0.00    -0.091 C 
ENDBRANCH  17  20
ENDBRANCH  15  17
ENDBRANCH  13  15
ENDBRANCH  11  13
ENDBRANCH   1  12
BRANCH   8  21
ATOM     21  C   UNL     1       4.794   5.887  -5.339  0.00  0.00    +0.026 C 
BRANCH  21  22
ATOM     22  C   UNL     1       3.869   5.822  -6.550  0.00  0.00    +0.016 C 
BRANCH  22  23
ATOM     23  C   UNL     1       2.736   6.799  -6.365  0.00  0.00    +0.110 C 
BRANCH  23  24
ATOM     24  C   UNL     1       2.231   7.202  -7.703  0.00  0.00    +0.317 C 
ATOM     25  O   UNL     1       2.173   8.429  -8.003  0.00  0.00    -0.250 OA
BRANCH  24  26
ATOM     26  O   UNL     1       2.046   6.333  -8.757  0.00  0.00    -0.440 OA
BRANCH  26  27
ATOM     27  C   UNL     1       2.662   6.578 -10.020  0.00  0.00    +0.277 C 
BRANCH  27  28
ATOM     28  C   UNL     1       3.726   5.549 -10.239  0.00  0.00    +0.217 C 
ATOM     29  O   UNL     1       3.564   4.464  -9.605  0.00  0.00    -0.287 OA
BRANCH  28  30
ATOM     30  C   UNL     1       5.125   6.006 -10.379  0.00  0.00    +0.038 A 
ATOM     31  C   UNL     1       6.141   5.535  -9.584  0.00  0.00    +0.003 A 
ATOM     32  C   UNL     1       7.395   6.087  -9.490  0.00  0.00    +0.000 A 
ATOM     33  C   UNL     1       7.638   7.165 -10.345  0.00  0.00    +0.000 A 
ATOM     34  C   UNL     1       6.594   7.686 -11.100  0.00  0.00    +0.000 A 
ATOM     35  C   UNL     1       5.307   7.166 -11.074  0.00  0.00    +0.003 A 
ENDBRANCH  28  30
ENDBRANCH  27  28
ENDBRANCH  26  27
ENDBRANCH  24  26
ENDBRANCH  23  24
ENDBRANCH  22  23
ENDBRANCH  21  22
ENDBRANCH   8  21
TORSDOF 13
ENDMDL
MODEL 3
REMARK VINA RESULT:      -8.8      2.402      7.396
REMARK  Name = 
REMARK  13 active torsions:
REMARK  status: ('A' for Active; 'I' for Inactive)
REMARK    1  A    between atoms: C_3  and  C_4
REMARK    2  A    between atoms: C_4  and  C_5
REMARK    3  A    between atoms: C_5  and  C_7
REMARK    4  A    between atoms: C_7  and  C_9
REMARK    5  A    between atoms: C_10  and  C_11
REMARK    6  A    between atoms: C_15  and  C_16
REMARK    7  A    between atoms: C_16  and  C_17
REMARK    8  A    between atoms: C_17  and  C_18
REMARK    9  A    between atoms: C_18  and  C_19
REMARK   10  A    between atoms: C_19  and  O_21
REMARK   11  A    between atoms: O_21  and  C_22
REMARK   12  A    between atoms: C_22  and  C_23
REMARK   13  A    between atoms: C_23  and  C_25
REMARK                            x       y       z     vdW  Elec       q    Type
REMARK                         _______ _______ _______ _____ _____    ______ ____
ROOT
ATOM      1  C   UNL     1       2.403   4.812  -6.009  0.00  0.00    +0.052 C 
ATOM      2  C   UNL     1       3.241   5.926  -5.022  0.00  0.00    +0.156 C 
ATOM      3  O   UNL     1       4.555   5.425  -5.596  0.00  0.00    -0.223 OA
ATOM      4  C   UNL     1       3.236   7.196  -6.063  0.00  0.00    +0.034 C 
ATOM      5  C   UNL     1       3.209   6.346  -7.430  0.00  0.00    +0.007 C 
ATOM      6  C   UNL     1       2.501   7.461  -8.380  0.00  0.00    +0.022 C 
ATOM      7  C   UNL     1       1.767   6.384  -9.141  0.00  0.00    -0.048 C 
ATOM      8  C   UNL     1       0.977   6.690 -10.180  0.00  0.00    -0.035 C 
ATOM      9  C   UNL     1       1.490   5.178  -8.281  0.00  0.00    +0.022 C 
ATOM     10  C   UNL     1       1.639   5.994  -6.906  0.00  0.00    +0.011 C 
ENDROOT
BRANCH   1  12
ATOM     11  C   UNL     1       0.072   5.293  -5.170  0.00  0.00    +0.002 C 
ATOM     12  C   UNL     1       1.198   4.652  -4.990  0.00  0.00    -0.026 C 
BRANCH  11  13
ATOM     13  C   UNL     1      -0.772   5.484  -3.805  0.00  0.00    +0.175 C 
ATOM     14  O   UNL     1       0.441   6.027  -3.068  0.00  0.00    -0.218 OA
BRANCH  13  15
ATOM     15  C   UNL     1      -1.333   7.081  -4.108  0.00  0.00    +0.048 C 
ATOM     16  C   UNL     1      -2.294   6.761  -5.371  0.00  0.00    +0.004 C 
BRANCH  15  17
ATOM     17  C   UNL     1      -2.550   6.845  -3.068  0.00  0.00    +0.079 C 
BRANCH  17  20
ATOM     18  C   UNL     1      -1.453   7.774   0.697  0.00  0.00    +0.090 C 
ATOM     19  C   UNL     1      -1.765   7.783  -0.742  0.00  0.00    -0.090 C 
ATOM     20  C   UNL     1      -2.210   7.498  -1.814  0.00  0.00    -0.091 C 
ENDBRANCH  17  20
ENDBRANCH  15  17
ENDBRANCH  13  15
ENDBRANCH  11  13
ENDBRANCH   1  12
BRANCH   8  21
ATOM     21  C   UNL     1       0.646   5.477 -11.000  0.00  0.00    +0.026 C 
BRANCH  21  22
ATOM     22  C   UNL     1       0.361   6.013 -12.399  0.00  0.00    +0.016 C 
BRANCH  22  23
ATOM     23  C   UNL     1       1.607   6.659 -12.949  0.00  0.00    +0.110 C 
BRANCH  23  24
ATOM     24  C   UNL     1       1.998   5.955 -14.197  0.00  0.00    +0.317 C 
ATOM     25  O   UNL     1       1.167   5.860 -15.146  0.00  0.00    -0.250 OA
BRANCH  24  26
ATOM     26  O   UNL     1       3.292   5.601 -14.516  0.00  0.00    -0.440 OA
BRANCH  26  27
ATOM     27  C   UNL     1       4.091   4.858 -13.597  0.00  0.00    +0.277 C 
BRANCH  27  28
ATOM     28  C   UNL     1       5.382   5.584 -13.392  0.00  0.00    +0.217 C 
ATOM     29  O   UNL     1       6.311   5.268 -14.195  0.00  0.00    -0.287 OA
BRANCH  28  30
ATOM     30  C   UNL     1       5.807   5.881 -12.008  0.00  0.00    +0.038 A 
ATOM     31  C   UNL     1       7.072   6.319 -11.699  0.00  0.00    +0.003 A 
ATOM     32  C   UNL     1       7.604   6.374 -10.434  0.00  0.00    +0.000 A 
ATOM     33  C   UNL     1       6.730   6.022  -9.402  0.00  0.00    +0.000 A 
ATOM     34  C   UNL     1       5.474   5.516  -9.716  0.00  0.00    +0.000 A 
ATOM     35  C   UNL     1       5.020   5.366 -11.019  0.00  0.00    +0.003 A 
ENDBRANCH  28  30
ENDBRANCH  27  28
ENDBRANCH  26  27
ENDBRANCH  24  26
ENDBRANCH  23  24
ENDBRANCH  22  23
ENDBRANCH  21  22
ENDBRANCH   8  21
TORSDOF 13
ENDMDL
MODEL 4
REMARK VINA RESULT:      -8.8      2.504      8.053
REMARK  Name = 
REMARK  13 active torsions:
REMARK  status: ('A' for Active; 'I' for Inactive)
REMARK    1  A    between atoms: C_3  and  C_4
REMARK    2  A    between atoms: C_4  and  C_5
REMARK    3  A    between atoms: C_5  and  C_7
REMARK    4  A    between atoms: C_7  and  C_9
REMARK    5  A    between atoms: C_10  and  C_11
REMARK    6  A    between atoms: C_15  and  C_16
REMARK    7  A    between atoms: C_16  and  C_17
REMARK    8  A    between atoms: C_17  and  C_18
REMARK    9  A    between atoms: C_18  and  C_19
REMARK   10  A    between atoms: C_19  and  O_21
REMARK   11  A    between atoms: O_21  and  C_22
REMARK   12  A    between atoms: C_22  and  C_23
REMARK   13  A    between atoms: C_23  and  C_25
REMARK                            x       y       z     vdW  Elec       q    Type
REMARK                         _______ _______ _______ _____ _____    ______ ____
ROOT
ATOM      1  C   UNL     1       1.590   6.527  -7.515  0.00  0.00    +0.052 C 
ATOM      2  C   UNL     1       0.907   5.096  -6.879  0.00  0.00    +0.156 C 
ATOM      3  O   UNL     1       0.071   4.952  -8.139  0.00  0.00    -0.223 OA
ATOM      4  C   UNL     1       2.020   4.039  -7.461  0.00  0.00    +0.034 C 
ATOM      5  C   UNL     1       2.441   4.877  -8.769  0.00  0.00    +0.007 C 
ATOM      6  C   UNL     1       3.945   4.282  -8.950  0.00  0.00    +0.022 C 
ATOM      7  C   UNL     1       4.443   5.619  -9.443  0.00  0.00    -0.048 C 
ATOM      8  C   UNL     1       5.715   5.780  -9.834  0.00  0.00    -0.035 C 
ATOM      9  C   UNL     1       3.660   6.762  -8.853  0.00  0.00    +0.022 C 
ATOM     10  C   UNL     1       3.131   5.896  -7.608  0.00  0.00    +0.011 C 
ENDROOT
BRANCH   1  12
ATOM     11  C   UNL     1       2.907   6.925  -5.399  0.00  0.00    +0.002 C 
ATOM     12  C   UNL     1       1.823   7.177  -6.087  0.00  0.00    -0.026 C 
BRANCH  11  13
ATOM     13  C   UNL     1       2.719   7.162  -3.812  0.00  0.00    +0.175 C 
ATOM     14  O   UNL     1       2.351   5.705  -3.584  0.00  0.00    -0.218 OA
BRANCH  13  15
ATOM     15  C   UNL     1       4.343   6.851  -3.343  0.00  0.00    +0.048 C 
ATOM     16  C   UNL     1       5.083   7.893  -4.336  0.00  0.00    +0.004 C 
BRANCH  15  17
ATOM     17  C   UNL     1       4.219   7.975  -2.186  0.00  0.00    +0.079 C 
BRANCH  17  20
ATOM     18  C   UNL     1       5.206   7.168   1.636  0.00  0.00    +0.090 C 
ATOM     19  C   UNL     1       4.900   7.104   0.198  0.00  0.00    -0.090 C 
ATOM     20  C   UNL     1       4.718   7.409  -0.944  0.00  0.00    -0.091 C 
ENDBRANCH  17  20
ENDBRANCH  15  17
ENDBRANCH  13  15
ENDBRANCH  11  13
ENDBRANCH   1  12
BRANCH   8  21
ATOM     21  C   UNL     1       5.900   7.050 -10.612  0.00  0.00    +0.026 C 
BRANCH  21  22
ATOM     22  C   UNL     1       7.225   6.874 -11.345  0.00  0.00    +0.016 C 
BRANCH  22  23
ATOM     23  C   UNL     1       6.972   6.836 -12.831  0.00  0.00    +0.110 C 
BRANCH  23  24
ATOM     24  C   UNL     1       6.739   5.426 -13.238  0.00  0.00    +0.317 C 
ATOM     25  O   UNL     1       7.647   4.565 -13.053  0.00  0.00    -0.250 OA
BRANCH  24  26
ATOM     26  O   UNL     1       5.507   4.911 -13.583  0.00  0.00    -0.440 OA
BRANCH  26  27
ATOM     27  C   UNL     1       4.431   5.776 -13.943  0.00  0.00    +0.277 C 
BRANCH  27  28
ATOM     28  C   UNL     1       3.144   5.035 -13.765  0.00  0.00    +0.217 C 
ATOM     29  O   UNL     1       2.932   4.113 -14.609  0.00  0.00    -0.287 OA
BRANCH  28  30
ATOM     30  C   UNL     1       1.951   5.795 -13.334  0.00  0.00    +0.038 A 
ATOM     31  C   UNL     1       1.233   6.594 -14.191  0.00  0.00    +0.003 A 
ATOM     32  C   UNL     1       0.282   7.508 -13.811  0.00  0.00    +0.000 A 
ATOM     33  C   UNL     1      -0.002   7.542 -12.443  0.00  0.00    +0.000 A 
ATOM     34  C   UNL     1       0.769   6.785 -11.568  0.00  0.00    +0.000 A 
ATOM     35  C   UNL     1       1.803   5.960 -11.988  0.00  0.00    +0.003 A 
ENDBRANCH  28  30
ENDBRANCH  27  28
ENDBRANCH  26  27
ENDBRANCH  24  26
ENDBRANCH  23  24
ENDBRANCH  22  23
ENDBRANCH  21  22
ENDBRANCH   8  21
TORSDOF 13
ENDMDL
MODEL 5
REMARK VINA RESULT:      -8.7      2.729      8.367
REMARK  Name = 
REMARK  13 active torsions:
REMARK  status: ('A' for Active; 'I' for Inactive)
REMARK    1  A    between atoms: C_3  and  C_4
REMARK    2  A    between atoms: C_4  and  C_5
REMARK    3  A    between atoms: C_5  and  C_7
REMARK    4  A    between atoms: C_7  and  C_9
REMARK    5  A    between atoms: C_10  and  C_11
REMARK    6  A    between atoms: C_15  and  C_16
REMARK    7  A    between atoms: C_16  and  C_17
REMARK    8  A    between atoms: C_17  and  C_18
REMARK    9  A    between atoms: C_18  and  C_19
REMARK   10  A    between atoms: C_19  and  O_21
REMARK   11  A    between atoms: O_21  and  C_22
REMARK   12  A    between atoms: C_22  and  C_23
REMARK   13  A    between atoms: C_23  and  C_25
REMARK                            x       y       z     vdW  Elec       q    Type
REMARK                         _______ _______ _______ _____ _____    ______ ____
ROOT
ATOM      1  C   UNL     1       1.999   6.198  -5.413  0.00  0.00    +0.052 C 
ATOM      2  C   UNL     1       0.759   5.076  -5.066  0.00  0.00    +0.156 C 
ATOM      3  O   UNL     1      -0.204   5.906  -5.898  0.00  0.00    -0.223 OA
ATOM      4  C   UNL     1       1.018   4.057  -6.327  0.00  0.00    +0.034 C 
ATOM      5  C   UNL     1       1.619   5.143  -7.353  0.00  0.00    +0.007 C 
ATOM      6  C   UNL     1       2.513   4.131  -8.260  0.00  0.00    +0.022 C 
ATOM      7  C   UNL     1       3.572   5.190  -8.445  0.00  0.00    -0.048 C 
ATOM      8  C   UNL     1       4.652   4.962  -9.207  0.00  0.00    -0.035 C 
ATOM      9  C   UNL     1       3.633   6.134  -7.272  0.00  0.00    +0.022 C 
ATOM     10  C   UNL     1       2.919   5.101  -6.270  0.00  0.00    +0.011 C 
ENDROOT
BRANCH   1  12
ATOM     11  C   UNL     1       3.168   6.933  -3.300  0.00  0.00    +0.002 C 
ATOM     12  C   UNL     1       2.763   5.938  -4.047  0.00  0.00    -0.026 C 
BRANCH  11  13
ATOM     13  C   UNL     1       4.386   6.532  -2.317  0.00  0.00    +0.175 C 
ATOM     14  O   UNL     1       5.304   7.568  -2.944  0.00  0.00    -0.218 OA
BRANCH  13  15
ATOM     15  C   UNL     1       4.005   7.610  -1.034  0.00  0.00    +0.048 C 
ATOM     16  C   UNL     1       2.591   6.960  -0.587  0.00  0.00    +0.004 C 
BRANCH  15  17
ATOM     17  C   UNL     1       4.815   6.661  -0.003  0.00  0.00    +0.079 C 
BRANCH  17  20
ATOM     18  C   UNL     1       6.562   9.081   2.705  0.00  0.00    +0.090 C 
ATOM     19  C   UNL     1       5.624   8.268   1.912  0.00  0.00    -0.090 C 
ATOM     20  C   UNL     1       5.174   7.454   1.161  0.00  0.00    -0.091 C 
ENDBRANCH  17  20
ENDBRANCH  15  17
ENDBRANCH  13  15
ENDBRANCH  11  13
ENDBRANCH   1  12
BRANCH   8  21
ATOM     21  C   UNL     1       5.372   6.235  -9.544  0.00  0.00    +0.026 C 
BRANCH  21  22
ATOM     22  C   UNL     1       6.753   5.793 -10.016  0.00  0.00    +0.016 C 
BRANCH  22  23
ATOM     23  C   UNL     1       7.020   6.370 -11.383  0.00  0.00    +0.110 C 
BRANCH  23  24
ATOM     24  C   UNL     1       6.744   5.325 -12.404  0.00  0.00    +0.317 C 
ATOM     25  O   UNL     1       7.679   4.564 -12.785  0.00  0.00    -0.250 OA
BRANCH  24  26
ATOM     26  O   UNL     1       5.480   4.944 -12.802  0.00  0.00    -0.440 OA
BRANCH  26  27
ATOM     27  C   UNL     1       4.471   5.920 -13.055  0.00  0.00    +0.277 C 
BRANCH  27  28
ATOM     28  C   UNL     1       3.179   5.213 -13.315  0.00  0.00    +0.217 C 
ATOM     29  O   UNL     1       2.931   4.976 -14.535  0.00  0.00    -0.287 OA
BRANCH  28  30
ATOM     30  C   UNL     1       2.009   5.561 -12.480  0.00  0.00    +0.038 A 
ATOM     31  C   UNL     1       2.037   6.572 -11.550  0.00  0.00    +0.003 A 
ATOM     32  C   UNL     1       1.088   6.784 -10.581  0.00  0.00    +0.000 A 
ATOM     33  C   UNL     1      -0.016   5.928 -10.629  0.00  0.00    +0.000 A 
ATOM     34  C   UNL     1      -0.015   4.864 -11.524  0.00  0.00    +0.000 A 
ATOM     35  C   UNL     1       1.026   4.618 -12.409  0.00  0.00    +0.003 A 
ENDBRANCH  28  30
ENDBRANCH  27  28
ENDBRANCH  26  27
ENDBRANCH  24  26
ENDBRANCH  23  24
ENDBRANCH  22  23
ENDBRANCH  21  22
ENDBRANCH   8  21
TORSDOF 13
ENDMDL
MODEL 6
REMARK VINA RESULT:      -8.6      2.653      5.894
REMARK  Name = 
REMARK  13 active torsions:
REMARK  status: ('A' for Active; 'I' for Inactive)
REMARK    1  A    between atoms: C_3  and  C_4
REMARK    2  A    between atoms: C_4  and  C_5
REMARK    3  A    between atoms: C_5  and  C_7
REMARK    4  A    between atoms: C_7  and  C_9
REMARK    5  A    between atoms: C_10  and  C_11
REMARK    6  A    between atoms: C_15  and  C_16
REMARK    7  A    between atoms: C_16  and  C_17
REMARK    8  A    between atoms: C_17  and  C_18
REMARK    9  A    between atoms: C_18  and  C_19
REMARK   10  A    between atoms: C_19  and  O_21
REMARK   11  A    between atoms: O_21  and  C_22
REMARK   12  A    between atoms: C_22  and  C_23
REMARK   13  A    between atoms: C_23  and  C_25
REMARK                            x       y       z     vdW  Elec       q    Type
REMARK                         _______ _______ _______ _____ _____    ______ ____
ROOT
ATOM      1  C   UNL     1       1.106   6.671   0.311  0.00  0.00    +0.052 C 
ATOM      2  C   UNL     1       1.093   8.066   1.296  0.00  0.00    +0.156 C 
ATOM      3  O   UNL     1       2.091   7.401   2.228  0.00  0.00    -0.223 OA
ATOM      4  C   UNL     1       2.298   8.885   0.540  0.00  0.00    +0.034 C 
ATOM      5  C   UNL     1       3.119   7.606   0.009  0.00  0.00    +0.007 C 
ATOM      6  C   UNL     1       3.836   8.308  -1.271  0.00  0.00    +0.022 C 
ATOM      7  C   UNL     1       3.735   7.028  -2.064  0.00  0.00    -0.048 C 
ATOM      8  C   UNL     1       4.239   6.942  -3.303  0.00  0.00    -0.035 C 
ATOM      9  C   UNL     1       2.544   6.203  -1.648  0.00  0.00    +0.022 C 
ATOM     10  C   UNL     1       1.771   7.454  -1.002  0.00  0.00    +0.011 C 
ENDROOT
BRANCH   1  12
ATOM     11  C   UNL     1      -0.949   6.026  -1.005  0.00  0.00    +0.002 C 
ATOM     12  C   UNL     1      -0.388   6.876  -0.183  0.00  0.00    -0.026 C 
BRANCH  11  13
ATOM     13  C   UNL     1      -2.178   6.668  -1.836  0.00  0.00    +0.175 C 
ATOM     14  O   UNL     1      -1.797   8.078  -1.414  0.00  0.00    -0.218 OA
BRANCH  13  15
ATOM     15  C   UNL     1      -1.358   6.868  -3.333  0.00  0.00    +0.048 C 
ATOM     16  C   UNL     1      -0.791   5.361  -3.499  0.00  0.00    +0.004 C 
BRANCH  15  17
ATOM     17  C   UNL     1      -2.719   6.489  -4.123  0.00  0.00    +0.079 C 
BRANCH  17  20
ATOM     18  C   UNL     1      -0.853   5.399  -7.524  0.00  0.00    +0.090 C 
ATOM     19  C   UNL     1      -1.795   5.575  -6.407  0.00  0.00    -0.090 C 
ATOM     20  C   UNL     1      -2.360   6.016  -5.449  0.00  0.00    -0.091 C 
ENDBRANCH  17  20
ENDBRANCH  15  17
ENDBRANCH  13  15
ENDBRANCH  11  13
ENDBRANCH   1  12
BRANCH   8  21
ATOM     21  C   UNL     1       4.355   5.515  -3.756  0.00  0.00    +0.026 C 
BRANCH  21  22
ATOM     22  C   UNL     1       4.138   5.562  -5.265  0.00  0.00    +0.016 C 
BRANCH  22  23
ATOM     23  C   UNL     1       3.809   6.975  -5.677  0.00  0.00    +0.110 C 
BRANCH  23  24
ATOM     24  C   UNL     1       2.915   6.929  -6.863  0.00  0.00    +0.317 C 
ATOM     25  O   UNL     1       2.569   8.008  -7.424  0.00  0.00    -0.250 OA
BRANCH  24  26
ATOM     26  O   UNL     1       2.621   5.782  -7.570  0.00  0.00    -0.440 OA
BRANCH  26  27
ATOM     27  C   UNL     1       2.607   5.788  -8.996  0.00  0.00    +0.277 C 
BRANCH  27  28
ATOM     28  C   UNL     1       3.864   5.145  -9.488  0.00  0.00    +0.217 C 
ATOM     29  O   UNL     1       4.128   4.017  -8.973  0.00  0.00    -0.287 OA
BRANCH  28  30
ATOM     30  C   UNL     1       5.030   6.008  -9.771  0.00  0.00    +0.038 A 
ATOM     31  C   UNL     1       4.992   7.023 -10.696  0.00  0.00    +0.003 A 
ATOM     32  C   UNL     1       6.088   7.692 -11.183  0.00  0.00    +0.000 A 
ATOM     33  C   UNL     1       7.311   7.334 -10.609  0.00  0.00    +0.000 A 
ATOM     34  C   UNL     1       7.360   6.263  -9.723  0.00  0.00    +0.000 A 
ATOM     35  C   UNL     1       6.238   5.536  -9.348  0.00  0.00    +0.003 A 
ENDBRANCH  28  30
ENDBRANCH  27  28
ENDBRANCH  26  27
ENDBRANCH  24  26
ENDBRANCH  23  24
ENDBRANCH  22  23
ENDBRANCH  21  22
ENDBRANCH   8  21
TORSDOF 13
ENDMDL
MODEL 7
REMARK VINA RESULT:      -8.5      2.643      6.863
REMARK  Name = 
REMARK  13 active torsions:
REMARK  status: ('A' for Active; 'I' for Inactive)
REMARK    1  A    between atoms: C_3  and  C_4
REMARK    2  A    between atoms: C_4  and  C_5
REMARK    3  A    between atoms: C_5  and  C_7
REMARK    4  A    between atoms: C_7  and  C_9
REMARK    5  A    between atoms: C_10  and  C_11
REMARK    6  A    between atoms: C_15  and  C_16
REMARK    7  A    between atoms: C_16  and  C_17
REMARK    8  A    between atoms: C_17  and  C_18
REMARK    9  A    between atoms: C_18  and  C_19
REMARK   10  A    between atoms: C_19  and  O_21
REMARK   11  A    between atoms: O_21  and  C_22
REMARK   12  A    between atoms: C_22  and  C_23
REMARK   13  A    between atoms: C_23  and  C_25
REMARK                            x       y       z     vdW  Elec       q    Type
REMARK                         _______ _______ _______ _____ _____    ______ ____
ROOT
ATOM      1  C   UNL     1       3.592   6.595  -6.865  0.00  0.00    +0.052 C 
ATOM      2  C   UNL     1       4.787   5.879  -5.877  0.00  0.00    +0.156 C 
ATOM      3  O   UNL     1       4.663   7.041  -4.907  0.00  0.00    -0.223 OA
ATOM      4  C   UNL     1       3.792   4.959  -4.951  0.00  0.00    +0.034 C 
ATOM      5  C   UNL     1       2.491   5.904  -5.040  0.00  0.00    +0.007 C 
ATOM      6  C   UNL     1       1.360   4.762  -4.791  0.00  0.00    +0.022 C 
ATOM      7  C   UNL     1       0.411   5.459  -5.736  0.00  0.00    -0.048 C 
ATOM      8  C   UNL     1      -0.826   4.988  -5.944  0.00  0.00    -0.035 C 
ATOM      9  C   UNL     1       1.146   6.218  -6.810  0.00  0.00    +0.022 C 
ATOM     10  C   UNL     1       2.493   5.360  -6.642  0.00  0.00    +0.011 C 
ENDROOT
BRANCH   1  12
ATOM     11  C   UNL     1       3.957   6.550  -9.362  0.00  0.00    +0.002 C 
ATOM     12  C   UNL     1       4.178   5.981  -8.205  0.00  0.00    -0.026 C 
BRANCH  11  13
ATOM     13  C   UNL     1       4.097   5.529 -10.606  0.00  0.00    +0.175 C 
ATOM     14  O   UNL     1       2.906   6.149 -11.318  0.00  0.00    -0.218 OA
BRANCH  13  15
ATOM     15  C   UNL     1       5.182   6.472 -11.550  0.00  0.00    +0.048 C 
ATOM     16  C   UNL     1       6.567   6.020 -10.844  0.00  0.00    +0.004 C 
BRANCH  15  17
ATOM     17  C   UNL     1       5.287   5.265 -12.624  0.00  0.00    +0.079 C 
BRANCH  17  20
ATOM     18  C   UNL     1       6.994   6.617 -16.014  0.00  0.00    +0.090 C 
ATOM     19  C   UNL     1       6.700   6.194 -14.636  0.00  0.00    -0.090 C 
ATOM     20  C   UNL     1       6.191   5.677 -13.685  0.00  0.00    -0.091 C 
ENDBRANCH  17  20
ENDBRANCH  15  17
ENDBRANCH  13  15
ENDBRANCH  11  13
ENDBRANCH   1  12
BRANCH   8  21
ATOM     21  C   UNL     1      -1.702   6.006  -6.614  0.00  0.00    +0.026 C 
BRANCH  21  22
ATOM     22  C   UNL     1      -2.760   6.361  -5.575  0.00  0.00    +0.016 C 
BRANCH  22  23
ATOM     23  C   UNL     1      -2.309   7.571  -4.796  0.00  0.00    +0.110 C 
BRANCH  23  24
ATOM     24  C   UNL     1      -2.093   7.173  -3.381  0.00  0.00    +0.317 C 
ATOM     25  O   UNL     1      -3.085   7.061  -2.606  0.00  0.00    -0.250 OA
BRANCH  24  26
ATOM     26  O   UNL     1      -0.907   6.669  -2.890  0.00  0.00    -0.440 OA
BRANCH  26  27
ATOM     27  C   UNL     1      -0.907   5.656  -1.885  0.00  0.00    +0.277 C 
BRANCH  27  28
ATOM     28  C   UNL     1       0.097   6.022  -0.839  0.00  0.00    +0.217 C 
ATOM     29  O   UNL     1      -0.192   7.046  -0.150  0.00  0.00    -0.287 OA
BRANCH  28  30
ATOM     30  C   UNL     1       1.531   5.844  -1.151  0.00  0.00    +0.038 A 
ATOM     31  C   UNL     1       2.152   4.619  -1.111  0.00  0.00    +0.003 A 
ATOM     32  C   UNL     1       3.509   4.418  -1.143  0.00  0.00    +0.000 A 
ATOM     33  C   UNL     1       4.281   5.571  -1.309  0.00  0.00    +0.000 A 
ATOM     34  C   UNL     1       3.661   6.816  -1.282  0.00  0.00    +0.000 A 
ATOM     35  C   UNL     1       2.291   6.977  -1.128  0.00  0.00    +0.003 A 
ENDBRANCH  28  30
ENDBRANCH  27  28
ENDBRANCH  26  27
ENDBRANCH  24  26
ENDBRANCH  23  24
ENDBRANCH  22  23
ENDBRANCH  21  22
ENDBRANCH   8  21
TORSDOF 13
ENDMDL
MODEL 8
REMARK VINA RESULT:      -8.5      2.084      4.456
REMARK  Name = 
REMARK  13 active torsions:
REMARK  status: ('A' for Active; 'I' for Inactive)
REMARK    1  A    between atoms: C_3  and  C_4
REMARK    2  A    between atoms: C_4  and  C_5
REMARK    3  A    between atoms: C_5  and  C_7
REMARK    4  A    between atoms: C_7  and  C_9
REMARK    5  A    between atoms: C_10  and  C_11
REMARK    6  A    between atoms: C_15  and  C_16
REMARK    7  A    between atoms: C_16  and  C_17
REMARK    8  A    between atoms: C_17  and  C_18
REMARK    9  A    between atoms: C_18  and  C_19
REMARK   10  A    between atoms: C_19  and  O_21
REMARK   11  A    between atoms: O_21  and  C_22
REMARK   12  A    between atoms: C_22  and  C_23
REMARK   13  A    between atoms: C_23  and  C_25
REMARK                            x       y       z     vdW  Elec       q    Type
REMARK                         _______ _______ _______ _____ _____    ______ ____
ROOT
ATOM      1  C   UNL     1      -1.195   5.740  -0.723  0.00  0.00    +0.052 C 
ATOM      2  C   UNL     1      -1.947   7.066   0.047  0.00  0.00    +0.156 C 
ATOM      3  O   UNL     1      -1.676   6.420   1.394  0.00  0.00    -0.223 OA
ATOM      4  C   UNL     1      -0.619   8.019   0.201  0.00  0.00    +0.034 C 
ATOM      5  C   UNL     1       0.474   6.840   0.287  0.00  0.00    +0.007 C 
ATOM      6  C   UNL     1       1.754   7.673  -0.272  0.00  0.00    +0.022 C 
ATOM      7  C   UNL     1       2.288   6.441  -0.962  0.00  0.00    -0.048 C 
ATOM      8  C   UNL     1       3.453   6.471  -1.624  0.00  0.00    -0.035 C 
ATOM      9  C   UNL     1       1.182   5.506  -1.375  0.00  0.00    +0.022 C 
ATOM     10  C   UNL     1       0.057   6.652  -1.342  0.00  0.00    +0.011 C 
ENDROOT
BRANCH   1  12
ATOM     11  C   UNL     1      -1.637   5.436  -3.190  0.00  0.00    +0.002 C 
ATOM     12  C   UNL     1      -2.079   5.863  -2.035  0.00  0.00    -0.026 C 
BRANCH  11  13
ATOM     13  C   UNL     1      -2.361   6.147  -4.447  0.00  0.00    +0.175 C 
ATOM     14  O   UNL     1      -2.257   7.519  -3.800  0.00  0.00    -0.218 OA
BRANCH  13  15
ATOM     15  C   UNL     1      -0.949   6.453  -5.379  0.00  0.00    +0.048 C 
ATOM     16  C   UNL     1      -0.128   5.105  -5.018  0.00  0.00    +0.004 C 
BRANCH  15  17
ATOM     17  C   UNL     1      -1.642   5.739  -6.655  0.00  0.00    +0.079 C 
BRANCH  17  20
ATOM     18  C   UNL     1       0.458   4.919  -9.994  0.00  0.00    +0.090 C 
ATOM     19  C   UNL     1      -0.091   5.511  -8.763  0.00  0.00    -0.090 C 
ATOM     20  C   UNL     1      -0.657   5.653  -7.720  0.00  0.00    -0.091 C 
ENDBRANCH  17  20
ENDBRANCH  15  17
ENDBRANCH  13  15
ENDBRANCH  11  13
ENDBRANCH   1  12
BRANCH   8  21
ATOM     21  C   UNL     1       3.962   5.088  -1.913  0.00  0.00    +0.026 C 
BRANCH  21  22
ATOM     22  C   UNL     1       4.711   5.212  -3.236  0.00  0.00    +0.016 C 
BRANCH  22  23
ATOM     23  C   UNL     1       3.948   4.483  -4.312  0.00  0.00    +0.110 C 
BRANCH  23  24
ATOM     24  C   UNL     1       3.640   5.437  -5.409  0.00  0.00    +0.317 C 
ATOM     25  O   UNL     1       3.917   6.662  -5.265  0.00  0.00    -0.250 OA
BRANCH  24  26
ATOM     26  O   UNL     1       3.297   5.061  -6.690  0.00  0.00    -0.440 OA
BRANCH  26  27
ATOM     27  C   UNL     1       3.276   6.017  -7.748  0.00  0.00    +0.277 C 
BRANCH  27  28
ATOM     28  C   UNL     1       3.956   5.424  -8.941  0.00  0.00    +0.217 C 
ATOM     29  O   UNL     1       4.024   4.158  -8.947  0.00  0.00    -0.287 OA
BRANCH  28  30
ATOM     30  C   UNL     1       5.125   6.131  -9.506  0.00  0.00    +0.038 A 
ATOM     31  C   UNL     1       5.019   7.029 -10.539  0.00  0.00    +0.003 A 
ATOM     32  C   UNL     1       6.072   7.526 -11.268  0.00  0.00    +0.000 A 
ATOM     33  C   UNL     1       7.339   7.119 -10.842  0.00  0.00    +0.000 A 
ATOM     34  C   UNL     1       7.446   6.160  -9.841  0.00  0.00    +0.000 A 
ATOM     35  C   UNL     1       6.346   5.595  -9.211  0.00  0.00    +0.003 A 
ENDBRANCH  28  30
ENDBRANCH  27  28
ENDBRANCH  26  27
ENDBRANCH  24  26
ENDBRANCH  23  24
ENDBRANCH  22  23
ENDBRANCH  21  22
ENDBRANCH   8  21
TORSDOF 13
ENDMDL
MODEL 9
REMARK VINA RESULT:      -8.5      4.204      8.738
REMARK  Name = 
REMARK  13 active torsions:
REMARK  status: ('A' for Active; 'I' for Inactive)
REMARK    1  A    between atoms: C_3  and  C_4
REMARK    2  A    between atoms: C_4  and  C_5
REMARK    3  A    between atoms: C_5  and  C_7
REMARK    4  A    between atoms: C_7  and  C_9
REMARK    5  A    between atoms: C_10  and  C_11
REMARK    6  A    between atoms: C_15  and  C_16
REMARK    7  A    between atoms: C_16  and  C_17
REMARK    8  A    between atoms: C_17  and  C_18
REMARK    9  A    between atoms: C_18  and  C_19
REMARK   10  A    between atoms: C_19  and  O_21
REMARK   11  A    between atoms: O_21  and  C_22
REMARK   12  A    between atoms: C_22  and  C_23
REMARK   13  A    between atoms: C_23  and  C_25
REMARK                            x       y       z     vdW  Elec       q    Type
REMARK                         _______ _______ _______ _____ _____    ______ ____
ROOT
ATOM      1  C   UNL     1       3.097   9.987   0.182  0.00  0.00    +0.052 C 
ATOM      2  C   UNL     1       4.447  10.305   1.180  0.00  0.00    +0.156 C 
ATOM      3  O   UNL     1       4.138  11.790   1.101  0.00  0.00    -0.223 OA
ATOM      4  C   UNL     1       3.686  10.192   2.630  0.00  0.00    +0.034 C 
ATOM      5  C   UNL     1       2.225  10.654   2.135  0.00  0.00    +0.007 C 
ATOM      6  C   UNL     1       1.346   9.896   3.275  0.00  0.00    +0.022 C 
ATOM      7  C   UNL     1       0.243   9.622   2.282  0.00  0.00    -0.048 C 
ATOM      8  C   UNL     1      -0.886   9.007   2.657  0.00  0.00    -0.035 C 
ATOM      9  C   UNL     1       0.774   9.488   0.878  0.00  0.00    +0.022 C 
ATOM     10  C   UNL     1       2.268   9.149   1.362  0.00  0.00    +0.011 C 
ENDROOT
BRANCH   1  12
ATOM     11  C   UNL     1       3.857   8.548  -1.748  0.00  0.00    +0.002 C 
ATOM     12  C   UNL     1       3.737   8.681  -0.451  0.00  0.00    -0.026 C 
BRANCH  11  13
ATOM     13  C   UNL     1       3.957   7.006  -2.219  0.00  0.00    +0.175 C 
ATOM     14  O   UNL     1       2.456   6.812  -2.087  0.00  0.00    -0.218 OA
BRANCH  13  15
ATOM     15  C   UNL     1       3.798   7.276  -3.909  0.00  0.00    +0.048 C 
ATOM     16  C   UNL     1       5.302   7.794  -4.211  0.00  0.00    +0.004 C 
BRANCH  15  17
ATOM     17  C   UNL     1       4.226   5.740  -4.189  0.00  0.00    +0.079 C 
BRANCH  17  20
ATOM     18  C   UNL     1       4.412   5.720  -8.214  0.00  0.00    +0.090 C 
ATOM     19  C   UNL     1       4.225   5.386  -6.793  0.00  0.00    -0.090 C 
ATOM     20  C   UNL     1       4.073   5.476  -5.610  0.00  0.00    -0.091 C 
ENDBRANCH  17  20
ENDBRANCH  15  17
ENDBRANCH  13  15
ENDBRANCH  11  13
ENDBRANCH   1  12
BRANCH   8  21
ATOM     21  C   UNL     1      -1.969   9.160   1.628  0.00  0.00    +0.026 C 
BRANCH  21  22
ATOM     22  C   UNL     1      -2.714   7.829   1.639  0.00  0.00    +0.016 C 
BRANCH  22  23
ATOM     23  C   UNL     1      -1.779   6.730   1.201  0.00  0.00    +0.110 C 
BRANCH  23  24
ATOM     24  C   UNL     1      -1.666   6.762  -0.280  0.00  0.00    +0.317 C 
ATOM     25  O   UNL     1      -0.522   6.762  -0.819  0.00  0.00    -0.250 OA
BRANCH  24  26
ATOM     26  O   UNL     1      -2.719   6.541  -1.144  0.00  0.00    -0.440 OA
BRANCH  26  27
ATOM     27  C   UNL     1      -2.661   6.996  -2.494  0.00  0.00    +0.277 C 
BRANCH  27  28
ATOM     28  C   UNL     1      -2.698   5.807  -3.400  0.00  0.00    +0.217 C 
ATOM     29  O   UNL     1      -2.917   4.698  -2.825  0.00  0.00    -0.287 OA
BRANCH  28  30
ATOM     30  C   UNL     1      -1.754   5.763  -4.538  0.00  0.00    +0.038 A 
ATOM     31  C   UNL     1      -2.169   5.613  -5.838  0.00  0.00    +0.003 A 
ATOM     32  C   UNL     1      -1.352   5.317  -6.901  0.00  0.00    +0.000 A 
ATOM     33  C   UNL     1       0.012   5.248  -6.605  0.00  0.00    +0.000 A 
ATOM     34  C   UNL     1       0.427   5.332  -5.281  0.00  0.00    +0.000 A 
ATOM     35  C   UNL     1      -0.450   5.514  -4.221  0.00  0.00    +0.003 A 
ENDBRANCH  28  30
ENDBRANCH  27  28
ENDBRANCH  26  27
ENDBRANCH  24  26
ENDBRANCH  23  24
ENDBRANCH  22  23
ENDBRANCH  21  22
ENDBRANCH   8  21
TORSDOF 13
ENDMDL
