MODEL 1
REMARK VINA RESULT:      -7.1      0.000      0.000
REMARK  Name = 
REMARK  1 active torsions:
REMARK  status: ('A' for Active; 'I' for Inactive)
REMARK    1  A    between atoms: S_2  and  C_5
REMARK                            x       y       z     vdW  Elec       q    Type
REMARK                         _______ _______ _______ _____ _____    ______ ____
ROOT
ATOM      1  C   UNL     1       5.483   5.936 -11.067  0.00  0.00    +0.137 A 
ATOM      2  C   UNL     1       6.301   5.858  -9.948  0.00  0.00    +0.078 A 
ATOM      3 CL   UNL     1       7.918   6.493 -10.123  0.00  0.00    -0.081 Cl
ATOM      4  C   UNL     1       5.717   5.598  -8.714  0.00  0.00    +0.030 A 
ATOM      5  C   UNL     1       4.349   5.478  -8.632  0.00  0.00    +0.087 A 
ATOM      6  N   UNL     1       3.650   4.902  -7.552  0.00  0.00    -0.215 NA
ATOM      7  C   UNL     1       2.403   4.182  -7.796  0.00  0.00    +0.227 C 
ATOM      8  N   UNL     1       1.349   5.056  -8.248  0.00  0.00    -0.054 NA
ATOM      9  S   UNL     1       1.908   6.266  -9.336  0.00  0.00    +0.080 S 
ATOM     10  O   UNL     1       1.068   6.372 -10.567  0.00  0.00    -0.152 OA
ATOM     11  O   UNL     1       1.861   7.566  -8.598  0.00  0.00    -0.152 OA
ATOM     12  C   UNL     1       3.572   5.908  -9.703  0.00  0.00    +0.140 A 
ATOM     13  C   UNL     1       4.100   5.950 -10.978  0.00  0.00    +0.042 A 
ENDROOT
BRANCH   1  15
ATOM     14  N   UNL     1       4.970   4.746 -13.548  0.00  0.00    +0.039 NA
ATOM     15  S   UNL     1       6.189   5.588 -12.642  0.00  0.00    +0.094 S 
ATOM     16  O   UNL     1       7.361   4.661 -12.511  0.00  0.00    -0.150 OA
ATOM     17  O   UNL     1       6.537   6.869 -13.332  0.00  0.00    -0.150 OA
ENDBRANCH   1  15
TORSDOF 1
ENDMDL
MODEL 2
REMARK VINA RESULT:      -6.9      5.542      8.627
REMARK  Name = 
REMARK  1 active torsions:
REMARK  status: ('A' for Active; 'I' for Inactive)
REMARK    1  A    between atoms: S_2  and  C_5
REMARK                            x       y       z     vdW  Elec       q    Type
REMARK                         _______ _______ _______ _____ _____    ______ ____
ROOT
ATOM      1  C   UNL     1      -0.599   6.100  -4.063  0.00  0.00    +0.137 A 
ATOM      2  C   UNL     1      -1.380   6.215  -5.205  0.00  0.00    +0.078 A 
ATOM      3 CL   UNL     1      -2.909   7.036  -5.020  0.00  0.00    -0.081 Cl
ATOM      4  C   UNL     1      -0.789   5.980  -6.441  0.00  0.00    +0.030 A 
ATOM      5  C   UNL     1       0.555   5.693  -6.497  0.00  0.00    +0.087 A 
ATOM      6  N   UNL     1       1.214   5.118  -7.604  0.00  0.00    -0.215 NA
ATOM      7  C   UNL     1       2.352   4.228  -7.388  0.00  0.00    +0.227 C 
ATOM      8  N   UNL     1       3.490   4.922  -6.838  0.00  0.00    -0.054 NA
ATOM      9  S   UNL     1       3.049   6.105  -5.670  0.00  0.00    +0.080 S 
ATOM     10  O   UNL     1       3.851   6.006  -4.413  0.00  0.00    -0.152 OA
ATOM     11  O   UNL     1       3.284   7.442  -6.298  0.00  0.00    -0.152 OA
ATOM     12  C   UNL     1       1.341   5.935  -5.376  0.00  0.00    +0.140 A 
ATOM     13  C   UNL     1       0.777   5.945  -4.116  0.00  0.00    +0.042 A 
ENDROOT
BRANCH   1  15
ATOM     14  N   UNL     1      -0.214   4.926  -1.552  0.00  0.00    +0.039 NA
ATOM     15  S   UNL     1      -1.398   5.723  -2.541  0.00  0.00    +0.094 S 
ATOM     16  O   UNL     1      -2.524   4.754  -2.752  0.00  0.00    -0.150 OA
ATOM     17  O   UNL     1      -1.840   6.989  -1.877  0.00  0.00    -0.150 OA
ENDBRANCH   1  15
TORSDOF 1
ENDMDL
MODEL 3
REMARK VINA RESULT:      -6.7      6.306      7.738
REMARK  Name = 
REMARK  1 active torsions:
REMARK  status: ('A' for Active; 'I' for Inactive)
REMARK    1  A    between atoms: S_2  and  C_5
REMARK                            x       y       z     vdW  Elec       q    Type
REMARK                         _______ _______ _______ _____ _____    ______ ____
ROOT
ATOM      1  C   UNL     1       1.705   5.220  -4.675  0.00  0.00    +0.137 A 
ATOM      2  C   UNL     1       1.234   4.755  -5.895  0.00  0.00    +0.078 A 
ATOM      3 CL   UNL     1       2.228   3.578  -6.715  0.00  0.00    -0.081 Cl
ATOM      4  C   UNL     1      -0.097   4.987  -6.225  0.00  0.00    +0.030 A 
ATOM      5  C   UNL     1      -0.912   5.620  -5.316  0.00  0.00    +0.087 A 
ATOM      6  N   UNL     1      -2.156   6.210  -5.619  0.00  0.00    -0.215 NA
ATOM      7  C   UNL     1      -2.593   7.396  -4.888  0.00  0.00    +0.227 C 
ATOM      8  N   UNL     1      -2.860   7.113  -3.500  0.00  0.00    -0.054 NA
ATOM      9  S   UNL     1      -1.731   6.011  -2.816  0.00  0.00    +0.080 S 
ATOM     10  O   UNL     1      -1.179   6.480  -1.509  0.00  0.00    -0.152 OA
ATOM     11  O   UNL     1      -2.459   4.721  -2.605  0.00  0.00    -0.152 OA
ATOM     12  C   UNL     1      -0.482   5.743  -4.000  0.00  0.00    +0.140 A 
ATOM     13  C   UNL     1       0.866   5.737  -3.701  0.00  0.00    +0.042 A 
ENDROOT
BRANCH   1  15
ATOM     14  N   UNL     1       3.592   6.665  -3.197  0.00  0.00    +0.039 NA
ATOM     15  S   UNL     1       3.427   5.551  -4.519  0.00  0.00    +0.094 S 
ATOM     16  O   UNL     1       3.955   6.237  -5.744  0.00  0.00    -0.150 OA
ATOM     17  O   UNL     1       4.158   4.283  -4.205  0.00  0.00    -0.150 OA
ENDBRANCH   1  15
TORSDOF 1
ENDMDL
MODEL 4
REMARK VINA RESULT:      -6.6      2.503      5.155
REMARK  Name = 
REMARK  1 active torsions:
REMARK  status: ('A' for Active; 'I' for Inactive)
REMARK    1  A    between atoms: S_2  and  C_5
REMARK                            x       y       z     vdW  Elec       q    Type
REMARK                         _______ _______ _______ _____ _____    ______ ____
ROOT
ATOM      1  C   UNL     1       3.130   5.307 -10.585  0.00  0.00    +0.137 A 
ATOM      2  C   UNL     1       3.607   4.845  -9.367  0.00  0.00    +0.078 A 
ATOM      3 CL   UNL     1       2.579   3.734  -8.499  0.00  0.00    -0.081 Cl
ATOM      4  C   UNL     1       4.955   5.020  -9.071  0.00  0.00    +0.030 A 
ATOM      5  C   UNL     1       5.778   5.595 -10.012  0.00  0.00    +0.087 A 
ATOM      6  N   UNL     1       7.055   6.131  -9.750  0.00  0.00    -0.215 NA
ATOM      7  C   UNL     1       7.530   7.280 -10.517  0.00  0.00    +0.227 C 
ATOM      8  N   UNL     1       7.750   6.956 -11.904  0.00  0.00    -0.054 NA
ATOM      9  S   UNL     1       6.555   5.895 -12.538  0.00  0.00    +0.080 S 
ATOM     10  O   UNL     1       5.995   6.363 -13.842  0.00  0.00    -0.152 OA
ATOM     11  O   UNL     1       7.216   4.568 -12.737  0.00  0.00    -0.152 OA
ATOM     12  C   UNL     1       5.323   5.712 -11.321  0.00  0.00    +0.140 A 
ATOM     13  C   UNL     1       3.969   5.764 -11.589  0.00  0.00    +0.042 A 
ENDROOT
BRANCH   1  15
ATOM     14  N   UNL     1       1.258   6.700 -12.131  0.00  0.00    +0.039 NA
ATOM     15  S   UNL     1       1.422   5.717 -10.710  0.00  0.00    +0.094 S 
ATOM     16  O   UNL     1       0.984   6.551  -9.542  0.00  0.00    -0.150 OA
ATOM     17  O   UNL     1       0.614   4.467 -10.865  0.00  0.00    -0.150 OA
ENDBRANCH   1  15
TORSDOF 1
ENDMDL
MODEL 5
REMARK VINA RESULT:      -6.6      2.516      3.162
REMARK  Name = 
REMARK  1 active torsions:
REMARK  status: ('A' for Active; 'I' for Inactive)
REMARK    1  A    between atoms: S_2  and  C_5
REMARK                            x       y       z     vdW  Elec       q    Type
REMARK                         _______ _______ _______ _____ _____    ______ ____
ROOT
ATOM      1  C   UNL     1       5.313   5.617 -11.220  0.00  0.00    +0.137 A 
ATOM      2  C   UNL     1       4.186   5.662 -12.029  0.00  0.00    +0.078 A 
ATOM      3 CL   UNL     1       4.337   4.942 -13.612  0.00  0.00    -0.081 Cl
ATOM      4  C   UNL     1       2.961   5.964 -11.446  0.00  0.00    +0.030 A 
ATOM      5  C   UNL     1       2.896   6.156 -10.085  0.00  0.00    +0.087 A 
ATOM      6  N   UNL     1       1.828   6.778  -9.406  0.00  0.00    -0.215 NA
ATOM      7  C   UNL     1       2.093   7.560  -8.201  0.00  0.00    +0.227 C 
ATOM      8  N   UNL     1       2.550   6.739  -7.108  0.00  0.00    -0.054 NA
ATOM      9  S   UNL     1       3.620   5.491  -7.614  0.00  0.00    +0.080 S 
ATOM     10  O   UNL     1       4.861   5.418  -6.784  0.00  0.00    -0.152 OA
ATOM     11  O   UNL     1       2.872   4.202  -7.491  0.00  0.00    -0.152 OA
ATOM     12  C   UNL     1       3.971   5.758  -9.299  0.00  0.00    +0.140 A 
ATOM     13  C   UNL     1       5.240   5.676  -9.838  0.00  0.00    +0.042 A 
ENDROOT
BRANCH   1  15
ATOM     14  N   UNL     1       7.914   6.511 -10.698  0.00  0.00    +0.039 NA
ATOM     15  S   UNL     1       6.883   5.914 -11.960  0.00  0.00    +0.094 S 
ATOM     16  O   UNL     1       6.790   6.989 -13.002  0.00  0.00    -0.150 OA
ATOM     17  O   UNL     1       7.436   4.632 -12.499  0.00  0.00    -0.150 OA
ENDBRANCH   1  15
TORSDOF 1
ENDMDL
MODEL 6
REMARK VINA RESULT:      -6.4      6.690      9.040
REMARK  Name = 
REMARK  1 active torsions:
REMARK  status: ('A' for Active; 'I' for Inactive)
REMARK    1  A    between atoms: S_2  and  C_5
REMARK                            x       y       z     vdW  Elec       q    Type
REMARK                         _______ _______ _______ _____ _____    ______ ____
ROOT
ATOM      1  C   UNL     1      -0.328   5.976  -3.527  0.00  0.00    +0.137 A 
ATOM      2  C   UNL     1      -0.534   5.465  -4.800  0.00  0.00    +0.078 A 
ATOM      3 CL   UNL     1      -2.108   5.741  -5.503  0.00  0.00    -0.081 Cl
ATOM      4  C   UNL     1       0.571   5.071  -5.545  0.00  0.00    +0.030 A 
ATOM      5  C   UNL     1       1.830   5.248  -5.021  0.00  0.00    +0.087 A 
ATOM      6  N   UNL     1       2.999   4.615  -5.491  0.00  0.00    -0.215 NA
ATOM      7  C   UNL     1       4.065   4.270  -4.553  0.00  0.00    +0.227 C 
ATOM      8  N   UNL     1       4.701   5.438  -3.998  0.00  0.00    -0.054 NA
ATOM      9  S   UNL     1       3.589   6.704  -3.657  0.00  0.00    +0.080 S 
ATOM     10  O   UNL     1       3.759   7.273  -2.285  0.00  0.00    -0.152 OA
ATOM     11  O   UNL     1       3.834   7.780  -4.667  0.00  0.00    -0.152 OA
ATOM     12  C   UNL     1       1.986   6.072  -3.912  0.00  0.00    +0.140 A 
ATOM     13  C   UNL     1       0.934   6.282  -3.043  0.00  0.00    +0.042 A 
ENDROOT
BRANCH   1  15
ATOM     14  N   UNL     1      -2.532   7.326  -2.453  0.00  0.00    +0.039 NA
ATOM     15  S   UNL     1      -1.634   5.844  -2.353  0.00  0.00    +0.094 S 
ATOM     16  O   UNL     1      -1.093   5.747  -0.957  0.00  0.00    -0.150 OA
ATOM     17  O   UNL     1      -2.519   4.692  -2.713  0.00  0.00    -0.150 OA
ENDBRANCH   1  15
TORSDOF 1
ENDMDL
MODEL 7
REMARK VINA RESULT:      -6.3      5.577      7.460
REMARK  Name = 
REMARK  1 active torsions:
REMARK  status: ('A' for Active; 'I' for Inactive)
REMARK    1  A    between atoms: S_2  and  C_5
REMARK                            x       y       z     vdW  Elec       q    Type
REMARK                         _______ _______ _______ _____ _____    ______ ____
ROOT
ATOM      1  C   UNL     1       1.463   6.268  -5.727  0.00  0.00    +0.137 A 
ATOM      2  C   UNL     1       0.359   5.934  -6.499  0.00  0.00    +0.078 A 
ATOM      3 CL   UNL     1       0.683   5.106  -8.001  0.00  0.00    -0.081 Cl
ATOM      4  C   UNL     1      -0.900   5.975  -5.911  0.00  0.00    +0.030 A 
ATOM      5  C   UNL     1      -1.006   6.292  -4.577  0.00  0.00    +0.087 A 
ATOM      6  N   UNL     1      -2.195   6.692  -3.933  0.00  0.00    -0.215 NA
ATOM      7  C   UNL     1      -2.136   7.643  -2.826  0.00  0.00    +0.227 C 
ATOM      8  N   UNL     1      -1.478   7.092  -1.668  0.00  0.00    -0.054 NA
ATOM      9  S   UNL     1      -0.125   6.112  -2.074  0.00  0.00    +0.080 S 
ATOM     10  O   UNL     1       1.097   6.450  -1.282  0.00  0.00    -0.152 OA
ATOM     11  O   UNL     1      -0.515   4.695  -1.792  0.00  0.00    -0.152 OA
ATOM     12  C   UNL     1       0.139   6.272  -3.789  0.00  0.00    +0.140 A 
ATOM     13  C   UNL     1       1.383   6.458  -4.357  0.00  0.00    +0.042 A 
ENDROOT
BRANCH   1  15
ATOM     14  N   UNL     1       3.925   7.533  -5.309  0.00  0.00    +0.039 NA
ATOM     15  S   UNL     1       2.901   6.872  -6.545  0.00  0.00    +0.094 S 
ATOM     16  O   UNL     1       2.554   7.993  -7.480  0.00  0.00    -0.150 OA
ATOM     17  O   UNL     1       3.602   5.742  -7.231  0.00  0.00    -0.150 OA
ENDBRANCH   1  15
TORSDOF 1
ENDMDL
MODEL 8
REMARK VINA RESULT:      -6.3      5.466      8.415
REMARK  Name = 
REMARK  1 active torsions:
REMARK  status: ('A' for Active; 'I' for Inactive)
REMARK    1  A    between atoms: S_2  and  C_5
REMARK                            x       y       z     vdW  Elec       q    Type
REMARK                         _______ _______ _______ _____ _____    ______ ____
ROOT
ATOM      1  C   UNL     1      -0.246   5.542  -3.651  0.00  0.00    +0.137 A 
ATOM      2  C   UNL     1       0.863   5.512  -2.817  0.00  0.00    +0.078 A 
ATOM      3 CL   UNL     1       0.619   4.850  -1.221  0.00  0.00    -0.081 Cl
ATOM      4  C   UNL     1       2.122   5.693  -3.379  0.00  0.00    +0.030 A 
ATOM      5  C   UNL     1       2.232   5.842  -4.742  0.00  0.00    +0.087 A 
ATOM      6  N   UNL     1       3.363   6.353  -5.411  0.00  0.00    -0.215 NA
ATOM      7  C   UNL     1       3.192   7.123  -6.641  0.00  0.00    +0.227 C 
ATOM      8  N   UNL     1       2.689   6.314  -7.724  0.00  0.00    -0.054 NA
ATOM      9  S   UNL     1       1.506   5.177  -7.212  0.00  0.00    +0.080 S 
ATOM     10  O   UNL     1       0.281   5.187  -8.069  0.00  0.00    -0.152 OA
ATOM     11  O   UNL     1       2.144   3.825  -7.286  0.00  0.00    -0.152 OA
ATOM     12  C   UNL     1       1.143   5.517  -5.543  0.00  0.00    +0.140 A 
ATOM     13  C   UNL     1      -0.139   5.557  -5.032  0.00  0.00    +0.042 A 
ENDROOT
BRANCH   1  15
ATOM     14  N   UNL     1      -2.736   6.673  -4.248  0.00  0.00    +0.039 NA
ATOM     15  S   UNL     1      -1.800   5.990  -2.955  0.00  0.00    +0.094 S 
ATOM     16  O   UNL     1      -1.634   7.059  -1.916  0.00  0.00    -0.150 OA
ATOM     17  O   UNL     1      -2.485   4.770  -2.425  0.00  0.00    -0.150 OA
ENDBRANCH   1  15
TORSDOF 1
ENDMDL
MODEL 9
REMARK VINA RESULT:      -6.2      2.286      5.252
REMARK  Name = 
REMARK  1 active torsions:
REMARK  status: ('A' for Active; 'I' for Inactive)
REMARK    1  A    between atoms: S_2  and  C_5
REMARK                            x       y       z     vdW  Elec       q    Type
REMARK                         _______ _______ _______ _____ _____    ______ ____
ROOT
ATOM      1  C   UNL     1       3.009   6.120  -9.669  0.00  0.00    +0.137 A 
ATOM      2  C   UNL     1       4.123   5.824  -8.897  0.00  0.00    +0.078 A 
ATOM      3 CL   UNL     1       3.819   5.090  -7.343  0.00  0.00    -0.081 Cl
ATOM      4  C   UNL     1       5.372   5.819  -9.507  0.00  0.00    +0.030 A 
ATOM      5  C   UNL     1       5.458   6.056 -10.859  0.00  0.00    +0.087 A 
ATOM      6  N   UNL     1       6.639   6.406 -11.546  0.00  0.00    -0.215 NA
ATOM      7  C   UNL     1       6.567   7.290 -12.707  0.00  0.00    +0.227 C 
ATOM      8  N   UNL     1       5.886   6.676 -13.818  0.00  0.00    -0.054 NA
ATOM      9  S   UNL     1       4.533   5.733 -13.332  0.00  0.00    +0.080 S 
ATOM     10  O   UNL     1       3.301   6.033 -14.123  0.00  0.00    -0.152 OA
ATOM     11  O   UNL     1       4.908   4.299 -13.535  0.00  0.00    -0.152 OA
ATOM     12  C   UNL     1       4.300   5.997 -11.626  0.00  0.00    +0.140 A 
ATOM     13  C   UNL     1       3.067   6.227 -11.049  0.00  0.00    +0.042 A 
ENDROOT
BRANCH   1  15
ATOM     14  N   UNL     1       2.153   8.113  -7.900  0.00  0.00    +0.039 NA
ATOM     15  S   UNL     1       1.590   6.784  -8.865  0.00  0.00    +0.094 S 
ATOM     16  O   UNL     1       0.987   5.780  -7.927  0.00  0.00    -0.150 OA
ATOM     17  O   UNL     1       0.617   7.279  -9.888  0.00  0.00    -0.150 OA
ENDBRANCH   1  15
TORSDOF 1
ENDMDL
