MODEL 1
REMARK VINA RESULT:      -9.1      0.000      0.000
REMARK  Name = 
REMARK  6 active torsions:
REMARK  status: ('A' for Active; 'I' for Inactive)
REMARK    1  A    between atoms: C_5  and  C_6
REMARK    2  A    between atoms: C_6  and  C_14
REMARK    3  A    between atoms: C_7  and  C_8
REMARK    4  A    between atoms: C_8  and  N_9
REMARK    5  A    between atoms: C_18  and  C_19
REMARK    6  A    between atoms: C_20  and  C_21
REMARK                            x       y       z     vdW  Elec       q    Type
REMARK                         _______ _______ _______ _____ _____    ______ ____
ROOT
ATOM      1  C   UNL     1       3.387   6.442  -6.682  0.00  0.00    +0.015 C 
ATOM      2  C   UNL     1       2.106   6.660  -6.452  0.00  0.00    -0.007 C 
ENDROOT
BRANCH   1   7
ATOM      3  C   UNL     1       3.616   6.369  -1.404  0.00  0.00    +0.031 C 
ATOM      4  C   UNL     1       4.394   6.298  -2.681  0.00  0.00    -0.022 A 
ATOM      5  C   UNL     1       4.599   7.466  -3.404  0.00  0.00    -0.004 A 
ATOM      6  C   UNL     1       4.650   7.430  -4.792  0.00  0.00    -0.000 A 
ATOM      7  C   UNL     1       4.244   6.304  -5.498  0.00  0.00    +0.001 A 
ATOM      8  C   UNL     1       4.336   5.111  -4.791  0.00  0.00    -0.000 A 
ATOM      9  C   UNL     1       4.499   5.120  -3.411  0.00  0.00    -0.004 A 
ENDBRANCH   1   7
BRANCH   1  10
ATOM     10  C   UNL     1       3.810   5.873  -7.968  0.00  0.00    +0.081 A 
ATOM     11  N   UNL     1       5.073   6.027  -8.371  0.00  0.00    -0.245 NA
ATOM     12  C   UNL     1       5.406   5.957  -9.683  0.00  0.00    +0.082 A 
ATOM     13  C   UNL     1       4.519   5.285 -10.509  0.00  0.00    +0.019 A 
ATOM     14  C   UNL     1       3.175   5.230 -10.188  0.00  0.00    +0.003 A 
ATOM     15  C   UNL     1       2.831   5.735  -8.942  0.00  0.00    +0.019 A 
BRANCH  12  16
ATOM     16  C   UNL     1       6.829   5.740  -9.978  0.00  0.00    +0.026 C 
ATOM     17  C   UNL     1       7.437   6.270 -11.016  0.00  0.00    +0.088 C 
BRANCH  17  18
ATOM     18  C   UNL     1       8.282   5.502 -11.938  0.00  0.00    +0.388 C 
ATOM     19  O   UNL     1       9.606   5.844 -12.162  0.00  0.00    -0.241 OA
ATOM     20  O   UNL     1       7.698   4.562 -12.558  0.00  0.00    -0.241 OA
ENDBRANCH  17  18
ENDBRANCH  12  16
ENDBRANCH   1  10
BRANCH   2  21
ATOM     21  C   UNL     1       1.438   6.395  -5.156  0.00  0.00    +0.099 C 
BRANCH  21  22
ATOM     22  N   UNL     1       0.316   5.506  -5.347  0.00  0.00    -0.269 NA
ATOM     23  C   UNL     1      -0.129   5.481  -6.716  0.00  0.00    +0.072 C 
ATOM     24  C   UNL     1      -1.625   5.336  -6.694  0.00  0.00    +0.019 C 
ATOM     25  C   UNL     1      -2.044   5.810  -5.326  0.00  0.00    +0.019 C 
ATOM     26  C   UNL     1      -0.776   5.982  -4.537  0.00  0.00    +0.072 C 
ENDBRANCH  21  22
ENDBRANCH   2  21
TORSDOF 6
ENDMDL
MODEL 2
REMARK VINA RESULT:      -9.1      4.082      7.115
REMARK  Name = 
REMARK  6 active torsions:
REMARK  status: ('A' for Active; 'I' for Inactive)
REMARK    1  A    between atoms: C_5  and  C_6
REMARK    2  A    between atoms: C_6  and  C_14
REMARK    3  A    between atoms: C_7  and  C_8
REMARK    4  A    between atoms: C_8  and  N_9
REMARK    5  A    between atoms: C_18  and  C_19
REMARK    6  A    between atoms: C_20  and  C_21
REMARK                            x       y       z     vdW  Elec       q    Type
REMARK                         _______ _______ _______ _____ _____    ______ ____
ROOT
ATOM      1  C   UNL     1       3.295   5.160  -6.942  0.00  0.00    +0.015 C 
ATOM      2  C   UNL     1       4.009   4.890  -8.019  0.00  0.00    -0.007 C 
ENDROOT
BRANCH   1   7
ATOM      3  C   UNL     1       3.052   6.675  -1.886  0.00  0.00    +0.031 C 
ATOM      4  C   UNL     1       3.934   6.464  -3.077  0.00  0.00    -0.022 A 
ATOM      5  C   UNL     1       3.881   7.383  -4.117  0.00  0.00    -0.004 A 
ATOM      6  C   UNL     1       4.067   6.966  -5.430  0.00  0.00    -0.000 A 
ATOM      7  C   UNL     1       4.046   5.618  -5.766  0.00  0.00    +0.001 A 
ATOM      8  C   UNL     1       4.391   4.756  -4.732  0.00  0.00    -0.000 A 
ATOM      9  C   UNL     1       4.419   5.207  -3.417  0.00  0.00    -0.004 A 
ENDBRANCH   1   7
BRANCH   1  10
ATOM     10  C   UNL     1       1.868   5.475  -7.073  0.00  0.00    +0.081 A 
ATOM     11  N   UNL     1       1.082   5.425  -5.995  0.00  0.00    -0.245 NA
ATOM     12  C   UNL     1      -0.256   5.241  -6.107  0.00  0.00    +0.082 A 
ATOM     13  C   UNL     1      -0.821   5.561  -7.331  0.00  0.00    +0.019 A 
ATOM     14  C   UNL     1      -0.068   5.484  -8.488  0.00  0.00    +0.003 A 
ATOM     15  C   UNL     1       1.286   5.234  -8.310  0.00  0.00    +0.019 A 
BRANCH  12  16
ATOM     16  C   UNL     1      -1.059   5.597  -4.930  0.00  0.00    +0.026 C 
ATOM     17  C   UNL     1      -0.537   5.829  -3.746  0.00  0.00    +0.088 C 
BRANCH  17  18
ATOM     18  C   UNL     1      -1.036   5.219  -2.508  0.00  0.00    +0.388 C 
ATOM     19  O   UNL     1      -0.190   4.942  -1.447  0.00  0.00    -0.241 OA
ATOM     20  O   UNL     1      -2.265   4.905  -2.512  0.00  0.00    -0.241 OA
ENDBRANCH  17  18
ENDBRANCH  12  16
ENDBRANCH   1  10
BRANCH   2  21
ATOM     21  C   UNL     1       5.394   5.369  -8.240  0.00  0.00    +0.099 C 
BRANCH  21  22
ATOM     22  N   UNL     1       5.619   5.609  -9.647  0.00  0.00    -0.269 NA
ATOM     23  C   UNL     1       6.970   6.026  -9.916  0.00  0.00    +0.072 C 
ATOM     24  C   UNL     1       6.911   7.025 -11.039  0.00  0.00    +0.019 C 
ATOM     25  C   UNL     1       5.495   7.543 -11.025  0.00  0.00    +0.019 C 
ATOM     26  C   UNL     1       4.738   6.667 -10.068  0.00  0.00    +0.072 C 
ENDBRANCH  21  22
ENDBRANCH   2  21
TORSDOF 6
ENDMDL
MODEL 3
REMARK VINA RESULT:      -8.9      2.002      4.651
REMARK  Name = 
REMARK  6 active torsions:
REMARK  status: ('A' for Active; 'I' for Inactive)
REMARK    1  A    between atoms: C_5  and  C_6
REMARK    2  A    between atoms: C_6  and  C_14
REMARK    3  A    between atoms: C_7  and  C_8
REMARK    4  A    between atoms: C_8  and  N_9
REMARK    5  A    between atoms: C_18  and  C_19
REMARK    6  A    between atoms: C_20  and  C_21
REMARK                            x       y       z     vdW  Elec       q    Type
REMARK                         _______ _______ _______ _____ _____    ______ ____
ROOT
ATOM      1  C   UNL     1       0.233   5.245  -6.519  0.00  0.00    +0.015 C 
ATOM      2  C   UNL     1       1.000   4.689  -5.601  0.00  0.00    -0.007 C 
ENDROOT
BRANCH   1   7
ATOM      3  C   UNL     1      -2.461   6.911  -2.290  0.00  0.00    +0.031 C 
ATOM      4  C   UNL     1      -2.349   6.945  -3.783  0.00  0.00    -0.022 A 
ATOM      5  C   UNL     1      -2.746   5.828  -4.507  0.00  0.00    -0.004 A 
ATOM      6  C   UNL     1      -2.087   5.485  -5.681  0.00  0.00    -0.000 A 
ATOM      7  C   UNL     1      -0.875   6.071  -6.023  0.00  0.00    +0.001 A 
ATOM      8  C   UNL     1      -0.666   7.333  -5.480  0.00  0.00    -0.000 A 
ATOM      9  C   UNL     1      -1.457   7.789  -4.432  0.00  0.00    -0.004 A 
ENDBRANCH   1   7
BRANCH   1  10
ATOM     10  C   UNL     1       0.751   5.445  -7.878  0.00  0.00    +0.081 A 
ATOM     11  N   UNL     1       1.946   6.017  -8.048  0.00  0.00    -0.245 NA
ATOM     12  C   UNL     1       2.268   6.641  -9.207  0.00  0.00    +0.082 A 
ATOM     13  C   UNL     1       1.535   6.280 -10.326  0.00  0.00    +0.019 A 
ATOM     14  C   UNL     1       0.239   5.818 -10.190  0.00  0.00    +0.003 A 
ATOM     15  C   UNL     1      -0.188   5.596  -8.888  0.00  0.00    +0.019 A 
BRANCH  12  16
ATOM     16  C   UNL     1       3.700   6.873  -9.440  0.00  0.00    +0.026 C 
ATOM     17  C   UNL     1       4.503   5.964  -9.945  0.00  0.00    +0.088 C 
BRANCH  17  18
ATOM     18  C   UNL     1       5.802   5.614  -9.357  0.00  0.00    +0.388 C 
ATOM     19  O   UNL     1       6.992   5.938  -9.988  0.00  0.00    -0.241 OA
ATOM     20  O   UNL     1       5.750   4.943  -8.282  0.00  0.00    -0.241 OA
ENDBRANCH  17  18
ENDBRANCH  12  16
ENDBRANCH   1  10
BRANCH   2  21
ATOM     21  C   UNL     1       1.062   5.134  -4.188  0.00  0.00    +0.099 C 
BRANCH  21  22
ATOM     22  N   UNL     1       2.409   5.533  -3.851  0.00  0.00    -0.269 NA
ATOM     23  C   UNL     1       2.608   6.951  -3.998  0.00  0.00    +0.072 C 
ATOM     24  C   UNL     1       4.012   7.153  -4.495  0.00  0.00    +0.019 C 
ATOM     25  C   UNL     1       4.399   5.836  -5.117  0.00  0.00    +0.019 C 
ATOM     26  C   UNL     1       3.313   4.865  -4.751  0.00  0.00    +0.072 C 
ENDBRANCH  21  22
ENDBRANCH   2  21
TORSDOF 6
ENDMDL
MODEL 4
REMARK VINA RESULT:      -8.8      4.295      8.594
REMARK  Name = 
REMARK  6 active torsions:
REMARK  status: ('A' for Active; 'I' for Inactive)
REMARK    1  A    between atoms: C_5  and  C_6
REMARK    2  A    between atoms: C_6  and  C_14
REMARK    3  A    between atoms: C_7  and  C_8
REMARK    4  A    between atoms: C_8  and  N_9
REMARK    5  A    between atoms: C_18  and  C_19
REMARK    6  A    between atoms: C_20  and  C_21
REMARK                            x       y       z     vdW  Elec       q    Type
REMARK                         _______ _______ _______ _____ _____    ______ ____
ROOT
ATOM      1  C   UNL     1       2.247   6.524  -8.763  0.00  0.00    +0.015 C 
ATOM      2  C   UNL     1       3.431   6.553  -9.344  0.00  0.00    -0.007 C 
ENDROOT
BRANCH   1   7
ATOM      3  C   UNL     1       0.738   4.616 -13.454  0.00  0.00    +0.031 C 
ATOM      4  C   UNL     1       0.291   5.120 -12.117  0.00  0.00    -0.022 A 
ATOM      5  C   UNL     1       0.342   6.485 -11.867  0.00  0.00    -0.004 A 
ATOM      6  C   UNL     1       0.628   6.953 -10.590  0.00  0.00    -0.000 A 
ATOM      7  C   UNL     1       1.121   6.104  -9.607  0.00  0.00    +0.001 A 
ATOM      8  C   UNL     1       0.784   4.766  -9.773  0.00  0.00    -0.000 A 
ATOM      9  C   UNL     1       0.292   4.308 -10.989  0.00  0.00    -0.004 A 
ENDBRANCH   1   7
BRANCH   1  10
ATOM     10  C   UNL     1       2.155   6.410  -7.302  0.00  0.00    +0.081 A 
ATOM     11  N   UNL     1       0.958   6.262  -6.729  0.00  0.00    -0.245 NA
ATOM     12  C   UNL     1       0.749   6.613  -5.436  0.00  0.00    +0.082 A 
ATOM     13  C   UNL     1       1.873   6.686  -4.628  0.00  0.00    +0.019 A 
ATOM     14  C   UNL     1       3.107   6.980  -5.177  0.00  0.00    +0.003 A 
ATOM     15  C   UNL     1       3.155   7.027  -6.564  0.00  0.00    +0.019 A 
BRANCH  12  16
ATOM     16  C   UNL     1      -0.449   6.051  -4.799  0.00  0.00    +0.026 C 
ATOM     17  C   UNL     1      -0.797   6.318  -3.561  0.00  0.00    +0.088 C 
BRANCH  17  18
ATOM     18  C   UNL     1      -1.163   5.287  -2.582  0.00  0.00    +0.388 C 
ATOM     19  O   UNL     1      -2.483   4.918  -2.380  0.00  0.00    -0.241 OA
ATOM     20  O   UNL     1      -0.203   4.820  -1.898  0.00  0.00    -0.241 OA
ENDBRANCH  17  18
ENDBRANCH  12  16
ENDBRANCH   1  10
BRANCH   2  21
ATOM     21  C   UNL     1       3.753   5.851 -10.609  0.00  0.00    +0.099 C 
BRANCH  21  22
ATOM     22  N   UNL     1       5.177   5.625 -10.705  0.00  0.00    -0.269 NA
ATOM     23  C   UNL     1       5.792   5.483  -9.410  0.00  0.00    +0.072 C 
ATOM     24  C   UNL     1       7.153   6.115  -9.493  0.00  0.00    +0.019 C 
ATOM     25  C   UNL     1       7.074   7.060 -10.665  0.00  0.00    +0.019 C 
ATOM     26  C   UNL     1       5.769   6.768 -11.351  0.00  0.00    +0.072 C 
ENDBRANCH  21  22
ENDBRANCH   2  21
TORSDOF 6
ENDMDL
MODEL 5
REMARK VINA RESULT:      -8.4      2.786      5.523
REMARK  Name = 
REMARK  6 active torsions:
REMARK  status: ('A' for Active; 'I' for Inactive)
REMARK    1  A    between atoms: C_5  and  C_6
REMARK    2  A    between atoms: C_6  and  C_14
REMARK    3  A    between atoms: C_7  and  C_8
REMARK    4  A    between atoms: C_8  and  N_9
REMARK    5  A    between atoms: C_18  and  C_19
REMARK    6  A    between atoms: C_20  and  C_21
REMARK                            x       y       z     vdW  Elec       q    Type
REMARK                         _______ _______ _______ _____ _____    ______ ____
ROOT
ATOM      1  C   UNL     1       4.449   5.369  -8.930  0.00  0.00    +0.015 C 
ATOM      2  C   UNL     1       4.830   5.309  -7.668  0.00  0.00    -0.007 C 
ENDROOT
BRANCH   1   7
ATOM      3  C   UNL     1       0.512   4.967 -12.431  0.00  0.00    +0.031 C 
ATOM      4  C   UNL     1       0.893   5.322 -11.027  0.00  0.00    -0.022 A 
ATOM      5  C   UNL     1       1.543   6.527 -10.796  0.00  0.00    -0.004 A 
ATOM      6  C   UNL     1       2.493   6.627  -9.786  0.00  0.00    -0.000 A 
ATOM      7  C   UNL     1       3.005   5.495  -9.165  0.00  0.00    +0.001 A 
ATOM      8  C   UNL     1       2.164   4.389  -9.189  0.00  0.00    -0.000 A 
ATOM      9  C   UNL     1       1.073   4.351 -10.049  0.00  0.00    -0.004 A 
ENDBRANCH   1   7
BRANCH   1  10
ATOM     10  C   UNL     1       5.403   5.797  -9.960  0.00  0.00    +0.081 A 
ATOM     11  N   UNL     1       5.170   5.492 -11.239  0.00  0.00    -0.245 NA
ATOM     12  C   UNL     1       6.178   5.431 -12.143  0.00  0.00    +0.082 A 
ATOM     13  C   UNL     1       7.336   6.121 -11.821  0.00  0.00    +0.019 A 
ATOM     14  C   UNL     1       7.678   6.328 -10.498  0.00  0.00    +0.003 A 
ATOM     15  C   UNL     1       6.723   5.953  -9.563  0.00  0.00    +0.019 A 
BRANCH  12  16
ATOM     16  C   UNL     1       5.783   5.489 -13.557  0.00  0.00    +0.026 C 
ATOM     17  C   UNL     1       6.355   6.285 -14.432  0.00  0.00    +0.088 C 
BRANCH  17  18
ATOM     18  C   UNL     1       5.606   7.153 -15.348  0.00  0.00    +0.388 C 
ATOM     19  O   UNL     1       4.406   6.747 -15.910  0.00  0.00    -0.241 OA
ATOM     20  O   UNL     1       6.167   8.253 -15.637  0.00  0.00    -0.241 OA
ENDBRANCH  17  18
ENDBRANCH  12  16
ENDBRANCH   1  10
BRANCH   2  21
ATOM     21  C   UNL     1       3.989   5.736  -6.524  0.00  0.00    +0.099 C 
BRANCH  21  22
ATOM     22  N   UNL     1       4.708   5.558  -5.284  0.00  0.00    -0.269 NA
ATOM     23  C   UNL     1       4.007   4.693  -4.370  0.00  0.00    +0.072 C 
ATOM     24  C   UNL     1       4.255   5.219  -2.984  0.00  0.00    +0.019 C 
ATOM     25  C   UNL     1       4.650   6.661  -3.177  0.00  0.00    +0.019 C 
ATOM     26  C   UNL     1       4.845   6.846  -4.656  0.00  0.00    +0.072 C 
ENDBRANCH  21  22
ENDBRANCH   2  21
TORSDOF 6
ENDMDL
MODEL 6
REMARK VINA RESULT:      -8.4      4.539      7.250
REMARK  Name = 
REMARK  6 active torsions:
REMARK  status: ('A' for Active; 'I' for Inactive)
REMARK    1  A    between atoms: C_5  and  C_6
REMARK    2  A    between atoms: C_6  and  C_14
REMARK    3  A    between atoms: C_7  and  C_8
REMARK    4  A    between atoms: C_8  and  N_9
REMARK    5  A    between atoms: C_18  and  C_19
REMARK    6  A    between atoms: C_20  and  C_21
REMARK                            x       y       z     vdW  Elec       q    Type
REMARK                         _______ _______ _______ _____ _____    ______ ____
ROOT
ATOM      1  C   UNL     1       1.627   6.861  -5.657  0.00  0.00    +0.015 C 
ATOM      2  C   UNL     1       1.749   6.782  -6.968  0.00  0.00    -0.007 C 
ENDROOT
BRANCH   1   7
ATOM      3  C   UNL     1      -1.632   7.087  -1.503  0.00  0.00    +0.031 C 
ATOM      4  C   UNL     1      -1.416   6.549  -2.884  0.00  0.00    -0.022 A 
ATOM      5  C   UNL     1      -0.530   5.495  -3.059  0.00  0.00    -0.004 A 
ATOM      6  C   UNL     1       0.229   5.403  -4.220  0.00  0.00    -0.000 A 
ATOM      7  C   UNL     1       0.323   6.471  -5.103  0.00  0.00    +0.001 A 
ATOM      8  C   UNL     1      -0.754   7.348  -5.072  0.00  0.00    -0.000 A 
ATOM      9  C   UNL     1      -1.657   7.319  -4.016  0.00  0.00    -0.004 A 
ENDBRANCH   1   7
BRANCH   1  10
ATOM     10  C   UNL     1       2.825   6.830  -4.810  0.00  0.00    +0.081 A 
ATOM     11  N   UNL     1       2.826   7.487  -3.648  0.00  0.00    -0.245 NA
ATOM     12  C   UNL     1       3.983   7.887  -3.066  0.00  0.00    +0.082 A 
ATOM     13  C   UNL     1       5.131   7.217  -3.455  0.00  0.00    +0.019 A 
ATOM     14  C   UNL     1       5.214   6.647  -4.712  0.00  0.00    +0.003 A 
ATOM     15  C   UNL     1       4.041   6.655  -5.455  0.00  0.00    +0.019 A 
BRANCH  12  16
ATOM     16  C   UNL     1       3.905   8.228  -1.640  0.00  0.00    +0.026 C 
ATOM     17  C   UNL     1       4.516   7.541  -0.701  0.00  0.00    +0.088 C 
BRANCH  17  18
ATOM     18  C   UNL     1       3.854   7.078   0.525  0.00  0.00    +0.388 C 
ATOM     19  O   UNL     1       2.474   7.069   0.642  0.00  0.00    -0.241 OA
ATOM     20  O   UNL     1       4.630   6.760   1.476  0.00  0.00    -0.241 OA
ENDBRANCH  17  18
ENDBRANCH  12  16
ENDBRANCH   1  10
BRANCH   2  21
ATOM     21  C   UNL     1       0.846   5.996  -7.842  0.00  0.00    +0.099 C 
BRANCH  21  22
ATOM     22  N   UNL     1       1.618   5.215  -8.781  0.00  0.00    -0.269 NA
ATOM     23  C   UNL     1       2.437   4.230  -8.123  0.00  0.00    +0.072 C 
ATOM     24  C   UNL     1       3.717   4.124  -8.904  0.00  0.00    +0.019 C 
ATOM     25  C   UNL     1       3.813   5.418  -9.673  0.00  0.00    +0.019 C 
ATOM     26  C   UNL     1       2.491   6.109  -9.496  0.00  0.00    +0.072 C 
ENDBRANCH  21  22
ENDBRANCH   2  21
TORSDOF 6
ENDMDL
MODEL 7
REMARK VINA RESULT:      -8.3      4.857      8.307
REMARK  Name = 
REMARK  6 active torsions:
REMARK  status: ('A' for Active; 'I' for Inactive)
REMARK    1  A    between atoms: C_5  and  C_6
REMARK    2  A    between atoms: C_6  and  C_14
REMARK    3  A    between atoms: C_7  and  C_8
REMARK    4  A    between atoms: C_8  and  N_9
REMARK    5  A    between atoms: C_18  and  C_19
REMARK    6  A    between atoms: C_20  and  C_21
REMARK                            x       y       z     vdW  Elec       q    Type
REMARK                         _______ _______ _______ _____ _____    ______ ____
ROOT
ATOM      1  C   UNL     1       1.151   6.409  -5.707  0.00  0.00    +0.015 C 
ATOM      2  C   UNL     1       2.033   6.418  -4.725  0.00  0.00    -0.007 C 
ENDROOT
BRANCH   1   7
ATOM      3  C   UNL     1       5.402   5.212  -8.608  0.00  0.00    +0.031 C 
ATOM      4  C   UNL     1       3.919   5.417  -8.605  0.00  0.00    -0.022 A 
ATOM      5  C   UNL     1       3.425   6.713  -8.536  0.00  0.00    -0.004 A 
ATOM      6  C   UNL     1       2.238   6.974  -7.862  0.00  0.00    -0.000 A 
ATOM      7  C   UNL     1       1.659   6.023  -7.030  0.00  0.00    +0.001 A 
ATOM      8  C   UNL     1       1.980   4.707  -7.340  0.00  0.00    -0.000 A 
ATOM      9  C   UNL     1       3.043   4.422  -8.189  0.00  0.00    -0.004 A 
ENDBRANCH   1   7
BRANCH   1  10
ATOM     10  C   UNL     1      -0.279   6.281  -5.401  0.00  0.00    +0.081 A 
ATOM     11  N   UNL     1      -0.669   6.129  -4.134  0.00  0.00    -0.245 NA
ATOM     12  C   UNL     1      -1.858   5.555  -3.828  0.00  0.00    +0.082 A 
ATOM     13  C   UNL     1      -2.819   5.558  -4.827  0.00  0.00    +0.019 A 
ATOM     14  C   UNL     1      -2.440   5.570  -6.157  0.00  0.00    +0.003 A 
ATOM     15  C   UNL     1      -1.084   5.744  -6.396  0.00  0.00    +0.019 A 
BRANCH  12  16
ATOM     16  C   UNL     1      -2.362   5.795  -2.469  0.00  0.00    +0.026 C 
ATOM     17  C   UNL     1      -2.382   6.983  -1.909  0.00  0.00    +0.088 C 
BRANCH  17  18
ATOM     18  C   UNL     1      -1.871   7.251  -0.559  0.00  0.00    +0.388 C 
ATOM     19  O   UNL     1      -1.486   8.524  -0.171  0.00  0.00    -0.241 OA
ATOM     20  O   UNL     1      -1.745   6.234   0.187  0.00  0.00    -0.241 OA
ENDBRANCH  17  18
ENDBRANCH  12  16
ENDBRANCH   1  10
BRANCH   2  21
ATOM     21  C   UNL     1       3.341   5.723  -4.776  0.00  0.00    +0.099 C 
BRANCH  21  22
ATOM     22  N   UNL     1       4.236   6.274  -3.785  0.00  0.00    -0.269 NA
ATOM     23  C   UNL     1       4.075   5.648  -2.499  0.00  0.00    +0.072 C 
ATOM     24  C   UNL     1       4.282   6.712  -1.457  0.00  0.00    +0.019 C 
ATOM     25  C   UNL     1       4.035   8.014  -2.175  0.00  0.00    +0.019 C 
ATOM     26  C   UNL     1       3.932   7.674  -3.636  0.00  0.00    +0.072 C 
ENDBRANCH  21  22
ENDBRANCH   2  21
TORSDOF 6
ENDMDL
MODEL 8
REMARK VINA RESULT:      -8.3      3.782      7.412
REMARK  Name = 
REMARK  6 active torsions:
REMARK  status: ('A' for Active; 'I' for Inactive)
REMARK    1  A    between atoms: C_5  and  C_6
REMARK    2  A    between atoms: C_6  and  C_14
REMARK    3  A    between atoms: C_7  and  C_8
REMARK    4  A    between atoms: C_8  and  N_9
REMARK    5  A    between atoms: C_18  and  C_19
REMARK    6  A    between atoms: C_20  and  C_21
REMARK                            x       y       z     vdW  Elec       q    Type
REMARK                         _______ _______ _______ _____ _____    ______ ____
ROOT
ATOM      1  C   UNL     1       4.539   5.860  -9.404  0.00  0.00    +0.015 C 
ATOM      2  C   UNL     1       3.705   5.338 -10.283  0.00  0.00    -0.007 C 
ENDROOT
BRANCH   1   7
ATOM      3  C   UNL     1       7.838   6.102 -13.525  0.00  0.00    +0.031 C 
ATOM      4  C   UNL     1       7.567   6.554 -12.124  0.00  0.00    -0.022 A 
ATOM      5  C   UNL     1       7.765   5.657 -11.083  0.00  0.00    -0.004 A 
ATOM      6  C   UNL     1       6.950   5.698  -9.958  0.00  0.00    -0.000 A 
ATOM      7  C   UNL     1       5.775   6.439  -9.949  0.00  0.00    +0.001 A 
ATOM      8  C   UNL     1       5.757   7.512 -10.831  0.00  0.00    -0.000 A 
ATOM      9  C   UNL     1       6.701   7.605 -11.847  0.00  0.00    -0.004 A 
ENDBRANCH   1   7
BRANCH   1  10
ATOM     10  C   UNL     1       4.042   6.289  -8.091  0.00  0.00    +0.081 A 
ATOM     11  N   UNL     1       4.482   5.677  -6.990  0.00  0.00    -0.245 NA
ATOM     12  C   UNL     1       3.758   5.684  -5.844  0.00  0.00    +0.082 A 
ATOM     13  C   UNL     1       2.816   6.692  -5.716  0.00  0.00    +0.019 A 
ATOM     14  C   UNL     1       2.235   7.249  -6.841  0.00  0.00    +0.003 A 
ATOM     15  C   UNL     1       2.773   6.850  -8.057  0.00  0.00    +0.019 A 
BRANCH  12  16
ATOM     16  C   UNL     1       4.488   5.345  -4.615  0.00  0.00    +0.026 C 
ATOM     17  C   UNL     1       3.903   4.871  -3.539  0.00  0.00    +0.088 C 
BRANCH  17  18
ATOM     18  C   UNL     1       4.131   5.406  -2.191  0.00  0.00    +0.388 C 
ATOM     19  O   UNL     1       4.330   6.759  -1.974  0.00  0.00    -0.241 OA
ATOM     20  O   UNL     1       4.201   4.541  -1.266  0.00  0.00    -0.241 OA
ENDBRANCH  17  18
ENDBRANCH  12  16
ENDBRANCH   1  10
BRANCH   2  21
ATOM     21  C   UNL     1       3.736   5.630 -11.735  0.00  0.00    +0.099 C 
BRANCH  21  22
ATOM     22  N   UNL     1       2.403   5.909 -12.216  0.00  0.00    -0.269 NA
ATOM     23  C   UNL     1       1.389   5.405 -11.326  0.00  0.00    +0.072 C 
ATOM     24  C   UNL     1       0.245   4.933 -12.180  0.00  0.00    +0.019 C 
ATOM     25  C   UNL     1       0.845   4.694 -13.541  0.00  0.00    +0.019 C 
ATOM     26  C   UNL     1       2.239   5.255 -13.488  0.00  0.00    +0.072 C 
ENDBRANCH  21  22
ENDBRANCH   2  21
TORSDOF 6
ENDMDL
MODEL 9
REMARK VINA RESULT:      -8.3      4.992      7.732
REMARK  Name = 
REMARK  6 active torsions:
REMARK  status: ('A' for Active; 'I' for Inactive)
REMARK    1  A    between atoms: C_5  and  C_6
REMARK    2  A    between atoms: C_6  and  C_14
REMARK    3  A    between atoms: C_7  and  C_8
REMARK    4  A    between atoms: C_8  and  N_9
REMARK    5  A    between atoms: C_18  and  C_19
REMARK    6  A    between atoms: C_20  and  C_21
REMARK                            x       y       z     vdW  Elec       q    Type
REMARK                         _______ _______ _______ _____ _____    ______ ____
ROOT
ATOM      1  C   UNL     1       1.548   4.997  -5.664  0.00  0.00    +0.015 C 
ATOM      2  C   UNL     1       1.341   4.372  -6.807  0.00  0.00    -0.007 C 
ENDROOT
BRANCH   1   7
ATOM      3  C   UNL     1       4.877   7.269  -2.246  0.00  0.00    +0.031 C 
ATOM      4  C   UNL     1       4.707   6.695  -3.618  0.00  0.00    -0.022 A 
ATOM      5  C   UNL     1       4.023   7.437  -4.572  0.00  0.00    -0.004 A 
ATOM      6  C   UNL     1       3.247   6.797  -5.532  0.00  0.00    -0.000 A 
ATOM      7  C   UNL     1       2.923   5.451  -5.414  0.00  0.00    +0.001 A 
ATOM      8  C   UNL     1       3.822   4.700  -4.667  0.00  0.00    -0.000 A 
ATOM      9  C   UNL     1       4.757   5.326  -3.851  0.00  0.00    -0.004 A 
ENDBRANCH   1   7
BRANCH   1  10
ATOM     10  C   UNL     1       0.424   5.633  -4.966  0.00  0.00    +0.081 A 
ATOM     11  N   UNL     1       0.261   5.426  -3.657  0.00  0.00    -0.245 NA
ATOM     12  C   UNL     1      -0.949   5.574  -3.067  0.00  0.00    +0.082 A 
ATOM     13  C   UNL     1      -1.870   6.363  -3.737  0.00  0.00    +0.019 A 
ATOM     14  C   UNL     1      -1.813   6.482  -5.114  0.00  0.00    +0.003 A 
ATOM     15  C   UNL     1      -0.706   5.908  -5.723  0.00  0.00    +0.019 A 
BRANCH  12  16
ATOM     16  C   UNL     1      -0.943   5.718  -1.605  0.00  0.00    +0.026 C 
ATOM     17  C   UNL     1      -1.583   6.676  -0.974  0.00  0.00    +0.088 C 
BRANCH  17  18
ATOM     18  C   UNL     1      -0.969   7.514   0.064  0.00  0.00    +0.388 C 
ATOM     19  O   UNL     1      -0.020   7.005   0.935  0.00  0.00    -0.241 OA
ATOM     20  O   UNL     1      -1.419   8.697   0.145  0.00  0.00    -0.241 OA
ENDBRANCH  17  18
ENDBRANCH  12  16
ENDBRANCH   1  10
BRANCH   2  21
ATOM     21  C   UNL     1       2.257   4.440  -7.970  0.00  0.00    +0.099 C 
BRANCH  21  22
ATOM     22  N   UNL     1       1.805   5.449  -8.900  0.00  0.00    -0.269 NA
ATOM     23  C   UNL     1       0.391   5.358  -9.155  0.00  0.00    +0.072 C 
ATOM     24  C   UNL     1       0.175   5.719 -10.599  0.00  0.00    +0.019 C 
ATOM     25  C   UNL     1       1.511   5.495 -11.261  0.00  0.00    +0.019 C 
ATOM     26  C   UNL     1       2.492   5.247 -10.150  0.00  0.00    +0.072 C 
ENDBRANCH  21  22
ENDBRANCH   2  21
TORSDOF 6
ENDMDL
