MODEL 1
REMARK VINA RESULT:      -6.7      0.000      0.000
REMARK  Name = 
REMARK  7 active torsions:
REMARK  status: ('A' for Active; 'I' for Inactive)
REMARK    1  A    between atoms: C_2  and  C_3
REMARK    2  A    between atoms: C_3  and  C_5
REMARK    3  A    between atoms: C_5  and  C_6
REMARK    4  A    between atoms: C_5  and  C_12
REMARK    5  A    between atoms: C_5  and  C_18
REMARK    6  A    between atoms: C_6  and  C_7
REMARK    7  A    between atoms: C_7  and  N_9
REMARK                            x       y       z     vdW  Elec       q    Type
REMARK                         _______ _______ _______ _____ _____    ______ ____
ROOT
ATOM      1  C   UNL     1       1.839   5.970  -6.073  0.00  0.00    +0.090 C 
ENDROOT
BRANCH   1   2
ATOM      2  C   UNL     1       0.447   6.165  -5.739  0.00  0.00    -0.012 A 
ATOM      3  C   UNL     1      -0.456   5.621  -6.667  0.00  0.00    -0.004 A 
ATOM      4  C   UNL     1      -1.809   5.647  -6.508  0.00  0.00    -0.000 A 
ATOM      5  C   UNL     1      -2.321   6.401  -5.473  0.00  0.00    -0.000 A 
ATOM      6  C   UNL     1      -1.498   7.382  -4.933  0.00  0.00    -0.000 A 
ATOM      7  C   UNL     1      -0.161   7.327  -5.266  0.00  0.00    -0.004 A 
ENDBRANCH   1   2
BRANCH   1   8
ATOM      8  C   UNL     1       2.597   6.871  -5.110  0.00  0.00    -0.012 A 
ATOM      9  C   UNL     1       3.878   7.309  -5.429  0.00  0.00    -0.004 A 
ATOM     10  C   UNL     1       4.792   7.703  -4.489  0.00  0.00    -0.000 A 
ATOM     11  C   UNL     1       4.379   7.908  -3.201  0.00  0.00    -0.000 A 
ATOM     12  C   UNL     1       3.095   7.504  -2.859  0.00  0.00    -0.000 A 
ATOM     13  C   UNL     1       2.329   6.769  -3.755  0.00  0.00    -0.004 A 
ENDBRANCH   1   8
BRANCH   1  14
ATOM     14  C   UNL     1       2.229   4.602  -5.556  0.00  0.00    +0.157 C 
ATOM     15  O   UNL     1       1.539   3.626  -5.860  0.00  0.00    -0.295 OA
BRANCH  14  17
ATOM     16  C   UNL     1       4.087   4.017  -4.076  0.00  0.00    +0.008 C 
ATOM     17  C   UNL     1       3.688   4.253  -5.464  0.00  0.00    +0.065 C 
ENDBRANCH  14  17
ENDBRANCH   1  14
BRANCH   1  18
ATOM     18  C   UNL     1       2.522   6.199  -7.256  0.00  0.00    +0.031 C 
BRANCH  18  19
ATOM     19  C   UNL     1       2.315   5.265  -8.562  0.00  0.00    +0.059 C 
ATOM     20  C   UNL     1       3.922   5.022  -8.805  0.00  0.00    +0.017 C 
BRANCH  19  21
ATOM     21  N   UNL     1       2.246   6.532  -9.495  0.00  0.00    -0.272 NA
ATOM     22  C   UNL     1       3.131   6.455 -10.561  0.00  0.00    +0.090 C 
ATOM     23  C   UNL     1       0.906   6.637  -9.978  0.00  0.00    +0.090 C 
ENDBRANCH  19  21
ENDBRANCH  18  19
ENDBRANCH   1  18
TORSDOF 7
ENDMDL
MODEL 2
REMARK VINA RESULT:      -6.4      1.710      5.048
REMARK  Name = 
REMARK  7 active torsions:
REMARK  status: ('A' for Active; 'I' for Inactive)
REMARK    1  A    between atoms: C_2  and  C_3
REMARK    2  A    between atoms: C_3  and  C_5
REMARK    3  A    between atoms: C_5  and  C_6
REMARK    4  A    between atoms: C_5  and  C_12
REMARK    5  A    between atoms: C_5  and  C_18
REMARK    6  A    between atoms: C_6  and  C_7
REMARK    7  A    between atoms: C_7  and  N_9
REMARK                            x       y       z     vdW  Elec       q    Type
REMARK                         _______ _______ _______ _____ _____    ______ ____
ROOT
ATOM      1  C   UNL     1       2.674   6.043  -5.742  0.00  0.00    +0.090 C 
ENDROOT
BRANCH   1   2
ATOM      2  C   UNL     1       3.589   6.508  -4.726  0.00  0.00    -0.012 A 
ATOM      3  C   UNL     1       2.988   7.250  -3.696  0.00  0.00    -0.004 A 
ATOM      4  C   UNL     1       3.667   7.729  -2.615  0.00  0.00    -0.000 A 
ATOM      5  C   UNL     1       5.042   7.630  -2.624  0.00  0.00    -0.000 A 
ATOM      6  C   UNL     1       5.660   7.443  -3.855  0.00  0.00    -0.000 A 
ATOM      7  C   UNL     1       4.848   7.079  -4.909  0.00  0.00    -0.004 A 
ENDBRANCH   1   2
BRANCH   1   8
ATOM      8  C   UNL     1       3.269   6.537  -7.053  0.00  0.00    -0.012 A 
ATOM      9  C   UNL     1       2.470   7.217  -7.966  0.00  0.00    -0.004 A 
ATOM     10  C   UNL     1       2.750   7.283  -9.305  0.00  0.00    -0.000 A 
ATOM     11  C   UNL     1       3.978   6.874  -9.750  0.00  0.00    -0.000 A 
ATOM     12  C   UNL     1       4.808   6.215  -8.853  0.00  0.00    -0.000 A 
ATOM     13  C   UNL     1       4.332   5.841  -7.603  0.00  0.00    -0.004 A 
ENDBRANCH   1   8
BRANCH   1  14
ATOM     14  C   UNL     1       2.884   4.550  -5.875  0.00  0.00    +0.157 C 
ATOM     15  O   UNL     1       3.323   3.918  -4.911  0.00  0.00    -0.295 OA
BRANCH  14  17
ATOM     16  C   UNL     1       2.370   3.515  -8.030  0.00  0.00    +0.008 C 
ATOM     17  C   UNL     1       1.890   3.748  -6.668  0.00  0.00    +0.065 C 
ENDBRANCH  14  17
ENDBRANCH   1  14
BRANCH   1  18
ATOM     18  C   UNL     1       1.329   6.313  -5.934  0.00  0.00    +0.031 C 
BRANCH  18  19
ATOM     19  C   UNL     1       0.170   5.503  -5.146  0.00  0.00    +0.059 C 
ATOM     20  C   UNL     1      -0.988   5.803  -6.273  0.00  0.00    +0.017 C 
BRANCH  19  21
ATOM     21  N   UNL     1      -0.175   6.775  -4.283  0.00  0.00    -0.272 NA
ATOM     22  C   UNL     1      -1.161   7.560  -4.864  0.00  0.00    +0.090 C 
ATOM     23  C   UNL     1      -0.604   6.320  -2.999  0.00  0.00    +0.090 C 
ENDBRANCH  19  21
ENDBRANCH  18  19
ENDBRANCH   1  18
TORSDOF 7
ENDMDL
MODEL 3
REMARK VINA RESULT:      -6.3      1.645      4.628
REMARK  Name = 
REMARK  7 active torsions:
REMARK  status: ('A' for Active; 'I' for Inactive)
REMARK    1  A    between atoms: C_2  and  C_3
REMARK    2  A    between atoms: C_3  and  C_5
REMARK    3  A    between atoms: C_5  and  C_6
REMARK    4  A    between atoms: C_5  and  C_12
REMARK    5  A    between atoms: C_5  and  C_18
REMARK    6  A    between atoms: C_6  and  C_7
REMARK    7  A    between atoms: C_7  and  N_9
REMARK                            x       y       z     vdW  Elec       q    Type
REMARK                         _______ _______ _______ _____ _____    ______ ____
ROOT
ATOM      1  C   UNL     1       1.202   5.978  -6.266  0.00  0.00    +0.090 C 
ENDROOT
BRANCH   1   2
ATOM      2  C   UNL     1       1.221   5.636  -7.670  0.00  0.00    -0.012 A 
ATOM      3  C   UNL     1       2.161   6.349  -8.431  0.00  0.00    -0.004 A 
ATOM      4  C   UNL     1       2.376   6.135  -9.759  0.00  0.00    -0.000 A 
ATOM      5  C   UNL     1       1.504   5.300 -10.425  0.00  0.00    -0.000 A 
ATOM      6  C   UNL     1       0.267   5.069  -9.834  0.00  0.00    -0.000 A 
ATOM      7  C   UNL     1       0.129   5.443  -8.515  0.00  0.00    -0.004 A 
ENDBRANCH   1   2
BRANCH   1   8
ATOM      8  C   UNL     1      -0.149   6.643  -6.048  0.00  0.00    -0.012 A 
ATOM      9  C   UNL     1      -0.260   7.722  -5.178  0.00  0.00    -0.004 A 
ATOM     10  C   UNL     1      -1.434   8.076  -4.568  0.00  0.00    -0.000 A 
ATOM     11  C   UNL     1      -2.604   7.508  -4.994  0.00  0.00    -0.000 A 
ATOM     12  C   UNL     1      -2.525   6.445  -5.883  0.00  0.00    -0.000 A 
ATOM     13  C   UNL     1      -1.294   5.878  -6.190  0.00  0.00    -0.004 A 
ENDBRANCH   1   8
BRANCH   1  14
ATOM     14  C   UNL     1       1.016   4.686  -5.500  0.00  0.00    +0.157 C 
ATOM     15  O   UNL     1       1.307   3.618  -6.043  0.00  0.00    -0.295 OA
BRANCH  14  17
ATOM     16  C   UNL     1       0.103   4.877  -3.239  0.00  0.00    +0.008 C 
ATOM     17  C   UNL     1       1.317   4.669  -4.028  0.00  0.00    +0.065 C 
ENDBRANCH  14  17
ENDBRANCH   1  14
BRANCH   1  18
ATOM     18  C   UNL     1       2.035   6.804  -5.530  0.00  0.00    +0.031 C 
BRANCH  18  19
ATOM     19  C   UNL     1       3.561   7.107  -5.979  0.00  0.00    +0.059 C 
ATOM     20  C   UNL     1       4.140   5.659  -5.460  0.00  0.00    +0.017 C 
BRANCH  19  21
ATOM     21  N   UNL     1       3.848   7.844  -4.617  0.00  0.00    -0.272 NA
ATOM     22  C   UNL     1       3.099   7.331  -3.568  0.00  0.00    +0.090 C 
ATOM     23  C   UNL     1       5.242   7.703  -4.338  0.00  0.00    +0.090 C 
ENDBRANCH  19  21
ENDBRANCH  18  19
ENDBRANCH   1  18
TORSDOF 7
ENDMDL
MODEL 4
REMARK VINA RESULT:      -6.2      5.352      8.749
REMARK  Name = 
REMARK  7 active torsions:
REMARK  status: ('A' for Active; 'I' for Inactive)
REMARK    1  A    between atoms: C_2  and  C_3
REMARK    2  A    between atoms: C_3  and  C_5
REMARK    3  A    between atoms: C_5  and  C_6
REMARK    4  A    between atoms: C_5  and  C_12
REMARK    5  A    between atoms: C_5  and  C_18
REMARK    6  A    between atoms: C_6  and  C_7
REMARK    7  A    between atoms: C_7  and  N_9
REMARK                            x       y       z     vdW  Elec       q    Type
REMARK                         _______ _______ _______ _____ _____    ______ ____
ROOT
ATOM      1  C   UNL     1       2.998   8.820   0.746  0.00  0.00    +0.090 C 
ENDROOT
BRANCH   1   2
ATOM      2  C   UNL     1       3.632  10.081   0.438  0.00  0.00    -0.012 A 
ATOM      3  C   UNL     1       4.080  10.797   1.559  0.00  0.00    -0.004 A 
ATOM      4  C   UNL     1       4.754  11.980   1.480  0.00  0.00    -0.000 A 
ATOM      5  C   UNL     1       4.843  12.587   0.246  0.00  0.00    -0.000 A 
ATOM      6  C   UNL     1       3.927  12.197  -0.725  0.00  0.00    -0.000 A 
ATOM      7  C   UNL     1       3.210  11.046  -0.476  0.00  0.00    -0.004 A 
ENDBRANCH   1   2
BRANCH   1   8
ATOM      8  C   UNL     1       3.244   7.953  -0.480  0.00  0.00    -0.012 A 
ATOM      9  C   UNL     1       3.938   8.470  -1.569  0.00  0.00    -0.004 A 
ATOM     10  C   UNL     1       3.811   7.979  -2.840  0.00  0.00    -0.000 A 
ATOM     11  C   UNL     1       3.165   6.788  -3.034  0.00  0.00    -0.000 A 
ATOM     12  C   UNL     1       2.485   6.235  -1.958  0.00  0.00    -0.000 A 
ATOM     13  C   UNL     1       2.332   6.956  -0.780  0.00  0.00    -0.004 A 
ENDBRANCH   1   8
BRANCH   1  14
ATOM     14  C   UNL     1       3.870   8.126   1.770  0.00  0.00    +0.157 C 
ATOM     15  O   UNL     1       3.337   7.444   2.649  0.00  0.00    -0.295 OA
BRANCH  14  17
ATOM     16  C   UNL     1       6.280   8.018   2.174  0.00  0.00    +0.008 C 
ATOM     17  C   UNL     1       5.184   7.547   1.327  0.00  0.00    +0.065 C 
ENDBRANCH  14  17
ENDBRANCH   1  14
BRANCH   1  18
ATOM     18  C   UNL     1       1.675   8.523   1.029  0.00  0.00    +0.031 C 
BRANCH  18  19
ATOM     19  C   UNL     1       0.547   9.676   1.170  0.00  0.00    +0.059 C 
ATOM     20  C   UNL     1       0.619   9.730   2.811  0.00  0.00    +0.017 C 
BRANCH  19  21
ATOM     21  N   UNL     1      -0.602   8.599   1.139  0.00  0.00    -0.272 NA
ATOM     22  C   UNL     1      -0.300   7.478   1.899  0.00  0.00    +0.090 C 
ATOM     23  C   UNL     1      -1.788   9.221   1.635  0.00  0.00    +0.090 C 
ENDBRANCH  19  21
ENDBRANCH  18  19
ENDBRANCH   1  18
TORSDOF 7
ENDMDL
MODEL 5
REMARK VINA RESULT:      -6.1      2.154      4.865
REMARK  Name = 
REMARK  7 active torsions:
REMARK  status: ('A' for Active; 'I' for Inactive)
REMARK    1  A    between atoms: C_2  and  C_3
REMARK    2  A    between atoms: C_3  and  C_5
REMARK    3  A    between atoms: C_5  and  C_6
REMARK    4  A    between atoms: C_5  and  C_12
REMARK    5  A    between atoms: C_5  and  C_18
REMARK    6  A    between atoms: C_6  and  C_7
REMARK    7  A    between atoms: C_7  and  N_9
REMARK                            x       y       z     vdW  Elec       q    Type
REMARK                         _______ _______ _______ _____ _____    ______ ____
ROOT
ATOM      1  C   UNL     1       1.387   6.048  -5.884  0.00  0.00    +0.090 C 
ENDROOT
BRANCH   1   2
ATOM      2  C   UNL     1      -0.009   6.382  -5.716  0.00  0.00    -0.012 A 
ATOM      3  C   UNL     1      -0.244   7.533  -4.946  0.00  0.00    -0.004 A 
ATOM      4  C   UNL     1      -1.485   8.048  -4.718  0.00  0.00    -0.000 A 
ATOM      5  C   UNL     1      -2.574   7.302  -5.116  0.00  0.00    -0.000 A 
ATOM      6  C   UNL     1      -2.371   5.945  -5.334  0.00  0.00    -0.000 A 
ATOM      7  C   UNL     1      -1.063   5.517  -5.423  0.00  0.00    -0.004 A 
ENDBRANCH   1   2
BRANCH   1   8
ATOM      8  C   UNL     1       1.418   5.110  -7.081  0.00  0.00    -0.012 A 
ATOM      9  C   UNL     1       2.575   4.397  -7.376  0.00  0.00    -0.004 A 
ATOM     10  C   UNL     1       2.865   3.920  -8.626  0.00  0.00    -0.000 A 
ATOM     11  C   UNL     1       1.889   3.928  -9.585  0.00  0.00    -0.000 A 
ATOM     12  C   UNL     1       0.713   4.612  -9.310  0.00  0.00    -0.000 A 
ATOM     13  C   UNL     1       0.608   5.395  -8.168  0.00  0.00    -0.004 A 
ENDBRANCH   1   8
BRANCH   1  14
ATOM     14  C   UNL     1       2.067   7.272  -6.457  0.00  0.00    +0.157 C 
ATOM     15  O   UNL     1       3.245   7.495  -6.167  0.00  0.00    -0.295 OA
BRANCH  14  17
ATOM     16  C   UNL     1       2.952   7.704  -8.696  0.00  0.00    +0.008 C 
ATOM     17  C   UNL     1       1.747   7.684  -7.866  0.00  0.00    +0.065 C 
ENDBRANCH  14  17
ENDBRANCH   1  14
BRANCH   1  18
ATOM     18  C   UNL     1       2.272   5.421  -5.023  0.00  0.00    +0.031 C 
BRANCH  18  19
ATOM     19  C   UNL     1       2.028   5.375  -3.423  0.00  0.00    +0.059 C 
ATOM     20  C   UNL     1       2.709   6.844  -3.144  0.00  0.00    +0.017 C 
BRANCH  19  21
ATOM     21  N   UNL     1       3.372   4.581  -3.210  0.00  0.00    -0.272 NA
ATOM     22  C   UNL     1       4.358   4.953  -4.113  0.00  0.00    +0.090 C 
ATOM     23  C   UNL     1       3.811   4.831  -1.874  0.00  0.00    +0.090 C 
ENDBRANCH  19  21
ENDBRANCH  18  19
ENDBRANCH   1  18
TORSDOF 7
ENDMDL
MODEL 6
REMARK VINA RESULT:      -6.1      2.331      6.492
REMARK  Name = 
REMARK  7 active torsions:
REMARK  status: ('A' for Active; 'I' for Inactive)
REMARK    1  A    between atoms: C_2  and  C_3
REMARK    2  A    between atoms: C_3  and  C_5
REMARK    3  A    between atoms: C_5  and  C_6
REMARK    4  A    between atoms: C_5  and  C_12
REMARK    5  A    between atoms: C_5  and  C_18
REMARK    6  A    between atoms: C_6  and  C_7
REMARK    7  A    between atoms: C_7  and  N_9
REMARK                            x       y       z     vdW  Elec       q    Type
REMARK                         _______ _______ _______ _____ _____    ______ ____
ROOT
ATOM      1  C   UNL     1       3.697   5.940  -9.127  0.00  0.00    +0.090 C 
ENDROOT
BRANCH   1   2
ATOM      2  C   UNL     1       4.917   6.215  -9.849  0.00  0.00    -0.012 A 
ATOM      3  C   UNL     1       6.088   5.808  -9.189  0.00  0.00    -0.004 A 
ATOM      4  C   UNL     1       7.337   5.924  -9.724  0.00  0.00    -0.000 A 
ATOM      5  C   UNL     1       7.469   6.637 -10.897  0.00  0.00    -0.000 A 
ATOM      6  C   UNL     1       6.442   7.513 -11.230  0.00  0.00    -0.000 A 
ATOM      7  C   UNL     1       5.261   7.382 -10.530  0.00  0.00    -0.004 A 
ENDBRANCH   1   2
BRANCH   1   8
ATOM      8  C   UNL     1       2.589   6.468 -10.027  0.00  0.00    -0.012 A 
ATOM      9  C   UNL     1       1.363   6.831  -9.480  0.00  0.00    -0.004 A 
ATOM     10  C   UNL     1       0.199   6.862 -10.201  0.00  0.00    -0.000 A 
ATOM     11  C   UNL     1       0.257   6.763 -11.565  0.00  0.00    -0.000 A 
ATOM     12  C   UNL     1       1.475   6.427 -12.141  0.00  0.00    -0.000 A 
ATOM     13  C   UNL     1       2.545   6.042 -11.344  0.00  0.00    -0.004 A 
ENDBRANCH   1   8
BRANCH   1  14
ATOM     14  C   UNL     1       3.456   4.449  -9.218  0.00  0.00    +0.157 C 
ATOM     15  O   UNL     1       4.391   3.676  -8.993  0.00  0.00    -0.295 OA
BRANCH  14  17
ATOM     16  C   UNL     1       2.223   3.486  -7.338  0.00  0.00    +0.008 C 
ATOM     17  C   UNL     1       2.143   3.898  -8.739  0.00  0.00    +0.065 C 
ENDBRANCH  14  17
ENDBRANCH   1  14
BRANCH   1  18
ATOM     18  C   UNL     1       3.269   6.375  -7.884  0.00  0.00    +0.031 C 
BRANCH  18  19
ATOM     19  C   UNL     1       4.306   6.860  -6.739  0.00  0.00    +0.059 C 
ATOM     20  C   UNL     1       4.359   5.401  -5.985  0.00  0.00    +0.017 C 
BRANCH  19  21
ATOM     21  N   UNL     1       3.123   7.406  -5.855  0.00  0.00    -0.272 NA
ATOM     22  C   UNL     1       1.931   6.735  -6.089  0.00  0.00    +0.090 C 
ATOM     23  C   UNL     1       3.507   7.261  -4.487  0.00  0.00    +0.090 C 
ENDBRANCH  19  21
ENDBRANCH  18  19
ENDBRANCH   1  18
TORSDOF 7
ENDMDL
MODEL 7
REMARK VINA RESULT:      -6.1      2.232      4.635
REMARK  Name = 
REMARK  7 active torsions:
REMARK  status: ('A' for Active; 'I' for Inactive)
REMARK    1  A    between atoms: C_2  and  C_3
REMARK    2  A    between atoms: C_3  and  C_5
REMARK    3  A    between atoms: C_5  and  C_6
REMARK    4  A    between atoms: C_5  and  C_12
REMARK    5  A    between atoms: C_5  and  C_18
REMARK    6  A    between atoms: C_6  and  C_7
REMARK    7  A    between atoms: C_7  and  N_9
REMARK                            x       y       z     vdW  Elec       q    Type
REMARK                         _______ _______ _______ _____ _____    ______ ____
ROOT
ATOM      1  C   UNL     1       1.739   6.327  -4.557  0.00  0.00    +0.090 C 
ENDROOT
BRANCH   1   2
ATOM      2  C   UNL     1       2.158   5.553  -5.702  0.00  0.00    -0.012 A 
ATOM      3  C   UNL     1       2.109   6.245  -6.923  0.00  0.00    -0.004 A 
ATOM      4  C   UNL     1       2.517   5.713  -8.110  0.00  0.00    -0.000 A 
ATOM      5  C   UNL     1       2.827   4.370  -8.140  0.00  0.00    -0.000 A 
ATOM      6  C   UNL     1       2.328   3.578  -7.112  0.00  0.00    -0.000 A 
ATOM      7  C   UNL     1       1.824   4.234  -6.009  0.00  0.00    -0.004 A 
ENDBRANCH   1   2
BRANCH   1   8
ATOM      8  C   UNL     1       1.933   5.396  -3.369  0.00  0.00    -0.012 A 
ATOM      9  C   UNL     1       0.925   5.258  -2.421  0.00  0.00    -0.004 A 
ATOM     10  C   UNL     1       1.155   4.848  -1.135  0.00  0.00    -0.000 A 
ATOM     11  C   UNL     1       2.377   4.324  -0.811  0.00  0.00    -0.000 A 
ATOM     12  C   UNL     1       3.397   4.425  -1.748  0.00  0.00    -0.000 A 
ATOM     13  C   UNL     1       3.218   5.181  -2.900  0.00  0.00    -0.004 A 
ENDBRANCH   1   8
BRANCH   1  14
ATOM     14  C   UNL     1       2.819   7.355  -4.299  0.00  0.00    +0.157 C 
ATOM     15  O   UNL     1       2.938   7.829  -3.167  0.00  0.00    -0.295 OA
BRANCH  14  17
ATOM     16  C   UNL     1       5.215   7.838  -4.220  0.00  0.00    +0.008 C 
ATOM     17  C   UNL     1       4.146   7.197  -4.986  0.00  0.00    +0.065 C 
ENDBRANCH  14  17
ENDBRANCH   1  14
BRANCH   1  18
ATOM     18  C   UNL     1       0.513   6.899  -4.257  0.00  0.00    +0.031 C 
BRANCH  18  19
ATOM     19  C   UNL     1      -0.578   7.242  -5.403  0.00  0.00    +0.059 C 
ATOM     20  C   UNL     1      -1.609   8.007  -4.377  0.00  0.00    +0.017 C 
BRANCH  19  21
ATOM     21  N   UNL     1      -1.257   5.832  -5.222  0.00  0.00    -0.272 NA
ATOM     22  C   UNL     1      -2.305   5.861  -4.312  0.00  0.00    +0.090 C 
ATOM     23  C   UNL     1      -1.732   5.417  -6.503  0.00  0.00    +0.090 C 
ENDBRANCH  19  21
ENDBRANCH  18  19
ENDBRANCH   1  18
TORSDOF 7
ENDMDL
MODEL 8
REMARK VINA RESULT:      -6.0      2.104      6.605
REMARK  Name = 
REMARK  7 active torsions:
REMARK  status: ('A' for Active; 'I' for Inactive)
REMARK    1  A    between atoms: C_2  and  C_3
REMARK    2  A    between atoms: C_3  and  C_5
REMARK    3  A    between atoms: C_5  and  C_6
REMARK    4  A    between atoms: C_5  and  C_12
REMARK    5  A    between atoms: C_5  and  C_18
REMARK    6  A    between atoms: C_6  and  C_7
REMARK    7  A    between atoms: C_7  and  N_9
REMARK                            x       y       z     vdW  Elec       q    Type
REMARK                         _______ _______ _______ _____ _____    ______ ____
ROOT
ATOM      1  C   UNL     1       2.102   5.864  -9.411  0.00  0.00    +0.090 C 
ENDROOT
BRANCH   1   2
ATOM      2  C   UNL     1       3.530   5.871  -9.625  0.00  0.00    -0.012 A 
ATOM      3  C   UNL     1       4.284   5.386  -8.543  0.00  0.00    -0.004 A 
ATOM      4  C   UNL     1       5.640   5.256  -8.566  0.00  0.00    -0.000 A 
ATOM      5  C   UNL     1       6.320   5.793  -9.639  0.00  0.00    -0.000 A 
ATOM      6  C   UNL     1       5.661   6.758 -10.392  0.00  0.00    -0.000 A 
ATOM      7  C   UNL     1       4.303   6.883 -10.192  0.00  0.00    -0.004 A 
ENDBRANCH   1   2
BRANCH   1   8
ATOM      8  C   UNL     1       1.531   6.642 -10.587  0.00  0.00    -0.012 A 
ATOM      9  C   UNL     1       0.259   7.199 -10.502  0.00  0.00    -0.004 A 
ATOM     10  C   UNL     1      -0.507   7.490 -11.598  0.00  0.00    -0.000 A 
ATOM     11  C   UNL     1       0.066   7.461 -12.840  0.00  0.00    -0.000 A 
ATOM     12  C   UNL     1       1.346   6.934 -12.953  0.00  0.00    -0.000 A 
ATOM     13  C   UNL     1       1.944   6.308 -11.866  0.00  0.00    -0.004 A 
ENDBRANCH   1   8
BRANCH   1  14
ATOM     14  C   UNL     1       1.615   4.467  -9.725  0.00  0.00    +0.157 C 
ATOM     15  O   UNL     1       2.140   3.506  -9.158  0.00  0.00    -0.295 OA
BRANCH  14  17
ATOM     16  C   UNL     1      -0.100   3.692 -11.289  0.00  0.00    +0.008 C 
ATOM     17  C   UNL     1       0.146   4.248  -9.958  0.00  0.00    +0.065 C 
ENDBRANCH  14  17
ENDBRANCH   1  14
BRANCH   1  18
ATOM     18  C   UNL     1       1.347   6.362  -8.362  0.00  0.00    +0.031 C 
BRANCH  18  19
ATOM     19  C   UNL     1       1.210   5.578  -6.952  0.00  0.00    +0.059 C 
ATOM     20  C   UNL     1      -0.431   5.655  -6.918  0.00  0.00    +0.017 C 
BRANCH  19  21
ATOM     21  N   UNL     1       1.408   6.920  -6.151  0.00  0.00    -0.272 NA
ATOM     22  C   UNL     1       0.584   6.999  -5.037  0.00  0.00    +0.090 C 
ATOM     23  C   UNL     1       2.778   6.985  -5.754  0.00  0.00    +0.090 C 
ENDBRANCH  19  21
ENDBRANCH  18  19
ENDBRANCH   1  18
TORSDOF 7
ENDMDL
MODEL 9
REMARK VINA RESULT:      -6.0      3.610      6.581
REMARK  Name = 
REMARK  7 active torsions:
REMARK  status: ('A' for Active; 'I' for Inactive)
REMARK    1  A    between atoms: C_2  and  C_3
REMARK    2  A    between atoms: C_3  and  C_5
REMARK    3  A    between atoms: C_5  and  C_6
REMARK    4  A    between atoms: C_5  and  C_12
REMARK    5  A    between atoms: C_5  and  C_18
REMARK    6  A    between atoms: C_6  and  C_7
REMARK    7  A    between atoms: C_7  and  N_9
REMARK                            x       y       z     vdW  Elec       q    Type
REMARK                         _______ _______ _______ _____ _____    ______ ____
ROOT
ATOM      1  C   UNL     1       2.809   6.072  -1.730  0.00  0.00    +0.090 C 
ENDROOT
BRANCH   1   2
ATOM      2  C   UNL     1       3.171   6.109  -3.128  0.00  0.00    -0.012 A 
ATOM      3  C   UNL     1       4.212   5.236  -3.483  0.00  0.00    -0.004 A 
ATOM      4  C   UNL     1       4.663   5.078  -4.760  0.00  0.00    -0.000 A 
ATOM      5  C   UNL     1       4.193   5.948  -5.720  0.00  0.00    -0.000 A 
ATOM      6  C   UNL     1       3.638   7.145  -5.279  0.00  0.00    -0.000 A 
ATOM      7  C   UNL     1       3.337   7.233  -3.936  0.00  0.00    -0.004 A 
ENDBRANCH   1   2
BRANCH   1   8
ATOM      8  C   UNL     1       1.324   5.737  -1.725  0.00  0.00    -0.012 A 
ATOM      9  C   UNL     1       0.682   5.405  -2.913  0.00  0.00    -0.004 A 
ATOM     10  C   UNL     1      -0.667   5.546  -3.101  0.00  0.00    -0.000 A 
ATOM     11  C   UNL     1      -1.468   5.798  -2.021  0.00  0.00    -0.000 A 
ATOM     12  C   UNL     1      -0.855   6.108  -0.815  0.00  0.00    -0.000 A 
ATOM     13  C   UNL     1       0.518   6.317  -0.760  0.00  0.00    -0.004 A 
ENDBRANCH   1   8
BRANCH   1  14
ATOM     14  C   UNL     1       3.394   4.801  -1.156  0.00  0.00    +0.157 C 
ATOM     15  O   UNL     1       4.333   4.878  -0.360  0.00  0.00    -0.295 OA
BRANCH  14  17
ATOM     16  C   UNL     1       3.203   2.405  -0.702  0.00  0.00    +0.008 C 
ATOM     17  C   UNL     1       2.468   3.664  -0.825  0.00  0.00    +0.065 C 
ENDBRANCH  14  17
ENDBRANCH   1  14
BRANCH   1  18
ATOM     18  C   UNL     1       2.870   7.057  -0.758  0.00  0.00    +0.031 C 
BRANCH  18  19
ATOM     19  C   UNL     1       3.982   8.233  -0.794  0.00  0.00    +0.059 C 
ATOM     20  C   UNL     1       4.491   7.979   0.748  0.00  0.00    +0.017 C 
BRANCH  19  21
ATOM     21  N   UNL     1       2.905   9.307  -0.387  0.00  0.00    -0.272 NA
ATOM     22  C   UNL     1       2.416   9.108   0.897  0.00  0.00    +0.090 C 
ATOM     23  C   UNL     1       3.522  10.592  -0.482  0.00  0.00    +0.090 C 
ENDBRANCH  19  21
ENDBRANCH  18  19
ENDBRANCH   1  18
TORSDOF 7
ENDMDL
