MODEL 1
REMARK VINA RESULT:      -9.0      0.000      0.000
REMARK  Name = 
REMARK  18 active torsions:
REMARK  status: ('A' for Active; 'I' for Inactive)
REMARK    1  A    between atoms: C_2  and  C_3
REMARK    2  A    between atoms: C_3  and  C_4
REMARK    3  A    between atoms: C_4  and  C_5
REMARK    4  A    between atoms: C_5  and  C_6
REMARK    5  A    between atoms: C_6  and  O_7
REMARK    6  A    between atoms: O_7  and  C_8
REMARK    7  A    between atoms: C_8  and  N_10
REMARK    8  A    between atoms: C_11  and  C_13
REMARK    9  A    between atoms: C_16  and  N_17
REMARK   10  A    between atoms: N_17  and  C_18
REMARK   11  A    between atoms: C_18  and  C_19
REMARK   12  A    between atoms: C_23  and  C_24
REMARK   13  A    between atoms: N_26  and  C_27
REMARK   14  A    between atoms: N_26  and  C_34
REMARK   15  A    between atoms: C_27  and  C_28
REMARK   16  A    between atoms: C_28  and  C_29
REMARK   17  A    between atoms: C_29  and  O_31
REMARK   18  A    between atoms: O_31  and  C_32
REMARK                            x       y       z     vdW  Elec       q    Type
REMARK                         _______ _______ _______ _____ _____    ______ ____
ROOT
ATOM      1  C   UNL     1       3.869   6.376  -5.677  0.00  0.00    +0.142 A 
ATOM      2  N   UNL     1       2.657   6.295  -6.277  0.00  0.00    -0.311 N 
ATOM      3  C   UNL     1       1.539   7.196  -6.012  0.00  0.00    +0.132 C 
ATOM      4  C   UNL     1       2.819   5.442  -7.316  0.00  0.00    +0.079 A 
ATOM      5  C   UNL     1       4.177   5.292  -7.578  0.00  0.00    +0.099 A 
ATOM      6  C   UNL     1       4.647   5.064  -8.868  0.00  0.00    +0.025 A 
ATOM      7  C   UNL     1       3.773   5.117  -9.950  0.00  0.00    +0.056 A 
ATOM      8  C   UNL     1       2.453   4.829  -9.620  0.00  0.00    +0.006 A 
ATOM      9  C   UNL     1       1.960   5.071  -8.344  0.00  0.00    +0.019 A 
ATOM     10  N   UNL     1       4.763   5.675  -6.416  0.00  0.00    -0.229 NA
ENDROOT
BRANCH   7  11
ATOM     11  C   UNL     1       4.126   5.817 -11.193  0.00  0.00    +0.254 C 
ATOM     12  N   UNL     1       4.757   5.171 -12.289  0.00  0.00    -0.240 N 
ATOM     13  O   UNL     1       3.841   7.045 -11.342  0.00  0.00    -0.270 OA
BRANCH  12  14
ATOM     14  C   UNL     1       6.173   5.364 -12.397  0.00  0.00    +0.138 A 
ATOM     15  N   UNL     1       6.913   5.410 -11.263  0.00  0.00    -0.229 NA
ATOM     16  C   UNL     1       8.166   5.921 -11.251  0.00  0.00    +0.100 A 
ATOM     17  C   UNL     1       8.873   5.873 -12.444  0.00  0.00    +0.021 A 
ATOM     18  C   UNL     1       8.139   5.962 -13.608  0.00  0.00    +0.004 A 
ATOM     19  C   UNL     1       6.775   5.808 -13.558  0.00  0.00    +0.035 A 
ENDBRANCH  12  14
BRANCH  12  20
ATOM     20  C   UNL     1       4.028   5.210 -13.555  0.00  0.00    +0.112 C 
BRANCH  20  21
ATOM     21  C   UNL     1       2.563   5.112 -13.236  0.00  0.00    +0.131 C 
BRANCH  21  22
ATOM     22  C   UNL     1       1.712   5.940 -14.114  0.00  0.00    +0.319 C 
ATOM     23  O   UNL     1       2.220   6.464 -15.145  0.00  0.00    -0.250 OA
BRANCH  22  24
ATOM     24  O   UNL     1       0.490   6.472 -13.691  0.00  0.00    -0.448 OA
BRANCH  24  25
ATOM     25  C   UNL     1       0.457   7.547 -12.781  0.00  0.00    +0.209 C 
ATOM     26  C   UNL     1      -0.105   7.066 -11.456  0.00  0.00    +0.051 C 
ENDBRANCH  24  25
ENDBRANCH  22  24
ENDBRANCH  21  22
ENDBRANCH  20  21
ENDBRANCH  12  20
ENDBRANCH   7  11
BRANCH   1  27
ATOM     27  C   UNL     1       4.279   7.378  -4.644  0.00  0.00    +0.176 C 
BRANCH  27  28
ATOM     28  N   UNL     1       5.039   6.668  -3.647  0.00  0.00    -0.229 NA
BRANCH  28  32
ATOM     29  C   UNL     1       2.074   6.043  -0.882  0.00  0.00    +0.089 A 
ATOM     30  C   UNL     1       2.810   4.963  -1.355  0.00  0.00    +0.009 A 
ATOM     31  C   UNL     1       3.995   5.146  -2.057  0.00  0.00    +0.016 A 
ATOM     32  C   UNL     1       4.439   6.411  -2.373  0.00  0.00    +0.066 A 
ATOM     33  C   UNL     1       3.916   7.447  -1.609  0.00  0.00    +0.016 A 
ATOM     34  C   UNL     1       2.751   7.258  -0.889  0.00  0.00    +0.009 A 
BRANCH  29  36
ATOM     35  N   UNL     1      -0.043   6.802  -0.128  0.00  0.00    +0.074 NA
ATOM     36  C   UNL     1       0.608   6.004  -0.901  0.00  0.00    +0.412 C 
ATOM     37  N   UNL     1      -0.113   4.896  -1.426  0.00  0.00    +0.214 NA
BRANCH  35  38
ATOM     38  C   UNL     1      -1.414   7.101  -0.391  0.00  0.00    +0.543 C 
ATOM     39  O   UNL     1      -2.195   7.047   0.607  0.00  0.00    -0.198 OA
BRANCH  38  40
ATOM     40  O   UNL     1      -1.716   7.971  -1.443  0.00  0.00    -0.414 OA
BRANCH  40  41
ATOM     41  C   UNL     1      -2.328   7.392  -2.576  0.00  0.00    +0.213 C 
BRANCH  41  42
ATOM     42  C   UNL     1      -1.973   8.264  -3.763  0.00  0.00    +0.048 C 
BRANCH  42  43
ATOM     43  C   UNL     1      -2.388   7.620  -5.062  0.00  0.00    +0.004 C 
BRANCH  43  44
ATOM     44  C   UNL     1      -2.333   6.105  -4.927  0.00  0.00    +0.000 C 
BRANCH  44  46
ATOM     45  C   UNL     1      -1.315   5.146  -6.971  0.00  0.00    +0.000 C 
ATOM     46  C   UNL     1      -2.608   5.482  -6.267  0.00  0.00    +0.000 C 
ENDBRANCH  44  46
ENDBRANCH  43  44
ENDBRANCH  42  43
ENDBRANCH  41  42
ENDBRANCH  40  41
ENDBRANCH  38  40
ENDBRANCH  35  38
ENDBRANCH  29  36
ENDBRANCH  28  32
ENDBRANCH  27  28
ENDBRANCH   1  27
TORSDOF 18
ENDMDL
MODEL 2
REMARK VINA RESULT:      -8.8      2.121     10.733
REMARK  Name = 
REMARK  18 active torsions:
REMARK  status: ('A' for Active; 'I' for Inactive)
REMARK    1  A    between atoms: C_2  and  C_3
REMARK    2  A    between atoms: C_3  and  C_4
REMARK    3  A    between atoms: C_4  and  C_5
REMARK    4  A    between atoms: C_5  and  C_6
REMARK    5  A    between atoms: C_6  and  O_7
REMARK    6  A    between atoms: O_7  and  C_8
REMARK    7  A    between atoms: C_8  and  N_10
REMARK    8  A    between atoms: C_11  and  C_13
REMARK    9  A    between atoms: C_16  and  N_17
REMARK   10  A    between atoms: N_17  and  C_18
REMARK   11  A    between atoms: C_18  and  C_19
REMARK   12  A    between atoms: C_23  and  C_24
REMARK   13  A    between atoms: N_26  and  C_27
REMARK   14  A    between atoms: N_26  and  C_34
REMARK   15  A    between atoms: C_27  and  C_28
REMARK   16  A    between atoms: C_28  and  C_29
REMARK   17  A    between atoms: C_29  and  O_31
REMARK   18  A    between atoms: O_31  and  C_32
REMARK                            x       y       z     vdW  Elec       q    Type
REMARK                         _______ _______ _______ _____ _____    ______ ____
ROOT
ATOM      1  C   UNL     1       2.332   5.186  -6.950  0.00  0.00    +0.142 A 
ATOM      2  N   UNL     1       2.719   6.437  -6.601  0.00  0.00    -0.311 N 
ATOM      3  C   UNL     1       1.992   7.656  -6.944  0.00  0.00    +0.132 C 
ATOM      4  C   UNL     1       3.695   6.273  -5.678  0.00  0.00    +0.079 A 
ATOM      5  C   UNL     1       3.653   4.971  -5.191  0.00  0.00    +0.099 A 
ATOM      6  C   UNL     1       4.013   4.673  -3.881  0.00  0.00    +0.025 A 
ATOM      7  C   UNL     1       4.295   5.699  -2.983  0.00  0.00    +0.056 A 
ATOM      8  C   UNL     1       4.744   6.867  -3.588  0.00  0.00    +0.006 A 
ATOM      9  C   UNL     1       4.377   7.192  -4.888  0.00  0.00    +0.019 A 
ATOM     10  N   UNL     1       2.984   4.298  -6.160  0.00  0.00    -0.229 NA
ENDROOT
BRANCH   7  11
ATOM     11  C   UNL     1       3.765   5.690  -1.612  0.00  0.00    +0.254 C 
ATOM     12  N   UNL     1       2.559   6.344  -1.247  0.00  0.00    -0.240 N 
ATOM     13  O   UNL     1       4.368   5.053  -0.694  0.00  0.00    -0.270 OA
BRANCH  12  14
ATOM     14  C   UNL     1       2.707   7.624  -0.621  0.00  0.00    +0.138 A 
ATOM     15  N   UNL     1       1.845   7.972   0.364  0.00  0.00    -0.229 NA
ATOM     16  C   UNL     1       1.696   9.258   0.760  0.00  0.00    +0.100 A 
ATOM     17  C   UNL     1       2.782  10.101   0.568  0.00  0.00    +0.021 A 
ATOM     18  C   UNL     1       3.594   9.837  -0.515  0.00  0.00    +0.004 A 
ATOM     19  C   UNL     1       3.476   8.633  -1.167  0.00  0.00    +0.035 A 
ENDBRANCH  12  14
BRANCH  12  20
ATOM     20  C   UNL     1       1.520   5.491  -0.674  0.00  0.00    +0.112 C 
BRANCH  20  21
ATOM     21  C   UNL     1       0.614   5.067  -1.795  0.00  0.00    +0.131 C 
BRANCH  21  22
ATOM     22  C   UNL     1      -0.733   5.670  -1.724  0.00  0.00    +0.319 C 
ATOM     23  O   UNL     1      -0.886   6.758  -1.101  0.00  0.00    -0.250 OA
BRANCH  22  24
ATOM     24  O   UNL     1      -1.896   4.941  -1.987  0.00  0.00    -0.448 OA
BRANCH  24  25
ATOM     25  C   UNL     1      -3.022   5.574  -2.550  0.00  0.00    +0.209 C 
ATOM     26  C   UNL     1      -3.068   5.287  -4.040  0.00  0.00    +0.051 C 
ENDBRANCH  24  25
ENDBRANCH  22  24
ENDBRANCH  21  22
ENDBRANCH  20  21
ENDBRANCH  12  20
ENDBRANCH   7  11
BRANCH   1  27
ATOM     27  C   UNL     1       1.114   4.826  -7.741  0.00  0.00    +0.176 C 
BRANCH  27  28
ATOM     28  N   UNL     1       0.701   6.016  -8.440  0.00  0.00    -0.229 NA
BRANCH  28  32
ATOM     29  C   UNL     1       0.811   5.418 -12.497  0.00  0.00    +0.089 A 
ATOM     30  C   UNL     1       0.342   4.407 -11.667  0.00  0.00    +0.009 A 
ATOM     31  C   UNL     1       0.014   4.654 -10.340  0.00  0.00    +0.016 A 
ATOM     32  C   UNL     1       0.217   5.896  -9.783  0.00  0.00    +0.066 A 
ATOM     33  C   UNL     1       0.332   6.953 -10.678  0.00  0.00    +0.016 A 
ATOM     34  C   UNL     1       0.632   6.706 -12.005  0.00  0.00    +0.009 A 
BRANCH  29  36
ATOM     35  N   UNL     1       2.772   6.013 -13.692  0.00  0.00    +0.074 NA
ATOM     36  C   UNL     1       1.852   5.135 -13.492  0.00  0.00    +0.412 C 
ATOM     37  N   UNL     1       1.688   4.143 -14.497  0.00  0.00    +0.214 NA
BRANCH  35  38
ATOM     38  C   UNL     1       4.002   5.639 -14.314  0.00  0.00    +0.543 C 
ATOM     39  O   UNL     1       4.329   6.307 -15.341  0.00  0.00    -0.198 OA
BRANCH  38  40
ATOM     40  O   UNL     1       5.006   5.078 -13.520  0.00  0.00    -0.414 OA
BRANCH  40  41
ATOM     41  C   UNL     1       6.330   5.471 -13.817  0.00  0.00    +0.213 C 
BRANCH  41  42
ATOM     42  C   UNL     1       7.066   5.574 -12.499  0.00  0.00    +0.048 C 
BRANCH  42  43
ATOM     43  C   UNL     1       6.789   6.888 -11.814  0.00  0.00    +0.004 C 
BRANCH  43  44
ATOM     44  C   UNL     1       6.202   6.635 -10.432  0.00  0.00    +0.000 C 
BRANCH  44  46
ATOM     45  C   UNL     1       3.937   5.644 -10.280  0.00  0.00    +0.000 C 
ATOM     46  C   UNL     1       4.726   6.917 -10.466  0.00  0.00    +0.000 C 
ENDBRANCH  44  46
ENDBRANCH  43  44
ENDBRANCH  42  43
ENDBRANCH  41  42
ENDBRANCH  40  41
ENDBRANCH  38  40
ENDBRANCH  35  38
ENDBRANCH  29  36
ENDBRANCH  28  32
ENDBRANCH  27  28
ENDBRANCH   1  27
TORSDOF 18
ENDMDL
MODEL 3
REMARK VINA RESULT:      -8.8      1.938      3.127
REMARK  Name = 
REMARK  18 active torsions:
REMARK  status: ('A' for Active; 'I' for Inactive)
REMARK    1  A    between atoms: C_2  and  C_3
REMARK    2  A    between atoms: C_3  and  C_4
REMARK    3  A    between atoms: C_4  and  C_5
REMARK    4  A    between atoms: C_5  and  C_6
REMARK    5  A    between atoms: C_6  and  O_7
REMARK    6  A    between atoms: O_7  and  C_8
REMARK    7  A    between atoms: C_8  and  N_10
REMARK    8  A    between atoms: C_11  and  C_13
REMARK    9  A    between atoms: C_16  and  N_17
REMARK   10  A    between atoms: N_17  and  C_18
REMARK   11  A    between atoms: C_18  and  C_19
REMARK   12  A    between atoms: C_23  and  C_24
REMARK   13  A    between atoms: N_26  and  C_27
REMARK   14  A    between atoms: N_26  and  C_34
REMARK   15  A    between atoms: C_27  and  C_28
REMARK   16  A    between atoms: C_28  and  C_29
REMARK   17  A    between atoms: C_29  and  O_31
REMARK   18  A    between atoms: O_31  and  C_32
REMARK                            x       y       z     vdW  Elec       q    Type
REMARK                         _______ _______ _______ _____ _____    ______ ____
ROOT
ATOM      1  C   UNL     1       3.309   4.788  -3.929  0.00  0.00    +0.142 A 
ATOM      2  N   UNL     1       2.083   5.321  -4.152  0.00  0.00    -0.311 N 
ATOM      3  C   UNL     1       1.443   6.317  -3.297  0.00  0.00    +0.132 C 
ATOM      4  C   UNL     1       1.753   4.963  -5.415  0.00  0.00    +0.079 A 
ATOM      5  C   UNL     1       2.897   4.543  -6.086  0.00  0.00    +0.099 A 
ATOM      6  C   UNL     1       3.048   4.737  -7.455  0.00  0.00    +0.025 A 
ATOM      7  C   UNL     1       2.111   5.484  -8.164  0.00  0.00    +0.056 A 
ATOM      8  C   UNL     1       0.845   5.487  -7.588  0.00  0.00    +0.006 A 
ATOM      9  C   UNL     1       0.676   5.317  -6.219  0.00  0.00    +0.019 A 
ATOM     10  N   UNL     1       3.749   4.225  -5.080  0.00  0.00    -0.229 NA
ENDROOT
BRANCH   7  11
ATOM     11  C   UNL     1       2.516   6.495  -9.150  0.00  0.00    +0.254 C 
ATOM     12  N   UNL     1       3.301   6.187 -10.292  0.00  0.00    -0.240 N 
ATOM     13  O   UNL     1       2.138   7.701  -9.026  0.00  0.00    -0.270 OA
BRANCH  12  14
ATOM     14  C   UNL     1       4.698   6.488 -10.189  0.00  0.00    +0.138 A 
ATOM     15  N   UNL     1       5.177   7.586 -10.822  0.00  0.00    -0.229 NA
ATOM     16  C   UNL     1       6.499   7.750 -11.062  0.00  0.00    +0.100 A 
ATOM     17  C   UNL     1       7.376   7.108 -10.199  0.00  0.00    +0.021 A 
ATOM     18  C   UNL     1       6.951   5.916  -9.651  0.00  0.00    +0.004 A 
ATOM     19  C   UNL     1       5.626   5.567  -9.743  0.00  0.00    +0.035 A 
ENDBRANCH  12  14
BRANCH  12  20
ATOM     20  C   UNL     1       2.695   6.498 -11.585  0.00  0.00    +0.112 C 
BRANCH  20  21
ATOM     21  C   UNL     1       2.875   5.295 -12.469  0.00  0.00    +0.131 C 
BRANCH  21  22
ATOM     22  C   UNL     1       3.814   5.521 -13.586  0.00  0.00    +0.319 C 
ATOM     23  O   UNL     1       3.367   5.958 -14.684  0.00  0.00    -0.250 OA
BRANCH  22  24
ATOM     24  O   UNL     1       5.088   4.950 -13.624  0.00  0.00    -0.448 OA
BRANCH  24  25
ATOM     25  C   UNL     1       6.186   5.686 -14.112  0.00  0.00    +0.209 C 
ATOM     26  C   UNL     1       7.435   5.296 -13.342  0.00  0.00    +0.051 C 
ENDBRANCH  24  25
ENDBRANCH  22  24
ENDBRANCH  21  22
ENDBRANCH  20  21
ENDBRANCH  12  20
ENDBRANCH   7  11
BRANCH   1  27
ATOM     27  C   UNL     1       4.217   5.109  -2.784  0.00  0.00    +0.176 C 
BRANCH  27  28
ATOM     28  N   UNL     1       4.630   6.479  -2.946  0.00  0.00    -0.229 NA
BRANCH  28  32
ATOM     29  C   UNL     1       3.070   8.424   0.312  0.00  0.00    +0.089 A 
ATOM     30  C   UNL     1       3.933   7.350   0.501  0.00  0.00    +0.009 A 
ATOM     31  C   UNL     1       4.706   6.851  -0.540  0.00  0.00    +0.016 A 
ATOM     32  C   UNL     1       4.583   7.356  -1.815  0.00  0.00    +0.066 A 
ATOM     33  C   UNL     1       4.015   8.620  -1.916  0.00  0.00    +0.016 A 
ATOM     34  C   UNL     1       3.268   9.129  -0.870  0.00  0.00    +0.009 A 
BRANCH  29  36
ATOM     35  N   UNL     1       0.983   9.451   0.775  0.00  0.00    +0.074 NA
ATOM     36  C   UNL     1       1.772   8.458   0.995  0.00  0.00    +0.412 C 
ATOM     37  N   UNL     1       1.506   7.676   2.153  0.00  0.00    +0.214 NA
BRANCH  35  38
ATOM     38  C   UNL     1      -0.410   9.342   1.067  0.00  0.00    +0.543 C 
ATOM     39  O   UNL     1      -0.895  10.252   1.806  0.00  0.00    -0.198 OA
BRANCH  38  40
ATOM     40  O   UNL     1      -1.239   8.712   0.135  0.00  0.00    -0.414 OA
BRANCH  40  41
ATOM     41  C   UNL     1      -1.924   7.561   0.585  0.00  0.00    +0.213 C 
BRANCH  41  42
ATOM     42  C   UNL     1      -2.551   6.916  -0.633  0.00  0.00    +0.048 C 
BRANCH  42  43
ATOM     43  C   UNL     1      -1.873   7.363  -1.904  0.00  0.00    +0.004 C 
BRANCH  43  44
ATOM     44  C   UNL     1      -2.068   6.313  -2.988  0.00  0.00    +0.000 C 
BRANCH  44  46
ATOM     45  C   UNL     1      -1.675   8.087  -4.671  0.00  0.00    +0.000 C 
ATOM     46  C   UNL     1      -2.598   6.978  -4.227  0.00  0.00    +0.000 C 
ENDBRANCH  44  46
ENDBRANCH  43  44
ENDBRANCH  42  43
ENDBRANCH  41  42
ENDBRANCH  40  41
ENDBRANCH  38  40
ENDBRANCH  35  38
ENDBRANCH  29  36
ENDBRANCH  28  32
ENDBRANCH  27  28
ENDBRANCH   1  27
TORSDOF 18
ENDMDL
MODEL 4
REMARK VINA RESULT:      -8.8      2.307      4.572
REMARK  Name = 
REMARK  18 active torsions:
REMARK  status: ('A' for Active; 'I' for Inactive)
REMARK    1  A    between atoms: C_2  and  C_3
REMARK    2  A    between atoms: C_3  and  C_4
REMARK    3  A    between atoms: C_4  and  C_5
REMARK    4  A    between atoms: C_5  and  C_6
REMARK    5  A    between atoms: C_6  and  O_7
REMARK    6  A    between atoms: O_7  and  C_8
REMARK    7  A    between atoms: C_8  and  N_10
REMARK    8  A    between atoms: C_11  and  C_13
REMARK    9  A    between atoms: C_16  and  N_17
REMARK   10  A    between atoms: N_17  and  C_18
REMARK   11  A    between atoms: C_18  and  C_19
REMARK   12  A    between atoms: C_23  and  C_24
REMARK   13  A    between atoms: N_26  and  C_27
REMARK   14  A    between atoms: N_26  and  C_34
REMARK   15  A    between atoms: C_27  and  C_28
REMARK   16  A    between atoms: C_28  and  C_29
REMARK   17  A    between atoms: C_29  and  O_31
REMARK   18  A    between atoms: O_31  and  C_32
REMARK                            x       y       z     vdW  Elec       q    Type
REMARK                         _______ _______ _______ _____ _____    ______ ____
ROOT
ATOM      1  C   UNL     1      -1.125   6.920  -4.702  0.00  0.00    +0.142 A 
ATOM      2  N   UNL     1      -1.213   5.918  -5.610  0.00  0.00    -0.311 N 
ATOM      3  C   UNL     1      -2.441   5.521  -6.292  0.00  0.00    +0.132 C 
ATOM      4  C   UNL     1       0.064   5.603  -5.932  0.00  0.00    +0.079 A 
ATOM      5  C   UNL     1       0.907   6.630  -5.521  0.00  0.00    +0.099 A 
ATOM      6  C   UNL     1       2.069   6.940  -6.221  0.00  0.00    +0.025 A 
ATOM      7  C   UNL     1       2.343   6.313  -7.434  0.00  0.00    +0.056 A 
ATOM      8  C   UNL     1       1.757   5.059  -7.562  0.00  0.00    +0.006 A 
ATOM      9  C   UNL     1       0.585   4.739  -6.887  0.00  0.00    +0.019 A 
ATOM     10  N   UNL     1       0.177   7.273  -4.576  0.00  0.00    -0.229 NA
ENDROOT
BRANCH   7  11
ATOM     11  C   UNL     1       2.823   7.067  -8.600  0.00  0.00    +0.254 C 
ATOM     12  N   UNL     1       3.399   6.442  -9.738  0.00  0.00    -0.240 N 
ATOM     13  O   UNL     1       2.704   8.330  -8.642  0.00  0.00    -0.270 OA
BRANCH  12  14
ATOM     14  C   UNL     1       4.830   6.455  -9.800  0.00  0.00    +0.138 A 
ATOM     15  N   UNL     1       5.437   7.266 -10.700  0.00  0.00    -0.229 NA
ATOM     16  C   UNL     1       6.730   7.091 -11.058  0.00  0.00    +0.100 A 
ATOM     17  C   UNL     1       7.559   6.475 -10.130  0.00  0.00    +0.021 A 
ATOM     18  C   UNL     1       6.977   5.544  -9.295  0.00  0.00    +0.004 A 
ATOM     19  C   UNL     1       5.607   5.474  -9.216  0.00  0.00    +0.035 A 
ENDBRANCH  12  14
BRANCH  12  20
ATOM     20  C   UNL     1       2.722   6.688 -11.009  0.00  0.00    +0.112 C 
BRANCH  20  21
ATOM     21  C   UNL     1       1.598   5.696 -11.122  0.00  0.00    +0.131 C 
BRANCH  21  22
ATOM     22  C   UNL     1       1.139   5.480 -12.508  0.00  0.00    +0.319 C 
ATOM     23  O   UNL     1       0.532   4.410 -12.794  0.00  0.00    -0.250 OA
BRANCH  22  24
ATOM     24  O   UNL     1       1.642   6.210 -13.589  0.00  0.00    -0.448 OA
BRANCH  24  25
ATOM     25  C   UNL     1       0.854   6.420 -14.737  0.00  0.00    +0.209 C 
ATOM     26  C   UNL     1       0.608   7.907 -14.913  0.00  0.00    +0.051 C 
ENDBRANCH  24  25
ENDBRANCH  22  24
ENDBRANCH  21  22
ENDBRANCH  20  21
ENDBRANCH  12  20
ENDBRANCH   7  11
BRANCH   1  27
ATOM     27  C   UNL     1      -2.250   7.786  -4.231  0.00  0.00    +0.176 C 
BRANCH  27  28
ATOM     28  N   UNL     1      -3.052   6.988  -3.340  0.00  0.00    -0.229 NA
BRANCH  28  32
ATOM     29  C   UNL     1      -0.243   6.386  -0.411  0.00  0.00    +0.089 A 
ATOM     30  C   UNL     1      -1.064   7.506  -0.355  0.00  0.00    +0.009 A 
ATOM     31  C   UNL     1      -2.205   7.608  -1.141  0.00  0.00    +0.016 A 
ATOM     32  C   UNL     1      -2.517   6.631  -2.061  0.00  0.00    +0.066 A 
ATOM     33  C   UNL     1      -1.920   5.392  -1.858  0.00  0.00    +0.016 A 
ATOM     34  C   UNL     1      -0.800   5.286  -1.054  0.00  0.00    +0.009 A 
BRANCH  29  36
ATOM     35  N   UNL     1       1.708   7.708  -0.147  0.00  0.00    +0.074 NA
ATOM     36  C   UNL     1       1.213   6.531  -0.303  0.00  0.00    +0.412 C 
ATOM     37  N   UNL     1       2.108   5.514  -0.738  0.00  0.00    +0.214 NA
BRANCH  35  38
ATOM     38  C   UNL     1       3.031   7.871   0.367  0.00  0.00    +0.543 C 
ATOM     39  O   UNL     1       3.248   7.365   1.509  0.00  0.00    -0.198 OA
BRANCH  38  40
ATOM     40  O   UNL     1       4.089   7.980  -0.539  0.00  0.00    -0.414 OA
BRANCH  40  41
ATOM     41  C   UNL     1       3.871   8.816  -1.656  0.00  0.00    +0.213 C 
BRANCH  41  42
ATOM     42  C   UNL     1       3.736   7.913  -2.864  0.00  0.00    +0.048 C 
BRANCH  42  43
ATOM     43  C   UNL     1       4.956   7.989  -3.747  0.00  0.00    +0.004 C 
BRANCH  43  44
ATOM     44  C   UNL     1       5.169   6.652  -4.445  0.00  0.00    +0.000 C 
BRANCH  44  46
ATOM     45  C   UNL     1       4.141   4.402  -4.546  0.00  0.00    +0.000 C 
ATOM     46  C   UNL     1       4.486   5.572  -3.656  0.00  0.00    +0.000 C 
ENDBRANCH  44  46
ENDBRANCH  43  44
ENDBRANCH  42  43
ENDBRANCH  41  42
ENDBRANCH  40  41
ENDBRANCH  38  40
ENDBRANCH  35  38
ENDBRANCH  29  36
ENDBRANCH  28  32
ENDBRANCH  27  28
ENDBRANCH   1  27
TORSDOF 18
ENDMDL
MODEL 5
REMARK VINA RESULT:      -8.8      2.344      4.461
REMARK  Name = 
REMARK  18 active torsions:
REMARK  status: ('A' for Active; 'I' for Inactive)
REMARK    1  A    between atoms: C_2  and  C_3
REMARK    2  A    between atoms: C_3  and  C_4
REMARK    3  A    between atoms: C_4  and  C_5
REMARK    4  A    between atoms: C_5  and  C_6
REMARK    5  A    between atoms: C_6  and  O_7
REMARK    6  A    between atoms: O_7  and  C_8
REMARK    7  A    between atoms: C_8  and  N_10
REMARK    8  A    between atoms: C_11  and  C_13
REMARK    9  A    between atoms: C_16  and  N_17
REMARK   10  A    between atoms: N_17  and  C_18
REMARK   11  A    between atoms: C_18  and  C_19
REMARK   12  A    between atoms: C_23  and  C_24
REMARK   13  A    between atoms: N_26  and  C_27
REMARK   14  A    between atoms: N_26  and  C_34
REMARK   15  A    between atoms: C_27  and  C_28
REMARK   16  A    between atoms: C_28  and  C_29
REMARK   17  A    between atoms: C_29  and  O_31
REMARK   18  A    between atoms: O_31  and  C_32
REMARK                            x       y       z     vdW  Elec       q    Type
REMARK                         _______ _______ _______ _____ _____    ______ ____
ROOT
ATOM      1  C   UNL     1       1.943   5.189  -8.149  0.00  0.00    +0.142 A 
ATOM      2  N   UNL     1       1.675   6.414  -8.660  0.00  0.00    -0.311 N 
ATOM      3  C   UNL     1       2.402   7.633  -8.317  0.00  0.00    +0.132 C 
ATOM      4  C   UNL     1       0.841   6.201  -9.705  0.00  0.00    +0.079 A 
ATOM      5  C   UNL     1       0.891   4.858 -10.064  0.00  0.00    +0.099 A 
ATOM      6  C   UNL     1       0.717   4.453 -11.384  0.00  0.00    +0.025 A 
ATOM      7  C   UNL     1       0.625   5.400 -12.400  0.00  0.00    +0.056 A 
ATOM      8  C   UNL     1       0.149   6.635 -11.975  0.00  0.00    +0.006 A 
ATOM      9  C   UNL     1       0.332   7.066 -10.666  0.00  0.00    +0.019 A 
ATOM     10  N   UNL     1       1.373   4.255  -8.949  0.00  0.00    -0.229 NA
ENDROOT
BRANCH   7  11
ATOM     11  C   UNL     1       1.353   5.244 -13.667  0.00  0.00    +0.254 C 
ATOM     12  N   UNL     1       2.320   6.181 -14.121  0.00  0.00    -0.240 N 
ATOM     13  O   UNL     1       1.160   4.225 -14.398  0.00  0.00    -0.270 OA
BRANCH  12  14
ATOM     14  C   UNL     1       1.866   7.119 -15.104  0.00  0.00    +0.138 A 
ATOM     15  N   UNL     1       2.634   7.341 -16.197  0.00  0.00    -0.229 NA
ATOM     16  C   UNL     1       2.462   8.431 -16.980  0.00  0.00    +0.100 A 
ATOM     17  C   UNL     1       1.194   8.996 -16.996  0.00  0.00    +0.021 A 
ATOM     18  C   UNL     1       0.451   8.895 -15.838  0.00  0.00    +0.004 A 
ATOM     19  C   UNL     1       0.855   8.027 -14.853  0.00  0.00    +0.035 A 
ENDBRANCH  12  14
BRANCH  12  20
ATOM     20  C   UNL     1       3.663   5.651 -14.344  0.00  0.00    +0.112 C 
BRANCH  20  21
ATOM     21  C   UNL     1       4.219   5.253 -13.006  0.00  0.00    +0.131 C 
BRANCH  21  22
ATOM     22  C   UNL     1       5.678   5.456 -12.890  0.00  0.00    +0.319 C 
ATOM     23  O   UNL     1       6.431   5.033 -13.812  0.00  0.00    -0.250 OA
BRANCH  22  24
ATOM     24  O   UNL     1       6.300   5.757 -11.676  0.00  0.00    -0.448 OA
BRANCH  24  25
ATOM     25  C   UNL     1       7.211   6.828 -11.588  0.00  0.00    +0.209 C 
ATOM     26  C   UNL     1       6.446   8.126 -11.404  0.00  0.00    +0.051 C 
ENDBRANCH  24  25
ENDBRANCH  22  24
ENDBRANCH  21  22
ENDBRANCH  20  21
ENDBRANCH  12  20
ENDBRANCH   7  11
BRANCH   1  27
ATOM     27  C   UNL     1       3.009   4.861  -7.151  0.00  0.00    +0.176 C 
BRANCH  27  28
ATOM     28  N   UNL     1       2.568   5.375  -5.880  0.00  0.00    -0.229 NA
BRANCH  28  32
ATOM     29  C   UNL     1       4.124   6.489  -2.252  0.00  0.00    +0.089 A 
ATOM     30  C   UNL     1       4.342   5.200  -2.726  0.00  0.00    +0.009 A 
ATOM     31  C   UNL     1       4.094   4.865  -4.051  0.00  0.00    +0.016 A 
ATOM     32  C   UNL     1       3.549   5.783  -4.921  0.00  0.00    +0.066 A 
ATOM     33  C   UNL     1       3.675   7.117  -4.554  0.00  0.00    +0.016 A 
ATOM     34  C   UNL     1       3.948   7.452  -3.240  0.00  0.00    +0.009 A 
BRANCH  29  36
ATOM     35  N   UNL     1       2.668   7.575  -0.728  0.00  0.00    +0.074 NA
ATOM     36  C   UNL     1       3.595   6.700  -0.900  0.00  0.00    +0.412 C 
ATOM     37  N   UNL     1       4.300   6.281   0.262  0.00  0.00    +0.214 NA
BRANCH  35  38
ATOM     38  C   UNL     1       1.846   7.535   0.440  0.00  0.00    +0.543 C 
ATOM     39  O   UNL     1       1.674   8.641   1.035  0.00  0.00    -0.198 OA
BRANCH  38  40
ATOM     40  O   UNL     1       0.849   6.559   0.520  0.00  0.00    -0.414 OA
BRANCH  40  41
ATOM     41  C   UNL     1      -0.128   6.579  -0.500  0.00  0.00    +0.213 C 
BRANCH  41  42
ATOM     42  C   UNL     1       0.084   5.337  -1.340  0.00  0.00    +0.048 C 
BRANCH  42  43
ATOM     43  C   UNL     1       0.464   5.688  -2.756  0.00  0.00    +0.004 C 
BRANCH  43  44
ATOM     44  C   UNL     1      -0.758   5.581  -3.658  0.00  0.00    +0.000 C 
BRANCH  44  46
ATOM     45  C   UNL     1      -1.090   5.893  -6.092  0.00  0.00    +0.000 C 
ATOM     46  C   UNL     1      -0.600   6.529  -4.814  0.00  0.00    +0.000 C 
ENDBRANCH  44  46
ENDBRANCH  43  44
ENDBRANCH  42  43
ENDBRANCH  41  42
ENDBRANCH  40  41
ENDBRANCH  38  40
ENDBRANCH  35  38
ENDBRANCH  29  36
ENDBRANCH  28  32
ENDBRANCH  27  28
ENDBRANCH   1  27
TORSDOF 18
ENDMDL
MODEL 6
REMARK VINA RESULT:      -8.5      2.845     10.855
REMARK  Name = 
REMARK  18 active torsions:
REMARK  status: ('A' for Active; 'I' for Inactive)
REMARK    1  A    between atoms: C_2  and  C_3
REMARK    2  A    between atoms: C_3  and  C_4
REMARK    3  A    between atoms: C_4  and  C_5
REMARK    4  A    between atoms: C_5  and  C_6
REMARK    5  A    between atoms: C_6  and  O_7
REMARK    6  A    between atoms: O_7  and  C_8
REMARK    7  A    between atoms: C_8  and  N_10
REMARK    8  A    between atoms: C_11  and  C_13
REMARK    9  A    between atoms: C_16  and  N_17
REMARK   10  A    between atoms: N_17  and  C_18
REMARK   11  A    between atoms: C_18  and  C_19
REMARK   12  A    between atoms: C_23  and  C_24
REMARK   13  A    between atoms: N_26  and  C_27
REMARK   14  A    between atoms: N_26  and  C_34
REMARK   15  A    between atoms: C_27  and  C_28
REMARK   16  A    between atoms: C_28  and  C_29
REMARK   17  A    between atoms: C_29  and  O_31
REMARK   18  A    between atoms: O_31  and  C_32
REMARK                            x       y       z     vdW  Elec       q    Type
REMARK                         _______ _______ _______ _____ _____    ______ ____
ROOT
ATOM      1  C   UNL     1       5.843   6.645 -11.415  0.00  0.00    +0.142 A 
ATOM      2  N   UNL     1       6.259   6.058 -10.267  0.00  0.00    -0.311 N 
ATOM      3  C   UNL     1       7.578   6.245  -9.671  0.00  0.00    +0.132 C 
ATOM      4  C   UNL     1       5.145   5.542  -9.695  0.00  0.00    +0.079 A 
ATOM      5  C   UNL     1       4.022   6.117 -10.280  0.00  0.00    +0.099 A 
ATOM      6  C   UNL     1       2.852   6.323  -9.555  0.00  0.00    +0.025 A 
ATOM      7  C   UNL     1       2.826   6.081  -8.185  0.00  0.00    +0.056 A 
ATOM      8  C   UNL     1       3.758   5.139  -7.763  0.00  0.00    +0.006 A 
ATOM      9  C   UNL     1       4.942   4.935  -8.462  0.00  0.00    +0.019 A 
ATOM     10  N   UNL     1       4.490   6.581 -11.465  0.00  0.00    -0.229 NA
ENDROOT
BRANCH   7  11
ATOM     11  C   UNL     1       2.197   7.022  -7.247  0.00  0.00    +0.254 C 
ATOM     12  N   UNL     1       1.672   6.623  -5.990  0.00  0.00    -0.240 N 
ATOM     13  O   UNL     1       2.133   8.259  -7.525  0.00  0.00    -0.270 OA
BRANCH  12  14
ATOM     14  C   UNL     1       0.252   6.439  -5.937  0.00  0.00    +0.138 A 
ATOM     15  N   UNL     1      -0.424   6.888  -4.852  0.00  0.00    -0.229 NA
ATOM     16  C   UNL     1      -1.676   6.460  -4.565  0.00  0.00    +0.100 A 
ATOM     17  C   UNL     1      -2.448   6.025  -5.632  0.00  0.00    +0.021 A 
ATOM     18  C   UNL     1      -1.781   5.440  -6.688  0.00  0.00    +0.004 A 
ATOM     19  C   UNL     1      -0.416   5.567  -6.774  0.00  0.00    +0.035 A 
ENDBRANCH  12  14
BRANCH  12  20
ATOM     20  C   UNL     1       2.256   7.275  -4.820  0.00  0.00    +0.112 C 
BRANCH  20  21
ATOM     21  C   UNL     1       3.689   6.833  -4.725  0.00  0.00    +0.131 C 
BRANCH  21  22
ATOM     22  C   UNL     1       3.865   5.555  -4.005  0.00  0.00    +0.319 C 
ATOM     23  O   UNL     1       4.701   4.714  -4.442  0.00  0.00    -0.250 OA
BRANCH  22  24
ATOM     24  O   UNL     1       2.922   5.071  -3.094  0.00  0.00    -0.448 OA
BRANCH  24  25
ATOM     25  C   UNL     1       3.007   5.414  -1.731  0.00  0.00    +0.209 C 
ATOM     26  C   UNL     1       4.196   4.707  -1.106  0.00  0.00    +0.051 C 
ENDBRANCH  24  25
ENDBRANCH  22  24
ENDBRANCH  21  22
ENDBRANCH  20  21
ENDBRANCH  12  20
ENDBRANCH   7  11
BRANCH   1  27
ATOM     27  C   UNL     1       6.644   7.572 -12.274  0.00  0.00    +0.176 C 
BRANCH  27  28
ATOM     28  N   UNL     1       7.286   6.764 -13.279  0.00  0.00    -0.229 NA
BRANCH  28  32
ATOM     29  C   UNL     1       4.715   7.496 -16.389  0.00  0.00    +0.089 A 
ATOM     30  C   UNL     1       6.063   7.806 -16.526  0.00  0.00    +0.009 A 
ATOM     31  C   UNL     1       7.011   7.319 -15.635  0.00  0.00    +0.016 A 
ATOM     32  C   UNL     1       6.633   6.576 -14.539  0.00  0.00    +0.066 A 
ATOM     33  C   UNL     1       5.378   5.984 -14.610  0.00  0.00    +0.016 A 
ATOM     34  C   UNL     1       4.442   6.450 -15.515  0.00  0.00    +0.009 A 
BRANCH  29  36
ATOM     35  N   UNL     1       2.598   8.121 -17.258  0.00  0.00    +0.074 NA
ATOM     36  C   UNL     1       3.691   8.502 -16.695  0.00  0.00    +0.412 C 
ATOM     37  N   UNL     1       3.989   9.891 -16.755  0.00  0.00    +0.214 NA
BRANCH  35  38
ATOM     38  C   UNL     1       1.433   8.945 -17.202  0.00  0.00    +0.543 C 
ATOM     39  O   UNL     1       1.132   9.553 -18.273  0.00  0.00    -0.198 OA
BRANCH  38  40
ATOM     40  O   UNL     1       0.415   8.600 -16.309  0.00  0.00    -0.414 OA
BRANCH  40  41
ATOM     41  C   UNL     1       0.786   8.490 -14.951  0.00  0.00    +0.213 C 
BRANCH  41  42
ATOM     42  C   UNL     1       0.629   7.034 -14.566  0.00  0.00    +0.048 C 
BRANCH  42  43
ATOM     43  C   UNL     1       1.301   6.737 -13.249  0.00  0.00    +0.004 C 
BRANCH  43  44
ATOM     44  C   UNL     1       0.837   5.383 -12.729  0.00  0.00    +0.000 C 
BRANCH  44  46
ATOM     45  C   UNL     1       0.009   4.437 -10.596  0.00  0.00    +0.000 C 
ATOM     46  C   UNL     1      -0.081   5.596 -11.559  0.00  0.00    +0.000 C 
ENDBRANCH  44  46
ENDBRANCH  43  44
ENDBRANCH  42  43
ENDBRANCH  41  42
ENDBRANCH  40  41
ENDBRANCH  38  40
ENDBRANCH  35  38
ENDBRANCH  29  36
ENDBRANCH  28  32
ENDBRANCH  27  28
ENDBRANCH   1  27
TORSDOF 18
ENDMDL
MODEL 7
REMARK VINA RESULT:      -8.5      2.050      4.383
REMARK  Name = 
REMARK  18 active torsions:
REMARK  status: ('A' for Active; 'I' for Inactive)
REMARK    1  A    between atoms: C_2  and  C_3
REMARK    2  A    between atoms: C_3  and  C_4
REMARK    3  A    between atoms: C_4  and  C_5
REMARK    4  A    between atoms: C_5  and  C_6
REMARK    5  A    between atoms: C_6  and  O_7
REMARK    6  A    between atoms: O_7  and  C_8
REMARK    7  A    between atoms: C_8  and  N_10
REMARK    8  A    between atoms: C_11  and  C_13
REMARK    9  A    between atoms: C_16  and  N_17
REMARK   10  A    between atoms: N_17  and  C_18
REMARK   11  A    between atoms: C_18  and  C_19
REMARK   12  A    between atoms: C_23  and  C_24
REMARK   13  A    between atoms: N_26  and  C_27
REMARK   14  A    between atoms: N_26  and  C_34
REMARK   15  A    between atoms: C_27  and  C_28
REMARK   16  A    between atoms: C_28  and  C_29
REMARK   17  A    between atoms: C_29  and  O_31
REMARK   18  A    between atoms: O_31  and  C_32
REMARK                            x       y       z     vdW  Elec       q    Type
REMARK                         _______ _______ _______ _____ _____    ______ ____
ROOT
ATOM      1  C   UNL     1      -0.202   6.558  -5.278  0.00  0.00    +0.142 A 
ATOM      2  N   UNL     1      -0.285   5.494  -6.112  0.00  0.00    -0.311 N 
ATOM      3  C   UNL     1      -1.521   5.011  -6.721  0.00  0.00    +0.132 C 
ATOM      4  C   UNL     1       0.991   5.198  -6.456  0.00  0.00    +0.079 A 
ATOM      5  C   UNL     1       1.811   6.278  -6.146  0.00  0.00    +0.099 A 
ATOM      6  C   UNL     1       2.938   6.575  -6.906  0.00  0.00    +0.025 A 
ATOM      7  C   UNL     1       3.193   5.876  -8.082  0.00  0.00    +0.056 A 
ATOM      8  C   UNL     1       2.647   4.597  -8.104  0.00  0.00    +0.006 A 
ATOM      9  C   UNL     1       1.509   4.287  -7.368  0.00  0.00    +0.019 A 
ATOM     10  N   UNL     1       1.091   6.961  -5.221  0.00  0.00    -0.229 NA
ENDROOT
BRANCH   7  11
ATOM     11  C   UNL     1       3.609   6.562  -9.313  0.00  0.00    +0.254 C 
ATOM     12  N   UNL     1       4.065   5.869 -10.466  0.00  0.00    -0.240 N 
ATOM     13  O   UNL     1       3.539   7.827  -9.398  0.00  0.00    -0.270 OA
BRANCH  12  14
ATOM     14  C   UNL     1       5.486   5.816 -10.640  0.00  0.00    +0.138 A 
ATOM     15  N   UNL     1       5.983   5.584 -11.879  0.00  0.00    -0.229 NA
ATOM     16  C   UNL     1       7.261   5.182 -12.071  0.00  0.00    +0.100 A 
ATOM     17  C   UNL     1       8.182   5.543 -11.098  0.00  0.00    +0.021 A 
ATOM     18  C   UNL     1       7.715   5.651  -9.804  0.00  0.00    +0.004 A 
ATOM     19  C   UNL     1       6.360   5.682  -9.579  0.00  0.00    +0.035 A 
ENDBRANCH  12  14
BRANCH  12  20
ATOM     20  C   UNL     1       3.299   6.096 -11.689  0.00  0.00    +0.112 C 
BRANCH  20  21
ATOM     21  C   UNL     1       1.915   5.554 -11.462  0.00  0.00    +0.131 C 
BRANCH  21  22
ATOM     22  C   UNL     1       0.855   6.576 -11.579  0.00  0.00    +0.319 C 
ATOM     23  O   UNL     1       0.317   7.026 -10.528  0.00  0.00    -0.250 OA
BRANCH  22  24
ATOM     24  O   UNL     1       0.166   6.810 -12.772  0.00  0.00    -0.448 OA
BRANCH  24  25
ATOM     25  C   UNL     1       0.617   7.792 -13.675  0.00  0.00    +0.209 C 
ATOM     26  C   UNL     1       0.985   7.134 -14.992  0.00  0.00    +0.051 C 
ENDBRANCH  24  25
ENDBRANCH  22  24
ENDBRANCH  21  22
ENDBRANCH  20  21
ENDBRANCH  12  20
ENDBRANCH   7  11
BRANCH   1  27
ATOM     27  C   UNL     1      -1.340   7.418  -4.827  0.00  0.00    +0.176 C 
BRANCH  27  28
ATOM     28  N   UNL     1      -2.299   6.550  -4.195  0.00  0.00    -0.229 NA
BRANCH  28  32
ATOM     29  C   UNL     1      -0.849   6.789  -0.366  0.00  0.00    +0.089 A 
ATOM     30  C   UNL     1      -2.124   7.265  -0.648  0.00  0.00    +0.009 A 
ATOM     31  C   UNL     1      -2.767   6.951  -1.838  0.00  0.00    +0.016 A 
ATOM     32  C   UNL     1      -2.127   6.218  -2.813  0.00  0.00    +0.066 A 
ATOM     33  C   UNL     1      -1.039   5.464  -2.391  0.00  0.00    +0.016 A 
ATOM     34  C   UNL     1      -0.414   5.760  -1.193  0.00  0.00    +0.009 A 
BRANCH  29  36
ATOM     35  N   UNL     1       1.126   7.080   0.915  0.00  0.00    +0.074 NA
ATOM     36  C   UNL     1       0.117   7.636   0.344  0.00  0.00    +0.412 C 
ATOM     37  N   UNL     1      -0.198   8.962   0.754  0.00  0.00    +0.214 NA
BRANCH  35  38
ATOM     38  C   UNL     1       2.281   7.850   1.249  0.00  0.00    +0.543 C 
ATOM     39  O   UNL     1       2.671   7.772   2.453  0.00  0.00    -0.198 OA
BRANCH  38  40
ATOM     40  O   UNL     1       3.220   8.111   0.247  0.00  0.00    -0.414 OA
BRANCH  40  41
ATOM     41  C   UNL     1       4.407   7.346   0.289  0.00  0.00    +0.213 C 
BRANCH  41  42
ATOM     42  C   UNL     1       4.215   6.181  -0.659  0.00  0.00    +0.048 C 
BRANCH  42  43
ATOM     43  C   UNL     1       3.776   6.647  -2.024  0.00  0.00    +0.004 C 
BRANCH  43  44
ATOM     44  C   UNL     1       4.929   7.358  -2.720  0.00  0.00    +0.000 C 
BRANCH  44  46
ATOM     45  C   UNL     1       4.812   5.242  -4.002  0.00  0.00    +0.000 C 
ATOM     46  C   UNL     1       5.175   6.707  -4.052  0.00  0.00    +0.000 C 
ENDBRANCH  44  46
ENDBRANCH  43  44
ENDBRANCH  42  43
ENDBRANCH  41  42
ENDBRANCH  40  41
ENDBRANCH  38  40
ENDBRANCH  35  38
ENDBRANCH  29  36
ENDBRANCH  28  32
ENDBRANCH  27  28
ENDBRANCH   1  27
TORSDOF 18
ENDMDL
MODEL 8
REMARK VINA RESULT:      -8.5      1.669      2.248
REMARK  Name = 
REMARK  18 active torsions:
REMARK  status: ('A' for Active; 'I' for Inactive)
REMARK    1  A    between atoms: C_2  and  C_3
REMARK    2  A    between atoms: C_3  and  C_4
REMARK    3  A    between atoms: C_4  and  C_5
REMARK    4  A    between atoms: C_5  and  C_6
REMARK    5  A    between atoms: C_6  and  O_7
REMARK    6  A    between atoms: O_7  and  C_8
REMARK    7  A    between atoms: C_8  and  N_10
REMARK    8  A    between atoms: C_11  and  C_13
REMARK    9  A    between atoms: C_16  and  N_17
REMARK   10  A    between atoms: N_17  and  C_18
REMARK   11  A    between atoms: C_18  and  C_19
REMARK   12  A    between atoms: C_23  and  C_24
REMARK   13  A    between atoms: N_26  and  C_27
REMARK   14  A    between atoms: N_26  and  C_34
REMARK   15  A    between atoms: C_27  and  C_28
REMARK   16  A    between atoms: C_28  and  C_29
REMARK   17  A    between atoms: C_29  and  O_31
REMARK   18  A    between atoms: O_31  and  C_32
REMARK                            x       y       z     vdW  Elec       q    Type
REMARK                         _______ _______ _______ _____ _____    ______ ____
ROOT
ATOM      1  C   UNL     1       3.106   5.593  -4.750  0.00  0.00    +0.142 A 
ATOM      2  N   UNL     1       2.134   5.124  -5.568  0.00  0.00    -0.311 N 
ATOM      3  C   UNL     1       0.712   5.427  -5.426  0.00  0.00    +0.132 C 
ATOM      4  C   UNL     1       2.777   4.598  -6.637  0.00  0.00    +0.079 A 
ATOM      5  C   UNL     1       4.087   5.065  -6.659  0.00  0.00    +0.099 A 
ATOM      6  C   UNL     1       4.766   5.267  -7.856  0.00  0.00    +0.025 A 
ATOM      7  C   UNL     1       4.097   5.136  -9.070  0.00  0.00    +0.056 A 
ATOM      8  C   UNL     1       3.002   4.281  -9.018  0.00  0.00    +0.006 A 
ATOM      9  C   UNL     1       2.298   4.083  -7.836  0.00  0.00    +0.019 A 
ATOM     10  N   UNL     1       4.300   5.456  -5.378  0.00  0.00    -0.229 NA
ENDROOT
BRANCH   7  11
ATOM     11  C   UNL     1       4.265   6.116 -10.153  0.00  0.00    +0.254 C 
ATOM     12  N   UNL     1       4.562   5.743 -11.491  0.00  0.00    -0.240 N 
ATOM     13  O   UNL     1       4.113   7.355  -9.927  0.00  0.00    -0.270 OA
BRANCH  12  14
ATOM     14  C   UNL     1       5.935   5.861 -11.882  0.00  0.00    +0.138 A 
ATOM     15  N   UNL     1       6.253   5.731 -13.192  0.00  0.00    -0.229 NA
ATOM     16  C   UNL     1       7.522   5.487 -13.596  0.00  0.00    +0.100 A 
ATOM     17  C   UNL     1       8.540   5.918 -12.757  0.00  0.00    +0.021 A 
ATOM     18  C   UNL     1       8.272   5.926 -11.404  0.00  0.00    +0.004 A 
ATOM     19  C   UNL     1       6.974   5.793 -10.974  0.00  0.00    +0.035 A 
ENDBRANCH  12  14
BRANCH  12  20
ATOM     20  C   UNL     1       3.592   6.166 -12.499  0.00  0.00    +0.112 C 
BRANCH  20  21
ATOM     21  C   UNL     1       2.856   4.939 -12.960  0.00  0.00    +0.131 C 
BRANCH  21  22
ATOM     22  C   UNL     1       1.467   5.209 -13.384  0.00  0.00    +0.319 C 
ATOM     23  O   UNL     1       1.194   5.224 -14.617  0.00  0.00    -0.250 OA
BRANCH  22  24
ATOM     24  O   UNL     1       0.525   5.800 -12.537  0.00  0.00    -0.448 OA
BRANCH  24  25
ATOM     25  C   UNL     1       0.152   5.168 -11.335  0.00  0.00    +0.209 C 
ATOM     26  C   UNL     1       0.043   6.206 -10.233  0.00  0.00    +0.051 C 
ENDBRANCH  24  25
ENDBRANCH  22  24
ENDBRANCH  21  22
ENDBRANCH  20  21
ENDBRANCH  12  20
ENDBRANCH   7  11
BRANCH   1  27
ATOM     27  C   UNL     1       2.910   6.488  -3.567  0.00  0.00    +0.176 C 
BRANCH  27  28
ATOM     28  N   UNL     1       4.220   6.833  -3.079  0.00  0.00    -0.229 NA
BRANCH  28  32
ATOM     29  C   UNL     1       3.070   8.356   0.552  0.00  0.00    +0.089 A 
ATOM     30  C   UNL     1       3.801   7.175   0.503  0.00  0.00    +0.009 A 
ATOM     31  C   UNL     1       4.455   6.776  -0.655  0.00  0.00    +0.016 A 
ATOM     32  C   UNL     1       4.336   7.502  -1.819  0.00  0.00    +0.066 A 
ATOM     33  C   UNL     1       3.925   8.822  -1.672  0.00  0.00    +0.016 A 
ATOM     34  C   UNL     1       3.297   9.226  -0.508  0.00  0.00    +0.009 A 
BRANCH  29  36
ATOM     35  N   UNL     1       0.780   8.936   0.763  0.00  0.00    +0.074 NA
ATOM     36  C   UNL     1       1.820   8.421   1.318  0.00  0.00    +0.412 C 
ATOM     37  N   UNL     1       1.794   8.303   2.735  0.00  0.00    +0.214 NA
BRANCH  35  38
ATOM     38  C   UNL     1      -0.524   8.660   1.277  0.00  0.00    +0.543 C 
ATOM     39  O   UNL     1      -1.340   9.630   1.268  0.00  0.00    -0.198 OA
BRANCH  38  40
ATOM     40  O   UNL     1      -1.017   7.356   1.176  0.00  0.00    -0.414 OA
BRANCH  40  41
ATOM     41  C   UNL     1      -1.972   7.126   0.162  0.00  0.00    +0.213 C 
BRANCH  41  42
ATOM     42  C   UNL     1      -1.325   6.208  -0.854  0.00  0.00    +0.048 C 
BRANCH  42  43
ATOM     43  C   UNL     1      -2.339   5.667  -1.831  0.00  0.00    +0.004 C 
BRANCH  43  44
ATOM     44  C   UNL     1      -2.989   6.817  -2.587  0.00  0.00    +0.000 C 
BRANCH  44  46
ATOM     45  C   UNL     1      -1.889   8.059  -4.426  0.00  0.00    +0.000 C 
ATOM     46  C   UNL     1      -2.558   6.766  -4.026  0.00  0.00    +0.000 C 
ENDBRANCH  44  46
ENDBRANCH  43  44
ENDBRANCH  42  43
ENDBRANCH  41  42
ENDBRANCH  40  41
ENDBRANCH  38  40
ENDBRANCH  35  38
ENDBRANCH  29  36
ENDBRANCH  28  32
ENDBRANCH  27  28
ENDBRANCH   1  27
TORSDOF 18
ENDMDL
MODEL 9
REMARK VINA RESULT:      -8.3      2.006     10.444
REMARK  Name = 
REMARK  18 active torsions:
REMARK  status: ('A' for Active; 'I' for Inactive)
REMARK    1  A    between atoms: C_2  and  C_3
REMARK    2  A    between atoms: C_3  and  C_4
REMARK    3  A    between atoms: C_4  and  C_5
REMARK    4  A    between atoms: C_5  and  C_6
REMARK    5  A    between atoms: C_6  and  O_7
REMARK    6  A    between atoms: O_7  and  C_8
REMARK    7  A    between atoms: C_8  and  N_10
REMARK    8  A    between atoms: C_11  and  C_13
REMARK    9  A    between atoms: C_16  and  N_17
REMARK   10  A    between atoms: N_17  and  C_18
REMARK   11  A    between atoms: C_18  and  C_19
REMARK   12  A    between atoms: C_23  and  C_24
REMARK   13  A    between atoms: N_26  and  C_27
REMARK   14  A    between atoms: N_26  and  C_34
REMARK   15  A    between atoms: C_27  and  C_28
REMARK   16  A    between atoms: C_28  and  C_29
REMARK   17  A    between atoms: C_29  and  O_31
REMARK   18  A    between atoms: O_31  and  C_32
REMARK                            x       y       z     vdW  Elec       q    Type
REMARK                         _______ _______ _______ _____ _____    ______ ____
ROOT
ATOM      1  C   UNL     1       4.722   5.454  -7.977  0.00  0.00    +0.142 A 
ATOM      2  N   UNL     1       3.446   5.045  -7.779  0.00  0.00    -0.311 N 
ATOM      3  C   UNL     1       2.876   3.815  -8.322  0.00  0.00    +0.132 C 
ATOM      4  C   UNL     1       2.958   5.831  -6.790  0.00  0.00    +0.079 A 
ATOM      5  C   UNL     1       4.016   6.453  -6.136  0.00  0.00    +0.099 A 
ATOM      6  C   UNL     1       3.953   6.757  -4.780  0.00  0.00    +0.025 A 
ATOM      7  C   UNL     1       2.877   6.318  -4.014  0.00  0.00    +0.056 A 
ATOM      8  C   UNL     1       1.711   6.120  -4.746  0.00  0.00    +0.006 A 
ATOM      9  C   UNL     1       1.755   5.794  -6.096  0.00  0.00    +0.019 A 
ATOM     10  N   UNL     1       5.025   6.386  -7.041  0.00  0.00    -0.229 NA
ENDROOT
BRANCH   7  11
ATOM     11  C   UNL     1       3.068   5.721  -2.685  0.00  0.00    +0.254 C 
ATOM     12  N   UNL     1       2.409   6.200  -1.522  0.00  0.00    -0.240 N 
ATOM     13  O   UNL     1       3.823   4.710  -2.538  0.00  0.00    -0.270 OA
BRANCH  12  14
ATOM     14  C   UNL     1       3.185   7.052  -0.671  0.00  0.00    +0.138 A 
ATOM     15  N   UNL     1       3.865   6.499   0.361  0.00  0.00    -0.229 NA
ATOM     16  C   UNL     1       4.327   7.246   1.392  0.00  0.00    +0.100 A 
ATOM     17  C   UNL     1       4.595   8.581   1.126  0.00  0.00    +0.021 A 
ATOM     18  C   UNL     1       3.815   9.195   0.167  0.00  0.00    +0.004 A 
ATOM     19  C   UNL     1       3.034   8.425  -0.659  0.00  0.00    +0.035 A 
ENDBRANCH  12  14
BRANCH  12  20
ATOM     20  C   UNL     1       1.566   5.232  -0.825  0.00  0.00    +0.112 C 
BRANCH  20  21
ATOM     21  C   UNL     1       0.237   5.201  -1.528  0.00  0.00    +0.131 C 
BRANCH  21  22
ATOM     22  C   UNL     1      -0.584   6.405  -1.289  0.00  0.00    +0.319 C 
ATOM     23  O   UNL     1      -0.696   6.847  -0.111  0.00  0.00    -0.250 OA
BRANCH  22  24
ATOM     24  O   UNL     1      -1.525   6.868  -2.213  0.00  0.00    -0.448 OA
BRANCH  24  25
ATOM     25  C   UNL     1      -2.827   6.331  -2.235  0.00  0.00    +0.209 C 
ATOM     26  C   UNL     1      -2.929   5.304  -3.347  0.00  0.00    +0.051 C 
ENDBRANCH  24  25
ENDBRANCH  22  24
ENDBRANCH  21  22
ENDBRANCH  20  21
ENDBRANCH  12  20
ENDBRANCH   7  11
BRANCH   1  27
ATOM     27  C   UNL     1       5.765   4.739  -8.777  0.00  0.00    +0.176 C 
BRANCH  27  28
ATOM     28  N   UNL     1       6.870   5.649  -8.935  0.00  0.00    -0.229 NA
BRANCH  28  32
ATOM     29  C   UNL     1       6.423   6.413 -12.940  0.00  0.00    +0.089 A 
ATOM     30  C   UNL     1       6.298   7.452 -12.026  0.00  0.00    +0.009 A 
ATOM     31  C   UNL     1       6.720   7.312 -10.709  0.00  0.00    +0.016 A 
ATOM     32  C   UNL     1       7.206   6.109 -10.249  0.00  0.00    +0.066 A 
ATOM     33  C   UNL     1       7.656   5.223 -11.220  0.00  0.00    +0.016 A 
ATOM     34  C   UNL     1       7.258   5.377 -12.536  0.00  0.00    +0.009 A 
BRANCH  29  36
ATOM     35  N   UNL     1       4.447   5.335 -13.688  0.00  0.00    +0.074 NA
ATOM     36  C   UNL     1       5.380   6.183 -13.946  0.00  0.00    +0.412 C 
ATOM     37  N   UNL     1       5.551   6.547 -15.311  0.00  0.00    +0.214 NA
BRANCH  35  38
ATOM     38  C   UNL     1       3.218   5.372 -14.415  0.00  0.00    +0.543 C 
ATOM     39  O   UNL     1       2.642   4.255 -14.584  0.00  0.00    -0.198 OA
BRANCH  38  40
ATOM     40  O   UNL     1       2.444   6.534 -14.356  0.00  0.00    -0.414 OA
BRANCH  40  41
ATOM     41  C   UNL     1       1.044   6.351 -14.331  0.00  0.00    +0.213 C 
BRANCH  41  42
ATOM     42  C   UNL     1       0.501   7.250 -13.241  0.00  0.00    +0.048 C 
BRANCH  42  43
ATOM     43  C   UNL     1       0.706   6.646 -11.875  0.00  0.00    +0.004 C 
BRANCH  43  44
ATOM     44  C   UNL     1       0.443   5.147 -11.931  0.00  0.00    +0.000 C 
BRANCH  44  46
ATOM     45  C   UNL     1       0.096   5.794  -9.565  0.00  0.00    +0.000 C 
ATOM     46  C   UNL     1      -0.001   4.675 -10.575  0.00  0.00    +0.000 C 
ENDBRANCH  44  46
ENDBRANCH  43  44
ENDBRANCH  42  43
ENDBRANCH  41  42
ENDBRANCH  40  41
ENDBRANCH  38  40
ENDBRANCH  35  38
ENDBRANCH  29  36
ENDBRANCH  28  32
ENDBRANCH  27  28
ENDBRANCH   1  27
TORSDOF 18
ENDMDL
