MODEL 1
REMARK VINA RESULT:      -8.1      0.000      0.000
REMARK  Name = 
REMARK  8 active torsions:
REMARK  status: ('A' for Active; 'I' for Inactive)
REMARK    1  A    between atoms: C_2  and  C_4
REMARK    2  A    between atoms: C_4  and  O_5
REMARK    3  A    between atoms: O_5  and  C_6
REMARK    4  A    between atoms: C_6  and  C_7
REMARK    5  A    between atoms: C_7  and  N_8
REMARK    6  A    between atoms: N_11  and  C_12
REMARK    7  A    between atoms: C_12  and  C_13
REMARK    8  A    between atoms: C_12  and  C_19
REMARK                            x       y       z     vdW  Elec       q    Type
REMARK                         _______ _______ _______ _____ _____    ______ ____
ROOT
ATOM      1  C   UNL     1       1.992   5.495  -7.451  0.00  0.00    +0.103 C 
ENDROOT
BRANCH   1   2
ATOM      2  C   UNL     1       0.585   6.143  -6.972  0.00  0.00    -0.004 A 
ATOM      3  C   UNL     1       0.666   6.839  -5.770  0.00  0.00    -0.002 A 
ATOM      4  C   UNL     1      -0.414   7.225  -5.034  0.00  0.00    +0.011 A 
ATOM      5  C   UNL     1      -1.614   6.595  -5.315  0.00  0.00    +0.058 A 
ATOM      6 CL   UNL     1      -2.820   6.709  -4.040  0.00  0.00    -0.082 Cl
ATOM      7  C   UNL     1      -1.653   5.644  -6.312  0.00  0.00    +0.011 A 
ATOM      8  C   UNL     1      -0.491   5.246  -6.964  0.00  0.00    -0.002 A 
ENDBRANCH   1   2
BRANCH   1   9
ATOM      9  C   UNL     1       2.717   5.933  -6.078  0.00  0.00    -0.004 A 
ATOM     10  C   UNL     1       3.228   4.789  -5.462  0.00  0.00    -0.003 A 
ATOM     11  C   UNL     1       3.603   4.997  -4.138  0.00  0.00    -0.000 A 
ATOM     12  C   UNL     1       4.230   6.212  -3.889  0.00  0.00    -0.000 A 
ATOM     13  C   UNL     1       4.293   7.173  -4.891  0.00  0.00    -0.000 A 
ATOM     14  C   UNL     1       3.456   7.022  -5.973  0.00  0.00    -0.003 A 
ENDBRANCH   1   9
BRANCH   1  18
ATOM     15  N   UNL     1       3.032   5.135 -10.600  0.00  0.00    -0.268 NA
ATOM     16  C   UNL     1       1.695   5.340 -10.113  0.00  0.00    +0.090 C 
ATOM     17  C   UNL     1       1.493   6.649  -9.398  0.00  0.00    +0.090 C 
ATOM     18  N   UNL     1       2.395   6.798  -8.249  0.00  0.00    -0.264 NA
ATOM     19  C   UNL     1       3.677   6.575  -8.846  0.00  0.00    +0.090 C 
ATOM     20  C   UNL     1       3.896   5.222  -9.424  0.00  0.00    +0.090 C 
BRANCH  15  21
ATOM     21  C   UNL     1       3.478   6.159 -11.514  0.00  0.00    +0.105 C 
BRANCH  21  22
ATOM     22  C   UNL     1       3.726   5.480 -12.855  0.00  0.00    +0.160 C 
BRANCH  22  23
ATOM     23  O   UNL     1       5.058   5.037 -12.815  0.00  0.00    -0.341 OA
BRANCH  23  24
ATOM     24  C   UNL     1       5.921   6.095 -12.495  0.00  0.00    +0.257 C 
BRANCH  24  26
ATOM     25  O   UNL     1       7.224   5.489 -10.875  0.00  0.00    -0.243 OA
ATOM     26  C   UNL     1       7.112   5.444 -11.865  0.00  0.00    +0.394 C 
ATOM     27  O   UNL     1       7.808   4.523 -12.658  0.00  0.00    -0.243 OA
ENDBRANCH  24  26
ENDBRANCH  23  24
ENDBRANCH  22  23
ENDBRANCH  21  22
ENDBRANCH  15  21
ENDBRANCH   1  18
TORSDOF 8
ENDMDL
MODEL 2
REMARK VINA RESULT:      -8.1      5.149      8.233
REMARK  Name = 
REMARK  8 active torsions:
REMARK  status: ('A' for Active; 'I' for Inactive)
REMARK    1  A    between atoms: C_2  and  C_4
REMARK    2  A    between atoms: C_4  and  O_5
REMARK    3  A    between atoms: O_5  and  C_6
REMARK    4  A    between atoms: C_6  and  C_7
REMARK    5  A    between atoms: C_7  and  N_8
REMARK    6  A    between atoms: N_11  and  C_12
REMARK    7  A    between atoms: C_12  and  C_13
REMARK    8  A    between atoms: C_12  and  C_19
REMARK                            x       y       z     vdW  Elec       q    Type
REMARK                         _______ _______ _______ _____ _____    ______ ____
ROOT
ATOM      1  C   UNL     1       2.586   5.312  -8.018  0.00  0.00    +0.103 C 
ENDROOT
BRANCH   1   2
ATOM      2  C   UNL     1       3.949   6.002  -8.562  0.00  0.00    -0.004 A 
ATOM      3  C   UNL     1       3.828   6.563  -9.830  0.00  0.00    -0.002 A 
ATOM      4  C   UNL     1       4.885   6.945 -10.601  0.00  0.00    +0.011 A 
ATOM      5  C   UNL     1       6.123   6.433 -10.256  0.00  0.00    +0.058 A 
ATOM      6 CL   UNL     1       7.328   6.498 -11.536  0.00  0.00    -0.082 Cl
ATOM      7  C   UNL     1       6.220   5.596  -9.166  0.00  0.00    +0.011 A 
ATOM      8  C   UNL     1       5.084   5.187  -8.476  0.00  0.00    -0.002 A 
ENDBRANCH   1   2
BRANCH   1   9
ATOM      9  C   UNL     1       1.802   5.671  -9.382  0.00  0.00    -0.004 A 
ATOM     10  C   UNL     1       1.144   4.524  -9.831  0.00  0.00    -0.003 A 
ATOM     11  C   UNL     1       0.691   4.627 -11.143  0.00  0.00    -0.000 A 
ATOM     12  C   UNL     1       0.160   5.865 -11.486  0.00  0.00    -0.000 A 
ATOM     13  C   UNL     1       0.260   6.928 -10.595  0.00  0.00    -0.000 A 
ATOM     14  C   UNL     1       1.158   6.810  -9.560  0.00  0.00    -0.003 A 
ENDBRANCH   1   9
BRANCH   1  18
ATOM     15  N   UNL     1       1.677   5.017  -4.822  0.00  0.00    -0.268 NA
ATOM     16  C   UNL     1       2.986   5.266  -5.366  0.00  0.00    +0.090 C 
ATOM     17  C   UNL     1       3.099   6.556  -6.132  0.00  0.00    +0.090 C 
ATOM     18  N   UNL     1       2.150   6.621  -7.252  0.00  0.00    -0.264 NA
ATOM     19  C   UNL     1       0.902   6.361  -6.599  0.00  0.00    +0.090 C 
ATOM     20  C   UNL     1       0.769   5.021  -5.968  0.00  0.00    +0.090 C 
BRANCH  15  21
ATOM     21  C   UNL     1       1.216   6.051  -3.928  0.00  0.00    +0.105 C 
BRANCH  21  22
ATOM     22  C   UNL     1       0.927   5.383  -2.589  0.00  0.00    +0.160 C 
BRANCH  22  23
ATOM     23  O   UNL     1      -0.426   5.009  -2.637  0.00  0.00    -0.341 OA
BRANCH  23  24
ATOM     24  C   UNL     1      -1.237   6.124  -2.893  0.00  0.00    +0.257 C 
BRANCH  24  26
ATOM     25  O   UNL     1      -2.794   4.652  -2.582  0.00  0.00    -0.243 OA
ATOM     26  C   UNL     1      -2.639   5.625  -2.734  0.00  0.00    +0.394 C 
ATOM     27  O   UNL     1      -3.616   6.592  -2.464  0.00  0.00    -0.243 OA
ENDBRANCH  24  26
ENDBRANCH  23  24
ENDBRANCH  22  23
ENDBRANCH  21  22
ENDBRANCH  15  21
ENDBRANCH   1  18
TORSDOF 8
ENDMDL
MODEL 3
REMARK VINA RESULT:      -7.8      5.100      7.555
REMARK  Name = 
REMARK  8 active torsions:
REMARK  status: ('A' for Active; 'I' for Inactive)
REMARK    1  A    between atoms: C_2  and  C_4
REMARK    2  A    between atoms: C_4  and  O_5
REMARK    3  A    between atoms: O_5  and  C_6
REMARK    4  A    between atoms: C_6  and  C_7
REMARK    5  A    between atoms: C_7  and  N_8
REMARK    6  A    between atoms: N_11  and  C_12
REMARK    7  A    between atoms: C_12  and  C_13
REMARK    8  A    between atoms: C_12  and  C_19
REMARK                            x       y       z     vdW  Elec       q    Type
REMARK                         _______ _______ _______ _____ _____    ______ ____
ROOT
ATOM      1  C   UNL     1       2.874   6.347  -7.123  0.00  0.00    +0.103 C 
ENDROOT
BRANCH   1   2
ATOM      2  C   UNL     1       3.891   5.790  -8.258  0.00  0.00    -0.004 A 
ATOM      3  C   UNL     1       5.156   5.474  -7.774  0.00  0.00    -0.002 A 
ATOM      4  C   UNL     1       6.246   5.258  -8.564  0.00  0.00    +0.011 A 
ATOM      5  C   UNL     1       6.169   5.716  -9.867  0.00  0.00    +0.058 A 
ATOM      6 CL   UNL     1       7.721   5.909 -10.671  0.00  0.00    -0.082 Cl
ATOM      7  C   UNL     1       5.014   6.337 -10.290  0.00  0.00    +0.011 A 
ATOM      8  C   UNL     1       3.974   6.593  -9.403  0.00  0.00    -0.002 A 
ENDBRANCH   1   2
BRANCH   1   9
ATOM      9  C   UNL     1       3.987   6.166  -5.969  0.00  0.00    -0.004 A 
ATOM     10  C   UNL     1       4.043   7.342  -5.219  0.00  0.00    -0.003 A 
ATOM     11  C   UNL     1       5.165   7.419  -4.399  0.00  0.00    -0.000 A 
ATOM     12  C   UNL     1       5.522   6.227  -3.779  0.00  0.00    -0.000 A 
ATOM     13  C   UNL     1       4.874   5.048  -4.127  0.00  0.00    -0.000 A 
ATOM     14  C   UNL     1       4.142   5.043  -5.292  0.00  0.00    -0.003 A 
ENDBRANCH   1   9
BRANCH   1  18
ATOM     15  N   UNL     1      -0.453   6.168  -6.976  0.00  0.00    -0.268 NA
ATOM     16  C   UNL     1       0.403   6.072  -8.128  0.00  0.00    +0.090 C 
ATOM     17  C   UNL     1       1.348   4.902  -8.099  0.00  0.00    +0.090 C 
ATOM     18  N   UNL     1       2.221   4.924  -6.918  0.00  0.00    -0.264 NA
ATOM     19  C   UNL     1       1.272   5.021  -5.849  0.00  0.00    +0.090 C 
ATOM     20  C   UNL     1       0.446   6.256  -5.826  0.00  0.00    +0.090 C 
BRANCH  15  21
ATOM     21  C   UNL     1      -1.275   5.000  -6.767  0.00  0.00    +0.105 C 
BRANCH  21  22
ATOM     22  C   UNL     1      -2.625   5.492  -6.260  0.00  0.00    +0.160 C 
BRANCH  22  23
ATOM     23  O   UNL     1      -2.614   5.265  -4.874  0.00  0.00    -0.341 OA
BRANCH  23  24
ATOM     24  C   UNL     1      -2.741   6.474  -4.175  0.00  0.00    +0.257 C 
BRANCH  24  26
ATOM     25  O   UNL     1      -3.788   6.634  -2.286  0.00  0.00    -0.243 OA
ATOM     26  C   UNL     1      -3.130   6.076  -2.786  0.00  0.00    +0.394 C 
ATOM     27  O   UNL     1      -2.812   4.767  -2.403  0.00  0.00    -0.243 OA
ENDBRANCH  24  26
ENDBRANCH  23  24
ENDBRANCH  22  23
ENDBRANCH  21  22
ENDBRANCH  15  21
ENDBRANCH   1  18
TORSDOF 8
ENDMDL
MODEL 4
REMARK VINA RESULT:      -7.4      5.171      7.692
REMARK  Name = 
REMARK  8 active torsions:
REMARK  status: ('A' for Active; 'I' for Inactive)
REMARK    1  A    between atoms: C_2  and  C_4
REMARK    2  A    between atoms: C_4  and  O_5
REMARK    3  A    between atoms: O_5  and  C_6
REMARK    4  A    between atoms: C_6  and  C_7
REMARK    5  A    between atoms: C_7  and  N_8
REMARK    6  A    between atoms: N_11  and  C_12
REMARK    7  A    between atoms: C_12  and  C_13
REMARK    8  A    between atoms: C_12  and  C_19
REMARK                            x       y       z     vdW  Elec       q    Type
REMARK                         _______ _______ _______ _____ _____    ______ ____
ROOT
ATOM      1  C   UNL     1       2.269   6.560  -6.255  0.00  0.00    +0.103 C 
ENDROOT
BRANCH   1   2
ATOM      2  C   UNL     1       3.001   6.039  -7.606  0.00  0.00    -0.004 A 
ATOM      3  C   UNL     1       4.241   5.448  -7.381  0.00  0.00    -0.002 A 
ATOM      4  C   UNL     1       5.154   5.191  -8.360  0.00  0.00    +0.011 A 
ATOM      5  C   UNL     1       4.985   5.861  -9.559  0.00  0.00    +0.058 A 
ATOM      6 CL   UNL     1       6.423   5.930 -10.570  0.00  0.00    -0.082 Cl
ATOM      7  C   UNL     1       3.918   6.721  -9.700  0.00  0.00    +0.011 A 
ATOM      8  C   UNL     1       3.074   6.994  -8.629  0.00  0.00    -0.002 A 
ENDBRANCH   1   2
BRANCH   1   9
ATOM      9  C   UNL     1       3.614   6.356  -5.389  0.00  0.00    -0.004 A 
ATOM     10  C   UNL     1       3.922   7.562  -4.756  0.00  0.00    -0.003 A 
ATOM     11  C   UNL     1       5.211   7.596  -4.232  0.00  0.00    -0.000 A 
ATOM     12  C   UNL     1       5.634   6.414  -3.635  0.00  0.00    -0.000 A 
ATOM     13  C   UNL     1       4.850   5.271  -3.738  0.00  0.00    -0.000 A 
ATOM     14  C   UNL     1       3.860   5.261  -4.692  0.00  0.00    -0.003 A 
ENDBRANCH   1   9
BRANCH   1  18
ATOM     15  N   UNL     1      -0.939   6.359  -5.363  0.00  0.00    -0.268 NA
ATOM     16  C   UNL     1      -0.366   6.297  -6.681  0.00  0.00    +0.090 C 
ATOM     17  C   UNL     1       0.561   5.132  -6.898  0.00  0.00    +0.090 C 
ATOM     18  N   UNL     1       1.679   5.129  -5.945  0.00  0.00    -0.264 NA
ATOM     19  C   UNL     1       0.997   5.192  -4.687  0.00  0.00    +0.090 C 
ATOM     20  C   UNL     1       0.197   6.422  -4.445  0.00  0.00    +0.090 C 
BRANCH  15  21
ATOM     21  C   UNL     1      -1.692   5.181  -5.004  0.00  0.00    +0.105 C 
BRANCH  21  22
ATOM     22  C   UNL     1      -2.769   5.625  -4.022  0.00  0.00    +0.160 C 
BRANCH  22  23
ATOM     23  O   UNL     1      -2.488   4.951  -2.823  0.00  0.00    -0.341 OA
BRANCH  23  24
ATOM     24  C   UNL     1      -2.417   5.855  -1.753  0.00  0.00    +0.257 C 
BRANCH  24  26
ATOM     25  O   UNL     1      -0.495   4.891  -1.498  0.00  0.00    -0.243 OA
ATOM     26  C   UNL     1      -1.100   5.577  -1.100  0.00  0.00    +0.394 C 
ATOM     27  O   UNL     1      -0.649   6.531  -0.179  0.00  0.00    -0.243 OA
ENDBRANCH  24  26
ENDBRANCH  23  24
ENDBRANCH  22  23
ENDBRANCH  21  22
ENDBRANCH  15  21
ENDBRANCH   1  18
TORSDOF 8
ENDMDL
MODEL 5
REMARK VINA RESULT:      -7.4      4.727      7.787
REMARK  Name = 
REMARK  8 active torsions:
REMARK  status: ('A' for Active; 'I' for Inactive)
REMARK    1  A    between atoms: C_2  and  C_4
REMARK    2  A    between atoms: C_4  and  O_5
REMARK    3  A    between atoms: O_5  and  C_6
REMARK    4  A    between atoms: C_6  and  C_7
REMARK    5  A    between atoms: C_7  and  N_8
REMARK    6  A    between atoms: N_11  and  C_12
REMARK    7  A    between atoms: C_12  and  C_13
REMARK    8  A    between atoms: C_12  and  C_19
REMARK                            x       y       z     vdW  Elec       q    Type
REMARK                         _______ _______ _______ _____ _____    ______ ____
ROOT
ATOM      1  C   UNL     1       2.778   5.324  -8.046  0.00  0.00    +0.103 C 
ENDROOT
BRANCH   1   2
ATOM      2  C   UNL     1       4.098   6.044  -8.656  0.00  0.00    -0.004 A 
ATOM      3  C   UNL     1       3.882   6.669  -9.880  0.00  0.00    -0.002 A 
ATOM      4  C   UNL     1       4.879   7.092 -10.709  0.00  0.00    +0.011 A 
ATOM      5  C   UNL     1       6.138   6.564 -10.486  0.00  0.00    +0.058 A 
ATOM      6 CL   UNL     1       7.242   6.696 -11.849  0.00  0.00    -0.082 Cl
ATOM      7  C   UNL     1       6.315   5.671  -9.452  0.00  0.00    +0.011 A 
ATOM      8  C   UNL     1       5.234   5.225  -8.699  0.00  0.00    -0.002 A 
ENDBRANCH   1   2
BRANCH   1   9
ATOM      9  C   UNL     1       1.917   5.679  -9.364  0.00  0.00    -0.004 A 
ATOM     10  C   UNL     1       1.292   4.513  -9.812  0.00  0.00    -0.003 A 
ATOM     11  C   UNL     1       0.775   4.626 -11.099  0.00  0.00    -0.000 A 
ATOM     12  C   UNL     1       0.172   5.846 -11.386  0.00  0.00    -0.000 A 
ATOM     13  C   UNL     1       0.265   6.891 -10.474  0.00  0.00    -0.000 A 
ATOM     14  C   UNL     1       1.214   6.791  -9.484  0.00  0.00    -0.003 A 
ENDBRANCH   1   9
BRANCH   1  18
ATOM     15  N   UNL     1       2.122   5.004  -4.791  0.00  0.00    -0.268 NA
ATOM     16  C   UNL     1       3.377   5.294  -5.432  0.00  0.00    +0.090 C 
ATOM     17  C   UNL     1       3.392   6.586  -6.202  0.00  0.00    +0.090 C 
ATOM     18  N   UNL     1       2.360   6.621  -7.247  0.00  0.00    -0.264 NA
ATOM     19  C   UNL     1       1.174   6.321  -6.503  0.00  0.00    +0.090 C 
ATOM     20  C   UNL     1       1.130   4.979  -5.866  0.00  0.00    +0.090 C 
BRANCH  15  21
ATOM     21  C   UNL     1       1.697   6.024  -3.864  0.00  0.00    +0.105 C 
BRANCH  21  22
ATOM     22  C   UNL     1       0.757   5.355  -2.868  0.00  0.00    +0.160 C 
BRANCH  22  23
ATOM     23  O   UNL     1       1.440   5.361  -1.641  0.00  0.00    -0.341 OA
BRANCH  23  24
ATOM     24  C   UNL     1       2.411   6.373  -1.621  0.00  0.00    +0.257 C 
BRANCH  24  26
ATOM     25  O   UNL     1       3.753   6.012   0.039  0.00  0.00    -0.243 OA
ATOM     26  C   UNL     1       3.582   5.770  -0.913  0.00  0.00    +0.394 C 
ATOM     27  O   UNL     1       4.162   4.646  -1.516  0.00  0.00    -0.243 OA
ENDBRANCH  24  26
ENDBRANCH  23  24
ENDBRANCH  22  23
ENDBRANCH  21  22
ENDBRANCH  15  21
ENDBRANCH   1  18
TORSDOF 8
ENDMDL
MODEL 6
REMARK VINA RESULT:      -7.4      2.137      2.977
REMARK  Name = 
REMARK  8 active torsions:
REMARK  status: ('A' for Active; 'I' for Inactive)
REMARK    1  A    between atoms: C_2  and  C_4
REMARK    2  A    between atoms: C_4  and  O_5
REMARK    3  A    between atoms: O_5  and  C_6
REMARK    4  A    between atoms: C_6  and  C_7
REMARK    5  A    between atoms: C_7  and  N_8
REMARK    6  A    between atoms: N_11  and  C_12
REMARK    7  A    between atoms: C_12  and  C_13
REMARK    8  A    between atoms: C_12  and  C_19
REMARK                            x       y       z     vdW  Elec       q    Type
REMARK                         _______ _______ _______ _____ _____    ______ ____
ROOT
ATOM      1  C   UNL     1       1.889   5.525  -7.394  0.00  0.00    +0.103 C 
ENDROOT
BRANCH   1   2
ATOM      2  C   UNL     1       0.482   6.154  -6.888  0.00  0.00    -0.004 A 
ATOM      3  C   UNL     1       0.572   6.831  -5.675  0.00  0.00    -0.002 A 
ATOM      4  C   UNL     1      -0.503   7.197  -4.922  0.00  0.00    +0.011 A 
ATOM      5  C   UNL     1      -1.701   6.563  -5.200  0.00  0.00    +0.058 A 
ATOM      6 CL   UNL     1      -2.894   6.647  -3.910  0.00  0.00    -0.082 Cl
ATOM      7  C   UNL     1      -1.745   5.629  -6.212  0.00  0.00    +0.011 A 
ATOM      8  C   UNL     1      -0.588   5.249  -6.884  0.00  0.00    -0.002 A 
ENDBRANCH   1   2
BRANCH   1   9
ATOM      9  C   UNL     1       2.630   5.962  -6.030  0.00  0.00    -0.004 A 
ATOM     10  C   UNL     1       3.102   4.812  -5.394  0.00  0.00    -0.003 A 
ATOM     11  C   UNL     1       3.486   5.031  -4.074  0.00  0.00    -0.000 A 
ATOM     12  C   UNL     1       4.156   6.229  -3.847  0.00  0.00    -0.000 A 
ATOM     13  C   UNL     1       4.250   7.168  -4.867  0.00  0.00    -0.000 A 
ATOM     14  C   UNL     1       3.408   7.026  -5.945  0.00  0.00    -0.003 A 
ENDBRANCH   1   9
BRANCH   1  18
ATOM     15  N   UNL     1       2.814   5.201 -10.582  0.00  0.00    -0.268 NA
ATOM     16  C   UNL     1       1.495   5.402 -10.044  0.00  0.00    +0.090 C 
ATOM     17  C   UNL     1       1.321   6.702  -9.307  0.00  0.00    +0.090 C 
ATOM     18  N   UNL     1       2.264   6.836  -8.189  0.00  0.00    -0.264 NA
ATOM     19  C   UNL     1       3.524   6.619  -8.836  0.00  0.00    +0.090 C 
ATOM     20  C   UNL     1       3.719   5.273  -9.437  0.00  0.00    +0.090 C 
BRANCH  15  21
ATOM     21  C   UNL     1       3.228   6.235 -11.499  0.00  0.00    +0.105 C 
BRANCH  21  22
ATOM     22  C   UNL     1       2.536   5.955 -12.827  0.00  0.00    +0.160 C 
BRANCH  22  23
ATOM     23  O   UNL     1       1.703   7.061 -13.061  0.00  0.00    -0.341 OA
BRANCH  23  24
ATOM     24  C   UNL     1       0.509   6.659 -13.677  0.00  0.00    +0.257 C 
BRANCH  24  26
ATOM     25  O   UNL     1       0.390   6.200 -15.790  0.00  0.00    -0.243 OA
ATOM     26  C   UNL     1       0.741   6.870 -15.140  0.00  0.00    +0.394 C 
ATOM     27  O   UNL     1       1.131   8.159 -15.528  0.00  0.00    -0.243 OA
ENDBRANCH  24  26
ENDBRANCH  23  24
ENDBRANCH  22  23
ENDBRANCH  21  22
ENDBRANCH  15  21
ENDBRANCH   1  18
TORSDOF 8
ENDMDL
MODEL 7
REMARK VINA RESULT:      -7.3      1.729      3.659
REMARK  Name = 
REMARK  8 active torsions:
REMARK  status: ('A' for Active; 'I' for Inactive)
REMARK    1  A    between atoms: C_2  and  C_4
REMARK    2  A    between atoms: C_4  and  O_5
REMARK    3  A    between atoms: O_5  and  C_6
REMARK    4  A    between atoms: C_6  and  C_7
REMARK    5  A    between atoms: C_7  and  N_8
REMARK    6  A    between atoms: N_11  and  C_12
REMARK    7  A    between atoms: C_12  and  C_13
REMARK    8  A    between atoms: C_12  and  C_19
REMARK                            x       y       z     vdW  Elec       q    Type
REMARK                         _______ _______ _______ _____ _____    ______ ____
ROOT
ATOM      1  C   UNL     1       2.066   6.398  -8.050  0.00  0.00    +0.103 C 
ENDROOT
BRANCH   1   2
ATOM      2  C   UNL     1       3.116   5.904  -6.916  0.00  0.00    -0.004 A 
ATOM      3  C   UNL     1       2.652   4.842  -6.145  0.00  0.00    -0.002 A 
ATOM      4  C   UNL     1       3.222   4.442  -4.974  0.00  0.00    +0.011 A 
ATOM      5  C   UNL     1       4.071   5.343  -4.356  0.00  0.00    +0.058 A 
ATOM      6 CL   UNL     1       4.351   5.035  -2.647  0.00  0.00    -0.082 Cl
ATOM      7  C   UNL     1       4.302   6.563  -4.954  0.00  0.00    +0.011 A 
ATOM      8  C   UNL     1       3.621   6.932  -6.109  0.00  0.00    -0.002 A 
ENDBRANCH   1   2
BRANCH   1   9
ATOM      9  C   UNL     1       0.805   6.005  -7.123  0.00  0.00    -0.004 A 
ATOM     10  C   UNL     1       0.491   7.099  -6.314  0.00  0.00    -0.003 A 
ATOM     11  C   UNL     1      -0.372   6.781  -5.270  0.00  0.00    -0.000 A 
ATOM     12  C   UNL     1      -1.390   5.893  -5.598  0.00  0.00    -0.000 A 
ATOM     13  C   UNL     1      -1.389   5.274  -6.842  0.00  0.00    -0.000 A 
ATOM     14  C   UNL     1      -0.222   5.305  -7.569  0.00  0.00    -0.003 A 
ENDBRANCH   1   9
BRANCH   1  18
ATOM     15  N   UNL     1       2.885   6.422 -11.283  0.00  0.00    -0.268 NA
ATOM     16  C   UNL     1       3.748   6.313 -10.137  0.00  0.00    +0.090 C 
ATOM     17  C   UNL     1       3.509   5.086  -9.300  0.00  0.00    +0.090 C 
ATOM     18  N   UNL     1       2.129   5.013  -8.805  0.00  0.00    -0.264 NA
ATOM     19  C   UNL     1       1.372   5.132 -10.015  0.00  0.00    +0.090 C 
ATOM     20  C   UNL     1       1.524   6.415 -10.751  0.00  0.00    +0.090 C 
BRANCH  15  21
ATOM     21  C   UNL     1       2.979   5.301 -12.187  0.00  0.00    +0.105 C 
BRANCH  21  22
ATOM     22  C   UNL     1       3.797   5.765 -13.386  0.00  0.00    +0.160 C 
BRANCH  22  23
ATOM     23  O   UNL     1       5.100   5.292 -13.160  0.00  0.00    -0.341 OA
BRANCH  23  24
ATOM     24  C   UNL     1       6.046   6.176 -13.700  0.00  0.00    +0.257 C 
BRANCH  24  26
ATOM     25  O   UNL     1       7.646   6.594 -12.301  0.00  0.00    -0.243 OA
ATOM     26  C   UNL     1       7.304   5.906 -12.936  0.00  0.00    +0.394 C 
ATOM     27  O   UNL     1       7.735   4.573 -12.900  0.00  0.00    -0.243 OA
ENDBRANCH  24  26
ENDBRANCH  23  24
ENDBRANCH  22  23
ENDBRANCH  21  22
ENDBRANCH  15  21
ENDBRANCH   1  18
TORSDOF 8
ENDMDL
MODEL 8
REMARK VINA RESULT:      -7.3      1.794      3.794
REMARK  Name = 
REMARK  8 active torsions:
REMARK  status: ('A' for Active; 'I' for Inactive)
REMARK    1  A    between atoms: C_2  and  C_4
REMARK    2  A    between atoms: C_4  and  O_5
REMARK    3  A    between atoms: O_5  and  C_6
REMARK    4  A    between atoms: C_6  and  C_7
REMARK    5  A    between atoms: C_7  and  N_8
REMARK    6  A    between atoms: N_11  and  C_12
REMARK    7  A    between atoms: C_12  and  C_13
REMARK    8  A    between atoms: C_12  and  C_19
REMARK                            x       y       z     vdW  Elec       q    Type
REMARK                         _______ _______ _______ _____ _____    ______ ____
ROOT
ATOM      1  C   UNL     1       1.483   6.639  -6.454  0.00  0.00    +0.103 C 
ENDROOT
BRANCH   1   2
ATOM      2  C   UNL     1       2.176   6.123  -5.082  0.00  0.00    -0.004 A 
ATOM      3  C   UNL     1       1.296   5.488  -4.211  0.00  0.00    -0.002 A 
ATOM      4  C   UNL     1       1.573   5.221  -2.903  0.00  0.00    +0.011 A 
ATOM      5  C   UNL     1       2.623   5.922  -2.335  0.00  0.00    +0.058 A 
ATOM      6 CL   UNL     1       2.611   5.964  -0.577  0.00  0.00    -0.082 Cl
ATOM      7  C   UNL     1       3.326   6.818  -3.111  0.00  0.00    +0.011 A 
ATOM      8  C   UNL     1       2.933   7.095  -4.415  0.00  0.00    -0.002 A 
ENDBRANCH   1   2
BRANCH   1   9
ATOM      9  C   UNL     1       0.005   6.357  -5.871  0.00  0.00    -0.004 A 
ATOM     10  C   UNL     1      -0.517   7.558  -5.388  0.00  0.00    -0.003 A 
ATOM     11  C   UNL     1      -1.647   7.387  -4.593  0.00  0.00    -0.000 A 
ATOM     12  C   UNL     1      -2.537   6.415  -5.037  0.00  0.00    -0.000 A 
ATOM     13  C   UNL     1      -2.184   5.594  -6.102  0.00  0.00    -0.000 A 
ATOM     14  C   UNL     1      -0.857   5.550  -6.461  0.00  0.00    -0.003 A 
ENDBRANCH   1   9
BRANCH   1  18
ATOM     15  N   UNL     1       3.163   6.484  -9.332  0.00  0.00    -0.268 NA
ATOM     16  C   UNL     1       3.663   6.353  -7.989  0.00  0.00    +0.090 C 
ATOM     17  C   UNL     1       3.104   5.178  -7.234  0.00  0.00    +0.090 C 
ATOM     18  N   UNL     1       1.639   5.226  -7.141  0.00  0.00    -0.264 NA
ATOM     19  C   UNL     1       1.258   5.356  -8.516  0.00  0.00    +0.090 C 
ATOM     20  C   UNL     1       1.711   6.596  -9.199  0.00  0.00    +0.090 C 
BRANCH  15  21
ATOM     21  C   UNL     1       3.411   5.327 -10.157  0.00  0.00    +0.105 C 
BRANCH  21  22
ATOM     22  C   UNL     1       4.250   5.796 -11.339  0.00  0.00    +0.160 C 
BRANCH  22  23
ATOM     23  O   UNL     1       5.549   5.325 -11.092  0.00  0.00    -0.341 OA
BRANCH  23  24
ATOM     24  C   UNL     1       6.503   6.179 -11.665  0.00  0.00    +0.257 C 
BRANCH  24  26
ATOM     25  O   UNL     1       7.402   4.616 -12.863  0.00  0.00    -0.243 OA
ATOM     26  C   UNL     1       7.595   5.274 -12.139  0.00  0.00    +0.394 C 
ATOM     27  O   UNL     1       8.901   5.637 -11.784  0.00  0.00    -0.243 OA
ENDBRANCH  24  26
ENDBRANCH  23  24
ENDBRANCH  22  23
ENDBRANCH  21  22
ENDBRANCH  15  21
ENDBRANCH   1  18
TORSDOF 8
ENDMDL
MODEL 9
REMARK VINA RESULT:      -7.0      1.672      2.675
REMARK  Name = 
REMARK  8 active torsions:
REMARK  status: ('A' for Active; 'I' for Inactive)
REMARK    1  A    between atoms: C_2  and  C_4
REMARK    2  A    between atoms: C_4  and  O_5
REMARK    3  A    between atoms: O_5  and  C_6
REMARK    4  A    between atoms: C_6  and  C_7
REMARK    5  A    between atoms: C_7  and  N_8
REMARK    6  A    between atoms: N_11  and  C_12
REMARK    7  A    between atoms: C_12  and  C_13
REMARK    8  A    between atoms: C_12  and  C_19
REMARK                            x       y       z     vdW  Elec       q    Type
REMARK                         _______ _______ _______ _____ _____    ______ ____
ROOT
ATOM      1  C   UNL     1       2.084   5.460  -4.858  0.00  0.00    +0.103 C 
ENDROOT
BRANCH   1   2
ATOM      2  C   UNL     1       0.844   6.166  -4.086  0.00  0.00    -0.004 A 
ATOM      3  C   UNL     1       0.167   5.316  -3.216  0.00  0.00    -0.002 A 
ATOM      4  C   UNL     1      -1.054   5.590  -2.676  0.00  0.00    +0.011 A 
ATOM      5  C   UNL     1      -1.798   6.581  -3.292  0.00  0.00    +0.058 A 
ATOM      6 CL   UNL     1      -3.519   6.539  -2.931  0.00  0.00    -0.082 Cl
ATOM      7  C   UNL     1      -1.268   7.234  -4.383  0.00  0.00    +0.011 A 
ATOM      8  C   UNL     1      -0.049   6.844  -4.926  0.00  0.00    -0.002 A 
ENDBRANCH   1   2
BRANCH   1   9
ATOM      9  C   UNL     1       3.130   5.963  -3.738  0.00  0.00    -0.004 A 
ATOM     10  C   UNL     1       2.810   7.277  -3.389  0.00  0.00    -0.003 A 
ATOM     11  C   UNL     1       3.813   7.915  -2.666  0.00  0.00    -0.000 A 
ATOM     12  C   UNL     1       4.450   7.121  -1.719  0.00  0.00    -0.000 A 
ATOM     13  C   UNL     1       4.179   5.759  -1.667  0.00  0.00    -0.000 A 
ATOM     14  C   UNL     1       3.550   5.192  -2.751  0.00  0.00    -0.003 A 
ENDBRANCH   1   9
BRANCH   1  18
ATOM     15  N   UNL     1       3.590   4.950  -7.791  0.00  0.00    -0.268 NA
ATOM     16  C   UNL     1       2.187   4.886  -7.476  0.00  0.00    +0.090 C 
ATOM     17  C   UNL     1       1.600   6.189  -7.004  0.00  0.00    +0.090 C 
ATOM     18  N   UNL     1       2.284   6.704  -5.811  0.00  0.00    -0.264 NA
ATOM     19  C   UNL     1       3.651   6.723  -6.236  0.00  0.00    +0.090 C 
ATOM     20  C   UNL     1       4.246   5.401  -6.564  0.00  0.00    +0.090 C 
BRANCH  15  21
ATOM     21  C   UNL     1       3.910   5.922  -8.809  0.00  0.00    +0.105 C 
BRANCH  21  22
ATOM     22  C   UNL     1       5.336   5.637  -9.261  0.00  0.00    +0.160 C 
BRANCH  22  23
ATOM     23  O   UNL     1       5.449   6.209 -10.539  0.00  0.00    -0.341 OA
BRANCH  23  24
ATOM     24  C   UNL     1       6.737   6.009 -11.057  0.00  0.00    +0.257 C 
BRANCH  24  26
ATOM     25  O   UNL     1       5.682   5.449 -12.864  0.00  0.00    -0.243 OA
ATOM     26  C   UNL     1       6.524   5.291 -12.353  0.00  0.00    +0.394 C 
ATOM     27  O   UNL     1       7.658   4.711 -12.936  0.00  0.00    -0.243 OA
ENDBRANCH  24  26
ENDBRANCH  23  24
ENDBRANCH  22  23
ENDBRANCH  21  22
ENDBRANCH  15  21
ENDBRANCH   1  18
TORSDOF 8
ENDMDL
