MODEL 1
REMARK VINA RESULT:      -6.9      0.000      0.000
REMARK  Name = 
REMARK  6 active torsions:
REMARK  status: ('A' for Active; 'I' for Inactive)
REMARK    1  A    between atoms: C_2  and  N_3
REMARK    2  A    between atoms: N_3  and  C_4
REMARK    3  A    between atoms: C_4  and  C_5
REMARK    4  A    between atoms: C_11  and  C_13
REMARK    5  A    between atoms: C_13  and  C_14
REMARK    6  A    between atoms: C_13  and  C_16
REMARK                            x       y       z     vdW  Elec       q    Type
REMARK                         _______ _______ _______ _____ _____    ______ ____
ROOT
ATOM      1  N   UNL     1       2.487   5.110  -6.500  0.00  0.00    -0.275 N 
ATOM      2  C   UNL     1       1.305   5.913  -6.499  0.00  0.00    +0.232 C 
ATOM      3  O   UNL     1       1.371   7.130  -6.449  0.00  0.00    -0.274 OA
ENDROOT
BRANCH   1   5
ATOM      4  C   UNL     1       2.794   3.875  -8.557  0.00  0.00    +0.023 C 
ATOM      5  C   UNL     1       2.405   3.777  -7.088  0.00  0.00    +0.094 C 
ENDBRANCH   1   5
BRANCH   2   6
ATOM      6  C   UNL     1       0.022   5.131  -5.933  0.00  0.00    +0.132 C 
BRANCH   6   7
ATOM      7  C   UNL     1      -0.451   6.334  -4.969  0.00  0.00    -0.011 A 
ATOM      8  C   UNL     1      -1.681   6.875  -5.191  0.00  0.00    -0.004 A 
ATOM      9  C   UNL     1      -2.199   7.703  -4.205  0.00  0.00    -0.000 A 
ATOM     10  C   UNL     1      -2.013   7.302  -2.909  0.00  0.00    -0.000 A 
ATOM     11  C   UNL     1      -1.049   6.348  -2.632  0.00  0.00    -0.000 A 
ATOM     12  C   UNL     1      -0.241   5.894  -3.664  0.00  0.00    -0.004 A 
ENDBRANCH   6   7
BRANCH   6  13
ATOM     13  C   UNL     1      -0.977   5.548  -7.158  0.00  0.00    +0.195 C 
ATOM     14  O   UNL     1      -0.426   5.344  -8.355  0.00  0.00    -0.220 OA
ENDBRANCH   6  13
ENDBRANCH   2   6
BRANCH   1  15
ATOM     15  C   UNL     1       3.761   5.782  -6.629  0.00  0.00    +0.120 C 
BRANCH  15  16
ATOM     16  C   UNL     1       4.312   6.058  -5.268  0.00  0.00    +0.001 A 
ATOM     17  C   UNL     1       4.381   4.978  -4.402  0.00  0.00    +0.018 A 
ATOM     18  C   UNL     1       4.290   5.225  -3.044  0.00  0.00    +0.099 A 
ATOM     19  N   UNL     1       4.166   6.476  -2.557  0.00  0.00    -0.242 NA
ATOM     20  C   UNL     1       3.943   7.489  -3.426  0.00  0.00    +0.099 A 
ATOM     21  C   UNL     1       4.389   7.329  -4.734  0.00  0.00    +0.018 A 
ENDBRANCH  15  16
ENDBRANCH   1  15
TORSDOF 6
ENDMDL
MODEL 2
REMARK VINA RESULT:      -6.7      2.285      5.308
REMARK  Name = 
REMARK  6 active torsions:
REMARK  status: ('A' for Active; 'I' for Inactive)
REMARK    1  A    between atoms: C_2  and  N_3
REMARK    2  A    between atoms: N_3  and  C_4
REMARK    3  A    between atoms: C_4  and  C_5
REMARK    4  A    between atoms: C_11  and  C_13
REMARK    5  A    between atoms: C_13  and  C_14
REMARK    6  A    between atoms: C_13  and  C_16
REMARK                            x       y       z     vdW  Elec       q    Type
REMARK                         _______ _______ _______ _____ _____    ______ ____
ROOT
ATOM      1  N   UNL     1       1.327   5.908  -8.048  0.00  0.00    -0.275 N 
ATOM      2  C   UNL     1       2.538   5.163  -7.904  0.00  0.00    +0.232 C 
ATOM      3  O   UNL     1       2.522   4.001  -7.535  0.00  0.00    -0.274 OA
ENDROOT
BRANCH   1   5
ATOM      4  C   UNL     1       0.630   6.619 -10.252  0.00  0.00    +0.023 C 
ATOM      5  C   UNL     1       1.329   7.040  -8.968  0.00  0.00    +0.094 C 
ENDBRANCH   1   5
BRANCH   2   6
ATOM      6  C   UNL     1       3.814   6.099  -7.635  0.00  0.00    +0.132 C 
BRANCH   6   7
ATOM      7  C   UNL     1       3.778   5.913  -6.033  0.00  0.00    -0.011 A 
ATOM      8  C   UNL     1       4.751   5.151  -5.463  0.00  0.00    -0.004 A 
ATOM      9  C   UNL     1       4.886   5.219  -4.083  0.00  0.00    -0.000 A 
ATOM     10  C   UNL     1       4.775   6.462  -3.518  0.00  0.00    -0.000 A 
ATOM     11  C   UNL     1       4.192   7.483  -4.248  0.00  0.00    -0.000 A 
ATOM     12  C   UNL     1       3.657   7.193  -5.495  0.00  0.00    -0.004 A 
ENDBRANCH   6   7
BRANCH   6  13
ATOM     13  C   UNL     1       4.929   4.927  -7.874  0.00  0.00    +0.195 C 
ATOM     14  O   UNL     1       5.826   5.260  -8.801  0.00  0.00    -0.220 OA
ENDBRANCH   6  13
ENDBRANCH   2   6
BRANCH   1  15
ATOM     15  C   UNL     1       0.076   5.193  -7.927  0.00  0.00    +0.120 C 
BRANCH  15  16
ATOM     16  C   UNL     1      -0.570   5.549  -6.627  0.00  0.00    +0.001 A 
ATOM     17  C   UNL     1      -1.955   5.571  -6.613  0.00  0.00    +0.018 A 
ATOM     18  C   UNL     1      -2.585   6.422  -5.723  0.00  0.00    +0.099 A 
ATOM     19  N   UNL     1      -1.888   7.195  -4.865  0.00  0.00    -0.242 NA
ATOM     20  C   UNL     1      -0.544   7.269  -5.009  0.00  0.00    +0.099 A 
ATOM     21  C   UNL     1       0.104   6.193  -5.607  0.00  0.00    +0.018 A 
ENDBRANCH  15  16
ENDBRANCH   1  15
TORSDOF 6
ENDMDL
MODEL 3
REMARK VINA RESULT:      -6.7      2.669      5.525
REMARK  Name = 
REMARK  6 active torsions:
REMARK  status: ('A' for Active; 'I' for Inactive)
REMARK    1  A    between atoms: C_2  and  N_3
REMARK    2  A    between atoms: N_3  and  C_4
REMARK    3  A    between atoms: C_4  and  C_5
REMARK    4  A    between atoms: C_11  and  C_13
REMARK    5  A    between atoms: C_13  and  C_14
REMARK    6  A    between atoms: C_13  and  C_16
REMARK                            x       y       z     vdW  Elec       q    Type
REMARK                         _______ _______ _______ _____ _____    ______ ____
ROOT
ATOM      1  N   UNL     1       1.961   5.767  -6.230  0.00  0.00    -0.275 N 
ATOM      2  C   UNL     1       2.686   6.527  -7.198  0.00  0.00    +0.232 C 
ATOM      3  O   UNL     1       2.596   7.742  -7.240  0.00  0.00    -0.274 OA
ENDROOT
BRANCH   1   5
ATOM      4  C   UNL     1       3.581   4.649  -4.823  0.00  0.00    +0.023 C 
ATOM      5  C   UNL     1       2.485   4.455  -5.862  0.00  0.00    +0.094 C 
ENDBRANCH   1   5
BRANCH   2   6
ATOM      6  C   UNL     1       3.043   5.679  -8.514  0.00  0.00    +0.132 C 
BRANCH   6   7
ATOM      7  C   UNL     1       1.555   5.761  -9.131  0.00  0.00    -0.011 A 
ATOM      8  C   UNL     1       1.279   6.790  -9.979  0.00  0.00    -0.004 A 
ATOM      9  C   UNL     1       0.108   6.707 -10.720  0.00  0.00    -0.000 A 
ATOM     10  C   UNL     1      -0.198   5.479 -11.245  0.00  0.00    -0.000 A 
ATOM     11  C   UNL     1       0.426   4.355 -10.734  0.00  0.00    -0.000 A 
ATOM     12  C   UNL     1       1.276   4.497  -9.647  0.00  0.00    -0.004 A 
ENDBRANCH   6   7
BRANCH   6  13
ATOM     13  C   UNL     1       3.609   6.947  -9.376  0.00  0.00    +0.195 C 
ATOM     14  O   UNL     1       4.753   6.667  -9.999  0.00  0.00    -0.220 OA
ENDBRANCH   6  13
ENDBRANCH   2   6
BRANCH   1  15
ATOM     15  C   UNL     1       1.268   6.488  -5.185  0.00  0.00    +0.120 C 
BRANCH  15  16
ATOM     16  C   UNL     1      -0.145   6.728  -5.607  0.00  0.00    +0.001 A 
ATOM     17  C   UNL     1      -0.859   7.656  -4.867  0.00  0.00    +0.018 A 
ATOM     18  C   UNL     1      -2.231   7.506  -4.782  0.00  0.00    +0.099 A 
ATOM     19  N   UNL     1      -2.877   6.506  -5.417  0.00  0.00    -0.242 NA
ATOM     20  C   UNL     1      -2.142   5.529  -5.998  0.00  0.00    +0.099 A 
ATOM     21  C   UNL     1      -0.849   5.846  -6.404  0.00  0.00    +0.018 A 
ENDBRANCH  15  16
ENDBRANCH   1  15
TORSDOF 6
ENDMDL
MODEL 4
REMARK VINA RESULT:      -6.7      1.936      4.149
REMARK  Name = 
REMARK  6 active torsions:
REMARK  status: ('A' for Active; 'I' for Inactive)
REMARK    1  A    between atoms: C_2  and  N_3
REMARK    2  A    between atoms: N_3  and  C_4
REMARK    3  A    between atoms: C_4  and  C_5
REMARK    4  A    between atoms: C_11  and  C_13
REMARK    5  A    between atoms: C_13  and  C_14
REMARK    6  A    between atoms: C_13  and  C_16
REMARK                            x       y       z     vdW  Elec       q    Type
REMARK                         _______ _______ _______ _____ _____    ______ ____
ROOT
ATOM      1  N   UNL     1       3.104   6.498  -4.827  0.00  0.00    -0.275 N 
ATOM      2  C   UNL     1       2.104   5.590  -4.364  0.00  0.00    +0.232 C 
ATOM      3  O   UNL     1       1.958   4.496  -4.882  0.00  0.00    -0.274 OA
ENDROOT
BRANCH   1   5
ATOM      4  C   UNL     1       5.063   7.773  -4.204  0.00  0.00    +0.023 C 
ATOM      5  C   UNL     1       3.598   7.503  -3.891  0.00  0.00    +0.094 C 
ENDBRANCH   1   5
BRANCH   2   6
ATOM      6  C   UNL     1       0.876   6.332  -3.643  0.00  0.00    +0.132 C 
BRANCH   6   7
ATOM      7  C   UNL     1      -0.009   6.458  -4.986  0.00  0.00    -0.011 A 
ATOM      8  C   UNL     1      -0.288   5.313  -5.668  0.00  0.00    -0.004 A 
ATOM      9  C   UNL     1      -1.267   5.378  -6.649  0.00  0.00    -0.000 A 
ATOM     10  C   UNL     1      -2.385   6.112  -6.350  0.00  0.00    -0.000 A 
ATOM     11  C   UNL     1      -2.335   7.015  -5.302  0.00  0.00    -0.000 A 
ATOM     12  C   UNL     1      -1.129   7.214  -4.646  0.00  0.00    -0.004 A 
ENDBRANCH   6   7
BRANCH   6  13
ATOM     13  C   UNL     1       0.138   4.967  -3.130  0.00  0.00    +0.195 C 
ATOM     14  O   UNL     1      -0.003   4.932  -1.806  0.00  0.00    -0.220 OA
ENDBRANCH   6  13
ENDBRANCH   2   6
BRANCH   1  15
ATOM     15  C   UNL     1       4.060   6.013  -5.798  0.00  0.00    +0.120 C 
BRANCH  15  16
ATOM     16  C   UNL     1       3.473   6.131  -7.167  0.00  0.00    +0.001 A 
ATOM     17  C   UNL     1       2.726   7.271  -7.420  0.00  0.00    +0.018 A 
ATOM     18  C   UNL     1       1.710   7.190  -8.355  0.00  0.00    +0.099 A 
ATOM     19  N   UNL     1       1.457   6.051  -9.031  0.00  0.00    -0.242 NA
ATOM     20  C   UNL     1       2.094   4.919  -8.652  0.00  0.00    +0.099 A 
ATOM     21  C   UNL     1       3.323   5.051  -8.014  0.00  0.00    +0.018 A 
ENDBRANCH  15  16
ENDBRANCH   1  15
TORSDOF 6
ENDMDL
MODEL 5
REMARK VINA RESULT:      -6.7      3.446      6.525
REMARK  Name = 
REMARK  6 active torsions:
REMARK  status: ('A' for Active; 'I' for Inactive)
REMARK    1  A    between atoms: C_2  and  N_3
REMARK    2  A    between atoms: N_3  and  C_4
REMARK    3  A    between atoms: C_4  and  C_5
REMARK    4  A    between atoms: C_11  and  C_13
REMARK    5  A    between atoms: C_13  and  C_14
REMARK    6  A    between atoms: C_13  and  C_16
REMARK                            x       y       z     vdW  Elec       q    Type
REMARK                         _______ _______ _______ _____ _____    ______ ____
ROOT
ATOM      1  N   UNL     1       2.707   5.535  -8.212  0.00  0.00    -0.275 N 
ATOM      2  C   UNL     1       3.453   5.093  -9.347  0.00  0.00    +0.232 C 
ATOM      3  O   UNL     1       4.032   4.019  -9.341  0.00  0.00    -0.274 OA
ENDROOT
BRANCH   1   5
ATOM      4  C   UNL     1       0.395   5.740  -8.890  0.00  0.00    +0.023 C 
ATOM      5  C   UNL     1       1.633   6.498  -8.435  0.00  0.00    +0.094 C 
ENDBRANCH   1   5
BRANCH   2   6
ATOM      6  C   UNL     1       3.973   6.307 -10.261  0.00  0.00    +0.132 C 
BRANCH   6   7
ATOM      7  C   UNL     1       5.404   5.633 -10.573  0.00  0.00    -0.011 A 
ATOM      8  C   UNL     1       5.796   5.557 -11.874  0.00  0.00    -0.004 A 
ATOM      9  C   UNL     1       7.125   5.242 -12.121  0.00  0.00    -0.000 A 
ATOM     10  C   UNL     1       8.056   5.838 -11.312  0.00  0.00    -0.000 A 
ATOM     11  C   UNL     1       7.647   6.397 -10.114  0.00  0.00    -0.000 A 
ATOM     12  C   UNL     1       6.321   6.257  -9.729  0.00  0.00    -0.004 A 
ENDBRANCH   6   7
BRANCH   6  13
ATOM     13  C   UNL     1       3.279   5.779 -11.643  0.00  0.00    +0.195 C 
ATOM     14  O   UNL     1       2.166   6.448 -11.941  0.00  0.00    -0.220 OA
ENDBRANCH   6  13
ENDBRANCH   2   6
BRANCH   1  15
ATOM     15  C   UNL     1       2.502   4.596  -7.131  0.00  0.00    +0.120 C 
BRANCH  15  16
ATOM     16  C   UNL     1       2.963   5.213  -5.850  0.00  0.00    +0.001 A 
ATOM     17  C   UNL     1       1.996   5.408  -4.877  0.00  0.00    +0.018 A 
ATOM     18  C   UNL     1       2.171   6.450  -3.984  0.00  0.00    +0.099 A 
ATOM     19  N   UNL     1       3.259   7.245  -4.025  0.00  0.00    -0.242 NA
ATOM     20  C   UNL     1       4.104   7.131  -5.077  0.00  0.00    +0.099 A 
ATOM     21  C   UNL     1       4.152   5.908  -5.739  0.00  0.00    +0.018 A 
ENDBRANCH  15  16
ENDBRANCH   1  15
TORSDOF 6
ENDMDL
MODEL 6
REMARK VINA RESULT:      -6.6      2.897      5.252
REMARK  Name = 
REMARK  6 active torsions:
REMARK  status: ('A' for Active; 'I' for Inactive)
REMARK    1  A    between atoms: C_2  and  N_3
REMARK    2  A    between atoms: N_3  and  C_4
REMARK    3  A    between atoms: C_4  and  C_5
REMARK    4  A    between atoms: C_11  and  C_13
REMARK    5  A    between atoms: C_13  and  C_14
REMARK    6  A    between atoms: C_13  and  C_16
REMARK                            x       y       z     vdW  Elec       q    Type
REMARK                         _______ _______ _______ _____ _____    ______ ____
ROOT
ATOM      1  N   UNL     1       2.860   5.862  -8.989  0.00  0.00    -0.275 N 
ATOM      2  C   UNL     1       2.241   6.738  -8.046  0.00  0.00    +0.232 C 
ATOM      3  O   UNL     1       2.411   7.944  -8.101  0.00  0.00    -0.274 OA
ENDROOT
BRANCH   1   5
ATOM      4  C   UNL     1       1.004   4.781 -10.100  0.00  0.00    +0.023 C 
ATOM      5  C   UNL     1       2.234   4.566  -9.229  0.00  0.00    +0.094 C 
ENDBRANCH   1   5
BRANCH   2   6
ATOM      6  C   UNL     1       1.904   6.014  -6.653  0.00  0.00    +0.132 C 
BRANCH   6   7
ATOM      7  C   UNL     1       3.360   6.278  -6.011  0.00  0.00    -0.011 A 
ATOM      8  C   UNL     1       3.469   7.264  -5.078  0.00  0.00    -0.004 A 
ATOM      9  C   UNL     1       4.638   7.306  -4.331  0.00  0.00    -0.000 A 
ATOM     10  C   UNL     1       5.135   6.103  -3.904  0.00  0.00    -0.000 A 
ATOM     11  C   UNL     1       4.696   4.940  -4.513  0.00  0.00    -0.000 A 
ATOM     12  C   UNL     1       3.835   5.036  -5.596  0.00  0.00    -0.004 A 
ENDBRANCH   6   7
BRANCH   6  13
ATOM     13  C   UNL     1       1.216   7.321  -5.952  0.00  0.00    +0.195 C 
ATOM     14  O   UNL     1      -0.038   7.089  -5.565  0.00  0.00    -0.220 OA
ENDBRANCH   6  13
ENDBRANCH   2   6
BRANCH   1  15
ATOM     15  C   UNL     1       3.539   6.456 -10.119  0.00  0.00    +0.120 C 
BRANCH  15  16
ATOM     16  C   UNL     1       4.847   5.764 -10.327  0.00  0.00    +0.001 A 
ATOM     17  C   UNL     1       5.710   5.741  -9.242  0.00  0.00    +0.018 A 
ATOM     18  C   UNL     1       7.069   5.687  -9.492  0.00  0.00    +0.099 A 
ATOM     19  N   UNL     1       7.559   5.629 -10.747  0.00  0.00    -0.242 NA
ATOM     20  C   UNL     1       6.706   5.812 -11.782  0.00  0.00    +0.099 A 
ATOM     21  C   UNL     1       5.365   5.500 -11.579  0.00  0.00    +0.018 A 
ENDBRANCH  15  16
ENDBRANCH   1  15
TORSDOF 6
ENDMDL
MODEL 7
REMARK VINA RESULT:      -6.6      2.353      4.732
REMARK  Name = 
REMARK  6 active torsions:
REMARK  status: ('A' for Active; 'I' for Inactive)
REMARK    1  A    between atoms: C_2  and  N_3
REMARK    2  A    between atoms: N_3  and  C_4
REMARK    3  A    between atoms: C_4  and  C_5
REMARK    4  A    between atoms: C_11  and  C_13
REMARK    5  A    between atoms: C_13  and  C_14
REMARK    6  A    between atoms: C_13  and  C_16
REMARK                            x       y       z     vdW  Elec       q    Type
REMARK                         _______ _______ _______ _____ _____    ______ ____
ROOT
ATOM      1  N   UNL     1       2.272   5.279  -7.386  0.00  0.00    -0.275 N 
ATOM      2  C   UNL     1       1.732   4.887  -6.123  0.00  0.00    +0.232 C 
ATOM      3  O   UNL     1       1.182   3.808  -5.980  0.00  0.00    -0.274 OA
ENDROOT
BRANCH   1   5
ATOM      4  C   UNL     1       4.676   5.528  -7.307  0.00  0.00    +0.023 C 
ATOM      5  C   UNL     1       3.347   6.265  -7.391  0.00  0.00    +0.094 C 
ENDBRANCH   1   5
BRANCH   2   6
ATOM      6  C   UNL     1       1.344   6.141  -5.197  0.00  0.00    +0.132 C 
BRANCH   6   7
ATOM      7  C   UNL     1      -0.144   5.610  -4.874  0.00  0.00    -0.011 A 
ATOM      8  C   UNL     1      -0.541   5.597  -3.572  0.00  0.00    -0.004 A 
ATOM      9  C   UNL     1      -1.894   5.413  -3.321  0.00  0.00    -0.000 A 
ATOM     10  C   UNL     1      -2.765   6.077  -4.143  0.00  0.00    -0.000 A 
ATOM     11  C   UNL     1      -2.306   6.571  -5.351  0.00  0.00    -0.000 A 
ATOM     12  C   UNL     1      -0.999   6.301  -5.731  0.00  0.00    -0.004 A 
ENDBRANCH   6   7
BRANCH   6  13
ATOM     13  C   UNL     1       1.996   5.537  -3.825  0.00  0.00    +0.195 C 
ATOM     14  O   UNL     1       3.317   5.386  -3.913  0.00  0.00    -0.220 OA
ENDBRANCH   6  13
ENDBRANCH   2   6
BRANCH   1  15
ATOM     15  C   UNL     1       2.317   4.288  -8.438  0.00  0.00    +0.120 C 
BRANCH  15  16
ATOM     16  C   UNL     1       1.601   4.815  -9.640  0.00  0.00    +0.001 A 
ATOM     17  C   UNL     1       2.397   5.265 -10.681  0.00  0.00    +0.018 A 
ATOM     18  C   UNL     1       1.897   6.261 -11.501  0.00  0.00    +0.099 A 
ATOM     19  N   UNL     1       0.661   6.771 -11.324  0.00  0.00    -0.242 NA
ATOM     20  C   UNL     1      -0.027   6.427 -10.210  0.00  0.00    +0.099 A 
ATOM     21  C   UNL     1       0.278   5.209  -9.612  0.00  0.00    +0.018 A 
ENDBRANCH  15  16
ENDBRANCH   1  15
TORSDOF 6
ENDMDL
MODEL 8
REMARK VINA RESULT:      -6.4      2.625      5.509
REMARK  Name = 
REMARK  6 active torsions:
REMARK  status: ('A' for Active; 'I' for Inactive)
REMARK    1  A    between atoms: C_2  and  N_3
REMARK    2  A    between atoms: N_3  and  C_4
REMARK    3  A    between atoms: C_4  and  C_5
REMARK    4  A    between atoms: C_11  and  C_13
REMARK    5  A    between atoms: C_13  and  C_14
REMARK    6  A    between atoms: C_13  and  C_16
REMARK                            x       y       z     vdW  Elec       q    Type
REMARK                         _______ _______ _______ _____ _____    ______ ____
ROOT
ATOM      1  N   UNL     1       1.819   5.344  -7.315  0.00  0.00    -0.275 N 
ATOM      2  C   UNL     1       2.001   4.858  -8.645  0.00  0.00    +0.232 C 
ATOM      3  O   UNL     1       2.659   3.854  -8.865  0.00  0.00    -0.274 OA
ENDROOT
BRANCH   1   5
ATOM      4  C   UNL     1      -0.588   5.273  -7.092  0.00  0.00    +0.023 C 
ATOM      5  C   UNL     1       0.644   6.166  -7.044  0.00  0.00    +0.094 C 
ENDBRANCH   1   5
BRANCH   2   6
ATOM      6  C   UNL     1       1.859   6.010  -9.754  0.00  0.00    +0.132 C 
BRANCH   6   7
ATOM      7  C   UNL     1       3.326   5.774 -10.380  0.00  0.00    -0.011 A 
ATOM      8  C   UNL     1       3.417   5.594 -11.726  0.00  0.00    -0.004 A 
ATOM      9  C   UNL     1       4.681   5.671 -12.294  0.00  0.00    -0.000 A 
ATOM     10  C   UNL     1       5.503   6.662 -11.827  0.00  0.00    -0.000 A 
ATOM     11  C   UNL     1       5.205   7.269 -10.619  0.00  0.00    -0.000 A 
ATOM     12  C   UNL     1       4.134   6.793  -9.877  0.00  0.00    -0.004 A 
ENDBRANCH   6   7
BRANCH   6  13
ATOM     13  C   UNL     1       1.096   5.080 -10.861  0.00  0.00    +0.195 C 
ATOM     14  O   UNL     1      -0.208   5.342 -10.934  0.00  0.00    -0.220 OA
ENDBRANCH   6  13
ENDBRANCH   2   6
BRANCH   1  15
ATOM     15  C   UNL     1       2.276   4.513  -6.223  0.00  0.00    +0.120 C 
BRANCH  15  16
ATOM     16  C   UNL     1       3.510   5.113  -5.632  0.00  0.00    +0.001 A 
ATOM     17  C   UNL     1       3.962   4.550  -4.449  0.00  0.00    +0.018 A 
ATOM     18  C   UNL     1       4.662   5.356  -3.569  0.00  0.00    +0.099 A 
ATOM     19  N   UNL     1       4.930   6.647  -3.849  0.00  0.00    -0.242 NA
ATOM     20  C   UNL     1       4.344   7.209  -4.932  0.00  0.00    +0.099 A 
ATOM     21  C   UNL     1       3.973   6.368  -5.976  0.00  0.00    +0.018 A 
ENDBRANCH  15  16
ENDBRANCH   1  15
TORSDOF 6
ENDMDL
MODEL 9
REMARK VINA RESULT:      -6.3      1.557      1.909
REMARK  Name = 
REMARK  6 active torsions:
REMARK  status: ('A' for Active; 'I' for Inactive)
REMARK    1  A    between atoms: C_2  and  N_3
REMARK    2  A    between atoms: N_3  and  C_4
REMARK    3  A    between atoms: C_4  and  C_5
REMARK    4  A    between atoms: C_11  and  C_13
REMARK    5  A    between atoms: C_13  and  C_14
REMARK    6  A    between atoms: C_13  and  C_16
REMARK                            x       y       z     vdW  Elec       q    Type
REMARK                         _______ _______ _______ _____ _____    ______ ____
ROOT
ATOM      1  N   UNL     1       3.160   6.095  -6.157  0.00  0.00    -0.275 N 
ATOM      2  C   UNL     1       1.972   6.390  -6.892  0.00  0.00    +0.232 C 
ATOM      3  O   UNL     1       1.504   7.517  -6.906  0.00  0.00    -0.274 OA
ENDROOT
BRANCH   1   5
ATOM      4  C   UNL     1       4.739   5.345  -7.829  0.00  0.00    +0.023 C 
ATOM      5  C   UNL     1       3.959   4.950  -6.583  0.00  0.00    +0.094 C 
ENDBRANCH   1   5
BRANCH   2   6
ATOM      6  C   UNL     1       1.035   5.104  -7.102  0.00  0.00    +0.132 C 
BRANCH   6   7
ATOM      7  C   UNL     1      -0.278   5.792  -6.466  0.00  0.00    -0.011 A 
ATOM      8  C   UNL     1      -1.489   5.428  -6.971  0.00  0.00    -0.004 A 
ATOM      9  C   UNL     1      -2.616   5.798  -6.250  0.00  0.00    -0.000 A 
ATOM     10  C   UNL     1      -2.540   5.670  -4.888  0.00  0.00    -0.000 A 
ATOM     11  C   UNL     1      -1.297   5.549  -4.292  0.00  0.00    -0.000 A 
ATOM     12  C   UNL     1      -0.163   5.650  -5.084  0.00  0.00    -0.004 A 
ENDBRANCH   6   7
BRANCH   6  13
ATOM     13  C   UNL     1       0.625   5.450  -8.646  0.00  0.00    +0.195 C 
ATOM     14  O   UNL     1       1.437   4.871  -9.530  0.00  0.00    -0.220 OA
ENDBRANCH   6  13
ENDBRANCH   2   6
BRANCH   1  15
ATOM     15  C   UNL     1       3.895   7.202  -5.587  0.00  0.00    +0.120 C 
BRANCH  15  16
ATOM     16  C   UNL     1       3.958   7.039  -4.103  0.00  0.00    +0.001 A 
ATOM     17  C   UNL     1       3.004   6.209  -3.534  0.00  0.00    +0.018 A 
ATOM     18  C   UNL     1       2.613   6.463  -2.232  0.00  0.00    +0.099 A 
ATOM     19  N   UNL     1       3.154   7.465  -1.511  0.00  0.00    -0.242 NA
ATOM     20  C   UNL     1       3.962   8.351  -2.139  0.00  0.00    +0.099 A 
ATOM     21  C   UNL     1       4.632   7.919  -3.279  0.00  0.00    +0.018 A 
ENDBRANCH  15  16
ENDBRANCH   1  15
TORSDOF 6
ENDMDL
