MODEL 1
REMARK VINA RESULT:      -7.8      0.000      0.000
REMARK  Name = 
REMARK  5 active torsions:
REMARK  status: ('A' for Active; 'I' for Inactive)
REMARK    1  A    between atoms: C_6  and  O_7
REMARK    2  A    between atoms: O_7  and  C_8
REMARK    3  A    between atoms: C_8  and  C_10
REMARK    4  A    between atoms: C_10  and  C_12
REMARK    5  A    between atoms: C_10  and  C_18
REMARK                            x       y       z     vdW  Elec       q    Type
REMARK                         _______ _______ _______ _____ _____    ______ ____
ROOT
ATOM      1  C   UNL     1       1.116   5.573  -5.763  0.00  0.00    +0.233 C 
ATOM      2  O   UNL     1       1.138   4.550  -4.803  0.00  0.00    -0.210 OA
ENDROOT
BRANCH   1   3
ATOM      3  C   UNL     1      -0.202   6.236  -5.769  0.00  0.00    +0.015 A 
ATOM      4  C   UNL     1      -0.400   7.252  -4.851  0.00  0.00    -0.001 A 
ATOM      5  C   UNL     1      -1.645   7.808  -4.771  0.00  0.00    -0.000 A 
ATOM      6  C   UNL     1      -2.711   7.305  -5.486  0.00  0.00    -0.000 A 
ATOM      7  C   UNL     1      -2.538   6.060  -6.067  0.00  0.00    -0.000 A 
ATOM      8  C   UNL     1      -1.311   5.453  -6.048  0.00  0.00    -0.001 A 
ENDBRANCH   1   3
BRANCH   1   9
ATOM      9  C   UNL     1       2.203   6.538  -5.403  0.00  0.00    +0.043 C 
ATOM     10  C   UNL     1       3.184   6.827  -6.483  0.00  0.00    +0.003 C 
ATOM     11  C   UNL     1       4.517   6.350  -5.962  0.00  0.00    +0.000 C 
ATOM     12  C   UNL     1       4.224   5.517  -4.747  0.00  0.00    +0.000 C 
ATOM     13  C   UNL     1       2.971   6.111  -4.169  0.00  0.00    +0.003 C 
ENDBRANCH   1   9
BRANCH   1  14
ATOM     14  C   UNL     1       1.452   5.036  -7.121  0.00  0.00    +0.349 C 
ATOM     15  O   UNL     1       2.112   3.956  -7.218  0.00  0.00    -0.247 OA
BRANCH  14  16
ATOM     16  O   UNL     1       0.855   5.657  -8.200  0.00  0.00    -0.444 OA
BRANCH  16  20
ATOM     17  C   UNL     1       1.111   6.577 -11.999  0.00  0.00    +0.171 C 
ATOM     18  N   UNL     1       0.635   6.544 -11.445  0.00  0.00    +0.309 N 
ATOM     19  C   UNL     1       1.128   6.841 -10.143  0.00  0.00    +0.153 C 
ATOM     20  C   UNL     1       1.459   5.328  -9.578  0.00  0.00    +0.229 C 
ATOM     21  C   UNL     1       0.022   4.717 -10.116  0.00  0.00    +0.111 C 
ATOM     22  C   UNL     1       0.180   5.208 -11.514  0.00  0.00    +0.113 C 
ATOM     23  C   UNL     1      -0.494   7.450 -11.632  0.00  0.00    +0.171 C 
ENDBRANCH  16  20
ENDBRANCH  14  16
ENDBRANCH   1  14
TORSDOF 5
ENDMDL
MODEL 2
REMARK VINA RESULT:      -7.8      2.892      4.917
REMARK  Name = 
REMARK  5 active torsions:
REMARK  status: ('A' for Active; 'I' for Inactive)
REMARK    1  A    between atoms: C_6  and  O_7
REMARK    2  A    between atoms: O_7  and  C_8
REMARK    3  A    between atoms: C_8  and  C_10
REMARK    4  A    between atoms: C_10  and  C_12
REMARK    5  A    between atoms: C_10  and  C_18
REMARK                            x       y       z     vdW  Elec       q    Type
REMARK                         _______ _______ _______ _____ _____    ______ ____
ROOT
ATOM      1  C   UNL     1       1.068   6.108  -8.966  0.00  0.00    +0.233 C 
ATOM      2  O   UNL     1       1.309   7.482  -9.120  0.00  0.00    -0.210 OA
ENDROOT
BRANCH   1   3
ATOM      3  C   UNL     1       0.545   5.834  -7.613  0.00  0.00    +0.015 A 
ATOM      4  C   UNL     1      -0.782   5.452  -7.517  0.00  0.00    -0.001 A 
ATOM      5  C   UNL     1      -1.312   5.294  -6.268  0.00  0.00    -0.000 A 
ATOM      6  C   UNL     1      -0.601   5.616  -5.132  0.00  0.00    -0.000 A 
ATOM      7  C   UNL     1       0.554   6.358  -5.311  0.00  0.00    -0.000 A 
ATOM      8  C   UNL     1       1.025   6.611  -6.571  0.00  0.00    -0.001 A 
ENDBRANCH   1   3
BRANCH   1   9
ATOM      9  C   UNL     1       0.077   5.713 -10.017  0.00  0.00    +0.043 C 
ATOM     10  C   UNL     1       0.445   4.520 -10.825  0.00  0.00    +0.003 C 
ATOM     11  C   UNL     1       0.570   5.011 -12.245  0.00  0.00    +0.000 C 
ATOM     12  C   UNL     1       0.589   6.511 -12.176  0.00  0.00    +0.000 C 
ATOM     13  C   UNL     1      -0.239   6.848 -10.969  0.00  0.00    +0.003 C 
ENDBRANCH   1   9
BRANCH   1  14
ATOM     14  C   UNL     1       2.312   5.316  -9.230  0.00  0.00    +0.349 C 
ATOM     15  O   UNL     1       2.371   4.105  -8.855  0.00  0.00    -0.247 OA
BRANCH  14  16
ATOM     16  O   UNL     1       3.261   5.902 -10.045  0.00  0.00    -0.444 OA
BRANCH  16  20
ATOM     17  C   UNL     1       7.085   5.783 -10.887  0.00  0.00    +0.171 C 
ATOM     18  N   UNL     1       6.477   6.167 -11.020  0.00  0.00    +0.309 N 
ATOM     19  C   UNL     1       5.523   6.262  -9.968  0.00  0.00    +0.153 C 
ATOM     20  C   UNL     1       4.495   5.036 -10.362  0.00  0.00    +0.229 C 
ATOM     21  C   UNL     1       4.448   5.468 -11.956  0.00  0.00    +0.111 C 
ATOM     22  C   UNL     1       5.928   5.492 -12.134  0.00  0.00    +0.113 C 
ATOM     23  C   UNL     1       6.768   7.550 -11.387  0.00  0.00    +0.171 C 
ENDBRANCH  16  20
ENDBRANCH  14  16
ENDBRANCH   1  14
TORSDOF 5
ENDMDL
MODEL 3
REMARK VINA RESULT:      -7.8      2.371      5.255
REMARK  Name = 
REMARK  5 active torsions:
REMARK  status: ('A' for Active; 'I' for Inactive)
REMARK    1  A    between atoms: C_6  and  O_7
REMARK    2  A    between atoms: O_7  and  C_8
REMARK    3  A    between atoms: C_8  and  C_10
REMARK    4  A    between atoms: C_10  and  C_12
REMARK    5  A    between atoms: C_10  and  C_18
REMARK                            x       y       z     vdW  Elec       q    Type
REMARK                         _______ _______ _______ _____ _____    ______ ____
ROOT
ATOM      1  C   UNL     1       2.826   5.530  -8.662  0.00  0.00    +0.233 C 
ATOM      2  O   UNL     1       3.205   6.807  -8.221  0.00  0.00    -0.210 OA
ENDROOT
BRANCH   1   3
ATOM      3  C   UNL     1       1.829   5.643  -9.744  0.00  0.00    +0.015 A 
ATOM      4  C   UNL     1       1.185   6.860  -9.884  0.00  0.00    -0.001 A 
ATOM      5  C   UNL     1       0.187   6.953 -10.811  0.00  0.00    -0.000 A 
ATOM      6  C   UNL     1      -0.260   5.851 -11.508  0.00  0.00    -0.000 A 
ATOM      7  C   UNL     1       0.144   4.612 -11.039  0.00  0.00    -0.000 A 
ATOM      8  C   UNL     1       1.064   4.523 -10.030  0.00  0.00    -0.001 A 
ENDBRANCH   1   3
BRANCH   1   9
ATOM      9  C   UNL     1       4.066   4.841  -9.141  0.00  0.00    +0.043 C 
ATOM     10  C   UNL     1       5.286   5.082  -8.326  0.00  0.00    +0.003 C 
ATOM     11  C   UNL     1       6.262   5.772  -9.245  0.00  0.00    +0.000 C 
ATOM     12  C   UNL     1       5.478   6.199 -10.453  0.00  0.00    +0.000 C 
ATOM     13  C   UNL     1       4.390   5.172 -10.584  0.00  0.00    +0.003 C 
ENDBRANCH   1   9
BRANCH   1  14
ATOM     14  C   UNL     1       2.293   4.711  -7.526  0.00  0.00    +0.349 C 
ATOM     15  O   UNL     1       2.496   3.458  -7.512  0.00  0.00    -0.247 OA
BRANCH  14  16
ATOM     16  O   UNL     1       1.768   5.404  -6.452  0.00  0.00    -0.444 OA
BRANCH  16  20
ATOM     17  C   UNL     1      -1.784   5.807  -4.851  0.00  0.00    +0.171 C 
ATOM     18  N   UNL     1      -1.140   6.146  -4.916  0.00  0.00    +0.309 N 
ATOM     19  C   UNL     1      -0.430   5.968  -6.138  0.00  0.00    +0.153 C 
ATOM     20  C   UNL     1       0.581   4.730  -5.738  0.00  0.00    +0.229 C 
ATOM     21  C   UNL     1       0.996   5.417  -4.295  0.00  0.00    +0.111 C 
ATOM     22  C   UNL     1      -0.406   5.617  -3.831  0.00  0.00    +0.113 C 
ATOM     23  C   UNL     1      -1.259   7.593  -4.761  0.00  0.00    +0.171 C 
ENDBRANCH  16  20
ENDBRANCH  14  16
ENDBRANCH   1  14
TORSDOF 5
ENDMDL
MODEL 4
REMARK VINA RESULT:      -7.8      2.573      4.566
REMARK  Name = 
REMARK  5 active torsions:
REMARK  status: ('A' for Active; 'I' for Inactive)
REMARK    1  A    between atoms: C_6  and  O_7
REMARK    2  A    between atoms: O_7  and  C_8
REMARK    3  A    between atoms: C_8  and  C_10
REMARK    4  A    between atoms: C_10  and  C_12
REMARK    5  A    between atoms: C_10  and  C_18
REMARK                            x       y       z     vdW  Elec       q    Type
REMARK                         _______ _______ _______ _____ _____    ______ ____
ROOT
ATOM      1  C   UNL     1       2.187   5.767  -6.753  0.00  0.00    +0.233 C 
ATOM      2  O   UNL     1       1.764   7.009  -7.249  0.00  0.00    -0.210 OA
ENDROOT
BRANCH   1   3
ATOM      3  C   UNL     1       3.061   5.961  -5.579  0.00  0.00    +0.015 A 
ATOM      4  C   UNL     1       3.580   7.229  -5.382  0.00  0.00    -0.001 A 
ATOM      5  C   UNL     1       4.472   7.403  -4.363  0.00  0.00    -0.000 A 
ATOM      6  C   UNL     1       4.943   6.341  -3.622  0.00  0.00    -0.000 A 
ATOM      7  C   UNL     1       4.697   5.074  -4.125  0.00  0.00    -0.000 A 
ATOM      8  C   UNL     1       3.889   4.910  -5.217  0.00  0.00    -0.001 A 
ENDBRANCH   1   3
BRANCH   1   9
ATOM      9  C   UNL     1       0.958   4.995  -6.388  0.00  0.00    +0.043 C 
ATOM     10  C   UNL     1      -0.271   5.355  -7.144  0.00  0.00    +0.003 C 
ATOM     11  C   UNL     1      -1.246   5.873  -6.117  0.00  0.00    +0.000 C 
ATOM     12  C   UNL     1      -0.457   6.100  -4.859  0.00  0.00    +0.000 C 
ATOM     13  C   UNL     1       0.641   5.078  -4.908  0.00  0.00    +0.003 C 
ENDBRANCH   1   9
BRANCH   1  14
ATOM     14  C   UNL     1       2.887   4.979  -7.818  0.00  0.00    +0.349 C 
ATOM     15  O   UNL     1       2.508   3.793  -8.066  0.00  0.00    -0.247 OA
BRANCH  14  16
ATOM     16  O   UNL     1       3.791   5.664  -8.606  0.00  0.00    -0.444 OA
BRANCH  16  20
ATOM     17  C   UNL     1       6.090   5.681 -11.778  0.00  0.00    +0.171 C 
ATOM     18  N   UNL     1       5.695   6.123 -11.350  0.00  0.00    +0.309 N 
ATOM     19  C   UNL     1       5.631   5.802  -9.964  0.00  0.00    +0.153 C 
ATOM     20  C   UNL     1       4.222   4.951  -9.902  0.00  0.00    +0.229 C 
ATOM     21  C   UNL     1       3.413   6.050 -10.833  0.00  0.00    +0.111 C 
ATOM     22  C   UNL     1       4.412   6.053 -11.939  0.00  0.00    +0.113 C 
ATOM     23  C   UNL     1       6.173   7.502 -11.392  0.00  0.00    +0.171 C 
ENDBRANCH  16  20
ENDBRANCH  14  16
ENDBRANCH   1  14
TORSDOF 5
ENDMDL
MODEL 5
REMARK VINA RESULT:      -7.8      2.614      5.500
REMARK  Name = 
REMARK  5 active torsions:
REMARK  status: ('A' for Active; 'I' for Inactive)
REMARK    1  A    between atoms: C_6  and  O_7
REMARK    2  A    between atoms: O_7  and  C_8
REMARK    3  A    between atoms: C_8  and  C_10
REMARK    4  A    between atoms: C_10  and  C_12
REMARK    5  A    between atoms: C_10  and  C_18
REMARK                            x       y       z     vdW  Elec       q    Type
REMARK                         _______ _______ _______ _____ _____    ______ ____
ROOT
ATOM      1  C   UNL     1       3.478   6.118  -6.310  0.00  0.00    +0.233 C 
ATOM      2  O   UNL     1       3.127   7.466  -6.146  0.00  0.00    -0.210 OA
ENDROOT
BRANCH   1   3
ATOM      3  C   UNL     1       3.921   5.874  -7.697  0.00  0.00    +0.015 A 
ATOM      4  C   UNL     1       5.226   5.450  -7.876  0.00  0.00    -0.001 A 
ATOM      5  C   UNL     1       5.685   5.318  -9.155  0.00  0.00    -0.000 A 
ATOM      6  C   UNL     1       4.929   5.706 -10.241  0.00  0.00    -0.000 A 
ATOM      7  C   UNL     1       3.813   6.482  -9.976  0.00  0.00    -0.000 A 
ATOM      8  C   UNL     1       3.418   6.705  -8.685  0.00  0.00    -0.001 A 
ENDBRANCH   1   3
BRANCH   1   9
ATOM      9  C   UNL     1       4.576   5.826  -5.335  0.00  0.00    +0.043 C 
ATOM     10  C   UNL     1       4.285   4.752  -4.348  0.00  0.00    +0.003 C 
ATOM     11  C   UNL     1       4.331   5.417  -2.996  0.00  0.00    +0.000 C 
ATOM     12  C   UNL     1       4.327   6.898  -3.250  0.00  0.00    +0.000 C 
ATOM     13  C   UNL     1       5.017   7.060  -4.574  0.00  0.00    +0.003 C 
ENDBRANCH   1   9
BRANCH   1  14
ATOM     14  C   UNL     1       2.334   5.221  -5.948  0.00  0.00    +0.349 C 
ATOM     15  O   UNL     1       2.312   4.030  -6.386  0.00  0.00    -0.247 OA
BRANCH  14  16
ATOM     16  O   UNL     1       1.455   5.690  -4.991  0.00  0.00    -0.444 OA
BRANCH  16  20
ATOM     17  C   UNL     1      -2.354   6.568  -5.245  0.00  0.00    +0.171 C 
ATOM     18  N   UNL     1      -1.736   6.776  -4.917  0.00  0.00    +0.309 N 
ATOM     19  C   UNL     1      -0.525   6.633  -5.653  0.00  0.00    +0.153 C 
ATOM     20  C   UNL     1       0.008   5.174  -5.103  0.00  0.00    +0.229 C 
ATOM     21  C   UNL     1      -0.301   5.556  -3.526  0.00  0.00    +0.111 C 
ATOM     22  C   UNL     1      -1.715   5.965  -3.760  0.00  0.00    +0.113 C 
ATOM     23  C   UNL     1      -1.768   8.182  -4.521  0.00  0.00    +0.171 C 
ENDBRANCH  16  20
ENDBRANCH  14  16
ENDBRANCH   1  14
TORSDOF 5
ENDMDL
MODEL 6
REMARK VINA RESULT:      -7.6      3.054      5.950
REMARK  Name = 
REMARK  5 active torsions:
REMARK  status: ('A' for Active; 'I' for Inactive)
REMARK    1  A    between atoms: C_6  and  O_7
REMARK    2  A    between atoms: O_7  and  C_8
REMARK    3  A    between atoms: C_8  and  C_10
REMARK    4  A    between atoms: C_10  and  C_12
REMARK    5  A    between atoms: C_10  and  C_18
REMARK                            x       y       z     vdW  Elec       q    Type
REMARK                         _______ _______ _______ _____ _____    ______ ____
ROOT
ATOM      1  C   UNL     1       3.006   5.630  -8.750  0.00  0.00    +0.233 C 
ATOM      2  O   UNL     1       3.401   6.933  -8.414  0.00  0.00    -0.210 OA
ENDROOT
BRANCH   1   3
ATOM      3  C   UNL     1       1.940   5.670  -9.770  0.00  0.00    +0.015 A 
ATOM      4  C   UNL     1       1.236   6.854  -9.899  0.00  0.00    -0.001 A 
ATOM      5  C   UNL     1       0.179   6.879 -10.764  0.00  0.00    -0.000 A 
ATOM      6  C   UNL     1      -0.260   5.740 -11.405  0.00  0.00    -0.000 A 
ATOM      7  C   UNL     1       0.227   4.533 -10.931  0.00  0.00    -0.000 A 
ATOM      8  C   UNL     1       1.211   4.511  -9.980  0.00  0.00    -0.001 A 
ENDBRANCH   1   3
BRANCH   1   9
ATOM      9  C   UNL     1       4.219   4.920  -9.266  0.00  0.00    +0.043 C 
ATOM     10  C   UNL     1       5.463   5.124  -8.476  0.00  0.00    +0.003 C 
ATOM     11  C   UNL     1       6.433   5.804  -9.409  0.00  0.00    +0.000 C 
ATOM     12  C   UNL     1       5.632   6.263 -10.594  0.00  0.00    +0.000 C 
ATOM     13  C   UNL     1       4.518   5.262 -10.712  0.00  0.00    +0.003 C 
ENDBRANCH   1   9
BRANCH   1  14
ATOM     14  C   UNL     1       2.556   4.879  -7.534  0.00  0.00    +0.349 C 
ATOM     15  O   UNL     1       2.463   3.614  -7.581  0.00  0.00    -0.247 OA
BRANCH  14  16
ATOM     16  O   UNL     1       2.448   5.602  -6.362  0.00  0.00    -0.444 OA
BRANCH  16  20
ATOM     17  C   UNL     1       3.085   5.742  -2.499  0.00  0.00    +0.171 C 
ATOM     18  N   UNL     1       3.221   6.104  -3.119  0.00  0.00    +0.309 N 
ATOM     19  C   UNL     1       2.219   6.066  -4.130  0.00  0.00    +0.153 C 
ATOM     20  C   UNL     1       2.764   4.827  -5.069  0.00  0.00    +0.229 C 
ATOM     21  C   UNL     1       4.319   5.384  -5.057  0.00  0.00    +0.111 C 
ATOM     22  C   UNL     1       4.413   5.496  -3.574  0.00  0.00    +0.113 C 
ATOM     23  C   UNL     1       3.461   7.525  -2.885  0.00  0.00    +0.171 C 
ENDBRANCH  16  20
ENDBRANCH  14  16
ENDBRANCH   1  14
TORSDOF 5
ENDMDL
MODEL 7
REMARK VINA RESULT:      -7.6      1.180      3.775
REMARK  Name = 
REMARK  5 active torsions:
REMARK  status: ('A' for Active; 'I' for Inactive)
REMARK    1  A    between atoms: C_6  and  O_7
REMARK    2  A    between atoms: O_7  and  C_8
REMARK    3  A    between atoms: C_8  and  C_10
REMARK    4  A    between atoms: C_10  and  C_12
REMARK    5  A    between atoms: C_10  and  C_18
REMARK                            x       y       z     vdW  Elec       q    Type
REMARK                         _______ _______ _______ _____ _____    ______ ____
ROOT
ATOM      1  C   UNL     1       1.665   5.858  -6.336  0.00  0.00    +0.233 C 
ATOM      2  O   UNL     1       1.266   7.117  -6.809  0.00  0.00    -0.210 OA
ENDROOT
BRANCH   1   3
ATOM      3  C   UNL     1       2.783   6.004  -5.383  0.00  0.00    +0.015 A 
ATOM      4  C   UNL     1       3.529   7.167  -5.463  0.00  0.00    -0.001 A 
ATOM      5  C   UNL     1       4.630   7.276  -4.661  0.00  0.00    -0.000 A 
ATOM      6  C   UNL     1       5.066   6.227  -3.881  0.00  0.00    -0.000 A 
ATOM      7  C   UNL     1       4.518   4.983  -4.150  0.00  0.00    -0.000 A 
ATOM      8  C   UNL     1       3.486   4.861  -5.040  0.00  0.00    -0.001 A 
ENDBRANCH   1   3
BRANCH   1   9
ATOM      9  C   UNL     1       0.473   5.236  -5.676  0.00  0.00    +0.043 C 
ATOM     10  C   UNL     1      -0.808   5.361  -6.421  0.00  0.00    +0.003 C 
ATOM     11  C   UNL     1      -1.721   6.166  -5.531  0.00  0.00    +0.000 C 
ATOM     12  C   UNL     1      -0.855   6.752  -4.453  0.00  0.00    +0.000 C 
ATOM     13  C   UNL     1       0.254   5.755  -4.270  0.00  0.00    +0.003 C 
ENDBRANCH   1   9
BRANCH   1  14
ATOM     14  C   UNL     1       2.044   4.958  -7.472  0.00  0.00    +0.349 C 
ATOM     15  O   UNL     1       2.139   3.708  -7.272  0.00  0.00    -0.247 OA
BRANCH  14  16
ATOM     16  O   UNL     1       2.083   5.527  -8.730  0.00  0.00    -0.444 OA
BRANCH  16  20
ATOM     17  C   UNL     1       1.108   5.206 -12.510  0.00  0.00    +0.171 C 
ATOM     18  N   UNL     1       1.013   5.634 -11.925  0.00  0.00    +0.309 N 
ATOM     19  C   UNL     1       2.100   5.739 -11.011  0.00  0.00    +0.153 C 
ATOM     20  C   UNL     1       1.685   4.600  -9.894  0.00  0.00    +0.229 C 
ATOM     21  C   UNL     1       0.115   5.111  -9.827  0.00  0.00    +0.111 C 
ATOM     22  C   UNL     1      -0.111   5.050 -11.299  0.00  0.00    +0.113 C 
ATOM     23  C   UNL     1       0.701   7.012 -12.293  0.00  0.00    +0.171 C 
ENDBRANCH  16  20
ENDBRANCH  14  16
ENDBRANCH   1  14
TORSDOF 5
ENDMDL
MODEL 8
REMARK VINA RESULT:      -7.5      3.060      5.957
REMARK  Name = 
REMARK  5 active torsions:
REMARK  status: ('A' for Active; 'I' for Inactive)
REMARK    1  A    between atoms: C_6  and  O_7
REMARK    2  A    between atoms: O_7  and  C_8
REMARK    3  A    between atoms: C_8  and  C_10
REMARK    4  A    between atoms: C_10  and  C_12
REMARK    5  A    between atoms: C_10  and  C_18
REMARK                            x       y       z     vdW  Elec       q    Type
REMARK                         _______ _______ _______ _____ _____    ______ ____
ROOT
ATOM      1  C   UNL     1       1.824   6.777  -6.783  0.00  0.00    +0.233 C 
ATOM      2  O   UNL     1       1.766   8.037  -7.395  0.00  0.00    -0.210 OA
ENDROOT
BRANCH   1   3
ATOM      3  C   UNL     1       0.493   6.401  -6.266  0.00  0.00    +0.015 A 
ATOM      4  C   UNL     1      -0.280   5.572  -7.061  0.00  0.00    -0.001 A 
ATOM      5  C   UNL     1      -1.553   5.298  -6.649  0.00  0.00    -0.000 A 
ATOM      6  C   UNL     1      -2.107   5.912  -5.547  0.00  0.00    -0.000 A 
ATOM      7  C   UNL     1      -1.432   7.011  -5.042  0.00  0.00    -0.000 A 
ATOM      8  C   UNL     1      -0.201   7.351  -5.535  0.00  0.00    -0.001 A 
ENDBRANCH   1   3
BRANCH   1   9
ATOM      9  C   UNL     1       2.293   5.803  -7.819  0.00  0.00    +0.043 C 
ATOM     10  C   UNL     1       3.544   5.069  -7.487  0.00  0.00    +0.003 C 
ATOM     11  C   UNL     1       4.544   5.468  -8.542  0.00  0.00    +0.000 C 
ATOM     12  C   UNL     1       3.958   6.652  -9.258  0.00  0.00    +0.000 C 
ATOM     13  C   UNL     1       2.472   6.448  -9.179  0.00  0.00    +0.003 C 
ENDBRANCH   1   9
BRANCH   1  14
ATOM     14  C   UNL     1       2.847   6.763  -5.688  0.00  0.00    +0.349 C 
ATOM     15  O   UNL     1       3.822   7.573  -5.736  0.00  0.00    -0.247 OA
BRANCH  14  16
ATOM     16  O   UNL     1       2.561   5.988  -4.580  0.00  0.00    -0.444 OA
BRANCH  16  20
ATOM     17  C   UNL     1       3.646   6.011  -0.817  0.00  0.00    +0.171 C 
ATOM     18  N   UNL     1       3.404   5.567  -1.343  0.00  0.00    +0.309 N 
ATOM     19  C   UNL     1       3.826   5.844  -2.675  0.00  0.00    +0.153 C 
ATOM     20  C   UNL     1       2.553   6.731  -3.231  0.00  0.00    +0.229 C 
ATOM     21  C   UNL     1       1.437   5.685  -2.607  0.00  0.00    +0.111 C 
ATOM     22  C   UNL     1       2.001   5.690  -1.228  0.00  0.00    +0.113 C 
ATOM     23  C   UNL     1       3.788   4.177  -1.112  0.00  0.00    +0.171 C 
ENDBRANCH  16  20
ENDBRANCH  14  16
ENDBRANCH   1  14
TORSDOF 5
ENDMDL
MODEL 9
REMARK VINA RESULT:      -7.5      2.592      5.701
REMARK  Name = 
REMARK  5 active torsions:
REMARK  status: ('A' for Active; 'I' for Inactive)
REMARK    1  A    between atoms: C_6  and  O_7
REMARK    2  A    between atoms: O_7  and  C_8
REMARK    3  A    between atoms: C_8  and  C_10
REMARK    4  A    between atoms: C_10  and  C_12
REMARK    5  A    between atoms: C_10  and  C_18
REMARK                            x       y       z     vdW  Elec       q    Type
REMARK                         _______ _______ _______ _____ _____    ______ ____
ROOT
ATOM      1  C   UNL     1       2.602   6.031  -7.010  0.00  0.00    +0.233 C 
ATOM      2  O   UNL     1       1.995   4.785  -7.223  0.00  0.00    -0.210 OA
ENDROOT
BRANCH   1   3
ATOM      3  C   UNL     1       3.520   5.958  -5.856  0.00  0.00    +0.015 A 
ATOM      4  C   UNL     1       3.379   4.873  -5.009  0.00  0.00    -0.001 A 
ATOM      5  C   UNL     1       4.148   4.840  -3.880  0.00  0.00    -0.000 A 
ATOM      6  C   UNL     1       4.952   5.899  -3.519  0.00  0.00    -0.000 A 
ATOM      7  C   UNL     1       4.743   7.095  -4.187  0.00  0.00    -0.000 A 
ATOM      8  C   UNL     1       3.885   7.150  -5.252  0.00  0.00    -0.001 A 
ENDBRANCH   1   3
BRANCH   1   9
ATOM      9  C   UNL     1       3.342   6.383  -8.264  0.00  0.00    +0.043 C 
ATOM     10  C   UNL     1       2.631   6.072  -9.533  0.00  0.00    +0.003 C 
ATOM     11  C   UNL     1       3.492   5.060 -10.246  0.00  0.00    +0.000 C 
ATOM     12  C   UNL     1       4.498   4.575  -9.242  0.00  0.00    +0.000 C 
ATOM     13  C   UNL     1       4.715   5.744  -8.324  0.00  0.00    +0.003 C 
ENDBRANCH   1   9
BRANCH   1  14
ATOM     14  C   UNL     1       1.571   7.099  -6.808  0.00  0.00    +0.349 C 
ATOM     15  O   UNL     1       1.755   8.248  -7.315  0.00  0.00    -0.247 OA
BRANCH  14  16
ATOM     16  O   UNL     1       0.377   6.710  -6.233  0.00  0.00    -0.444 OA
BRANCH  16  20
ATOM     17  C   UNL     1      -1.425   5.762  -2.887  0.00  0.00    +0.171 C 
ATOM     18  N   UNL     1      -1.553   5.882  -3.596  0.00  0.00    +0.309 N 
ATOM     19  C   UNL     1      -0.537   5.498  -4.517  0.00  0.00    +0.153 C 
ATOM     20  C   UNL     1       0.268   6.923  -4.711  0.00  0.00    +0.229 C 
ATOM     21  C   UNL     1      -1.128   7.790  -4.885  0.00  0.00    +0.111 C 
ATOM     22  C   UNL     1      -1.761   7.279  -3.636  0.00  0.00    +0.113 C 
ATOM     23  C   UNL     1      -2.757   5.200  -4.062  0.00  0.00    +0.171 C 
ENDBRANCH  16  20
ENDBRANCH  14  16
ENDBRANCH   1  14
TORSDOF 5
ENDMDL
