MODEL 1
REMARK VINA RESULT:      -9.2      0.000      0.000
REMARK  Name = 
REMARK  12 active torsions:
REMARK  status: ('A' for Active; 'I' for Inactive)
REMARK    1  A    between atoms: C_2  and  C_4
REMARK    2  A    between atoms: C_5  and  C_6
REMARK    3  A    between atoms: N_8  and  C_9
REMARK    4  A    between atoms: C_15  and  C_16
REMARK    5  A    between atoms: C_22  and  C_23
REMARK    6  A    between atoms: N_30  and  C_31
REMARK    7  A    between atoms: C_31  and  C_32
REMARK    8  A    between atoms: C_32  and  C_33
REMARK    9  A    between atoms: C_33  and  C_35
REMARK   10  A    between atoms: C_35  and  C_36
REMARK   11  A    between atoms: C_36  and  C_38
REMARK   12  A    between atoms: C_38  and  C_39
REMARK                            x       y       z     vdW  Elec       q    Type
REMARK                         _______ _______ _______ _____ _____    ______ ____
ROOT
ATOM      1  C   UNL     1       3.161   5.137  -4.538  0.00  0.00    +0.041 A 
ATOM      2  N   UNL     1       2.724   4.867  -5.792  0.00  0.00    -0.330 N 
ATOM      3  C   UNL     1       1.539   5.491  -5.992  0.00  0.00    +0.060 A 
ATOM      4  C   UNL     1       1.145   5.931  -4.734  0.00  0.00    +0.021 A 
ATOM      5  C   UNL     1       2.242   5.945  -3.878  0.00  0.00    +0.068 A 
ENDROOT
BRANCH   3   6
ATOM      6  C   UNL     1       0.974   6.007  -7.247  0.00  0.00    +0.016 A 
ATOM      7  C   UNL     1      -0.006   5.310  -7.947  0.00  0.00    +0.004 A 
ATOM      8  C   UNL     1      -0.166   5.397  -9.303  0.00  0.00    +0.030 A 
ATOM      9  C   UNL     1       0.640   6.273 -10.000  0.00  0.00    +0.140 A 
ATOM     10  F   UNL     1       0.853   6.081 -11.316  0.00  0.00    -0.204 F 
ATOM     11  C   UNL     1       1.230   7.295  -9.273  0.00  0.00    +0.030 A 
ATOM     12  C   UNL     1       1.580   7.023  -7.955  0.00  0.00    +0.004 A 
ENDBRANCH   3   6
BRANCH   4  13
ATOM     13  C   UNL     1      -0.200   6.262  -4.319  0.00  0.00    +0.002 A 
ATOM     14  C   UNL     1      -0.833   5.555  -3.303  0.00  0.00    +0.000 A 
ATOM     15  C   UNL     1      -2.215   5.445  -3.365  0.00  0.00    +0.000 A 
ATOM     16  C   UNL     1      -2.936   6.254  -4.216  0.00  0.00    +0.000 A 
ATOM     17  C   UNL     1      -2.269   7.316  -4.790  0.00  0.00    +0.000 A 
ATOM     18  C   UNL     1      -0.888   7.380  -4.774  0.00  0.00    +0.000 A 
ENDBRANCH   4  13
BRANCH   1  20
ATOM     19  C   UNL     1       4.668   4.713  -3.988  0.00  0.00    +0.006 C 
ATOM     20  C   UNL     1       4.537   4.972  -3.976  0.00  0.00    +0.038 C 
ATOM     21  C   UNL     1       5.409   6.177  -4.300  0.00  0.00    +0.006 C 
ENDBRANCH   1  20
BRANCH   5  22
ATOM     22  C   UNL     1       2.539   7.031  -2.929  0.00  0.00    +0.270 C 
ATOM     23  N   UNL     1       2.410   6.858  -1.535  0.00  0.00    -0.175 NA
ATOM     24  O   UNL     1       3.210   8.042  -3.302  0.00  0.00    -0.268 OA
BRANCH  23  25
ATOM     25  C   UNL     1       3.366   7.385  -0.625  0.00  0.00    +0.074 A 
ATOM     26  C   UNL     1       4.497   6.607  -0.413  0.00  0.00    +0.017 A 
ATOM     27  C   UNL     1       5.359   6.992   0.606  0.00  0.00    +0.001 A 
ATOM     28  C   UNL     1       4.936   7.865   1.601  0.00  0.00    +0.000 A 
ATOM     29  C   UNL     1       3.863   8.669   1.281  0.00  0.00    +0.001 A 
ATOM     30  C   UNL     1       3.207   8.558   0.062  0.00  0.00    +0.017 A 
ENDBRANCH  23  25
ENDBRANCH   5  22
BRANCH   2  31
ATOM     31  C   UNL     1       3.559   4.357  -6.868  0.00  0.00    +0.108 C 
BRANCH  31  32
ATOM     32  C   UNL     1       4.369   5.448  -7.511  0.00  0.00    +0.057 C 
BRANCH  32  33
ATOM     33  C   UNL     1       4.884   4.789  -8.935  0.00  0.00    +0.156 C 
ATOM     34  O   UNL     1       3.499   4.244  -9.245  0.00  0.00    -0.223 OA
BRANCH  33  35
ATOM     35  C   UNL     1       4.584   6.187  -9.765  0.00  0.00    +0.066 C 
BRANCH  35  36
ATOM     36  C   UNL     1       6.161   6.406 -10.207  0.00  0.00    +0.166 C 
ATOM     37  O   UNL     1       5.843   7.726 -10.891  0.00  0.00    -0.222 OA
BRANCH  36  38
ATOM     38  C   UNL     1       5.954   5.568 -11.615  0.00  0.00    +0.147 C 
BRANCH  38  39
ATOM     39  C   UNL     1       7.371   5.289 -11.971  0.00  0.00    +0.367 C 
ATOM     40  O   UNL     1       7.709   4.634 -13.138  0.00  0.00    -0.246 OA
ATOM     41  O   UNL     1       8.245   5.434 -11.063  0.00  0.00    -0.246 OA
ENDBRANCH  38  39
ENDBRANCH  36  38
ENDBRANCH  35  36
ENDBRANCH  33  35
ENDBRANCH  32  33
ENDBRANCH  31  32
ENDBRANCH   2  31
TORSDOF 12
ENDMDL
MODEL 2
REMARK VINA RESULT:      -8.7      3.938     10.345
REMARK  Name = 
REMARK  12 active torsions:
REMARK  status: ('A' for Active; 'I' for Inactive)
REMARK    1  A    between atoms: C_2  and  C_4
REMARK    2  A    between atoms: C_5  and  C_6
REMARK    3  A    between atoms: N_8  and  C_9
REMARK    4  A    between atoms: C_15  and  C_16
REMARK    5  A    between atoms: C_22  and  C_23
REMARK    6  A    between atoms: N_30  and  C_31
REMARK    7  A    between atoms: C_31  and  C_32
REMARK    8  A    between atoms: C_32  and  C_33
REMARK    9  A    between atoms: C_33  and  C_35
REMARK   10  A    between atoms: C_35  and  C_36
REMARK   11  A    between atoms: C_36  and  C_38
REMARK   12  A    between atoms: C_38  and  C_39
REMARK                            x       y       z     vdW  Elec       q    Type
REMARK                         _______ _______ _______ _____ _____    ______ ____
ROOT
ATOM      1  C   UNL     1       1.377   4.989 -11.058  0.00  0.00    +0.041 A 
ATOM      2  N   UNL     1       1.792   4.819  -9.779  0.00  0.00    -0.330 N 
ATOM      3  C   UNL     1       2.951   5.495  -9.595  0.00  0.00    +0.060 A 
ATOM      4  C   UNL     1       3.360   5.864 -10.871  0.00  0.00    +0.021 A 
ATOM      5  C   UNL     1       2.285   5.783 -11.751  0.00  0.00    +0.068 A 
ENDROOT
BRANCH   3   6
ATOM      6  C   UNL     1       3.467   6.113  -8.366  0.00  0.00    +0.016 A 
ATOM      7  C   UNL     1       4.443   5.492  -7.592  0.00  0.00    +0.004 A 
ATOM      8  C   UNL     1       4.562   5.678  -6.242  0.00  0.00    +0.030 A 
ATOM      9  C   UNL     1       3.717   6.580  -5.631  0.00  0.00    +0.140 A 
ATOM     10  F   UNL     1       3.471   6.476  -4.310  0.00  0.00    -0.204 F 
ATOM     11  C   UNL     1       3.124   7.534  -6.445  0.00  0.00    +0.030 A 
ATOM     12  C   UNL     1       2.818   7.160  -7.748  0.00  0.00    +0.004 A 
ENDBRANCH   3   6
BRANCH   4  13
ATOM     13  C   UNL     1       4.704   6.213 -11.277  0.00  0.00    +0.002 A 
ATOM     14  C   UNL     1       5.434   5.391 -12.128  0.00  0.00    +0.000 A 
ATOM     15  C   UNL     1       6.814   5.389 -11.988  0.00  0.00    +0.000 A 
ATOM     16  C   UNL     1       7.437   6.379 -11.258  0.00  0.00    +0.000 A 
ATOM     17  C   UNL     1       6.675   7.473 -10.905  0.00  0.00    +0.000 A 
ATOM     18  C   UNL     1       5.295   7.438 -10.992  0.00  0.00    +0.000 A 
ENDBRANCH   4  13
BRANCH   1  20
ATOM     19  C   UNL     1      -0.180   4.949 -11.629  0.00  0.00    +0.006 C 
ATOM     20  C   UNL     1       0.022   4.740 -11.638  0.00  0.00    +0.038 C 
ATOM     21  C   UNL     1       0.117   3.958 -12.940  0.00  0.00    +0.006 C 
ENDBRANCH   1  20
BRANCH   5  22
ATOM     22  C   UNL     1       1.975   6.793 -12.776  0.00  0.00    +0.270 C 
ATOM     23  N   UNL     1       2.386   6.643 -14.117  0.00  0.00    -0.175 NA
ATOM     24  O   UNL     1       1.076   7.664 -12.568  0.00  0.00    -0.268 OA
BRANCH  23  25
ATOM     25  C   UNL     1       1.534   6.981 -15.203  0.00  0.00    +0.074 A 
ATOM     26  C   UNL     1       2.021   7.938 -16.084  0.00  0.00    +0.017 A 
ATOM     27  C   UNL     1       1.146   8.430 -17.043  0.00  0.00    +0.001 A 
ATOM     28  C   UNL     1      -0.227   8.273 -16.899  0.00  0.00    +0.000 A 
ATOM     29  C   UNL     1      -0.633   7.244 -16.078  0.00  0.00    +0.001 A 
ATOM     30  C   UNL     1       0.281   6.459 -15.386  0.00  0.00    +0.017 A 
ENDBRANCH  23  25
ENDBRANCH   5  22
BRANCH   2  31
ATOM     31  C   UNL     1       0.948   4.352  -8.690  0.00  0.00    +0.108 C 
BRANCH  31  32
ATOM     32  C   UNL     1       0.071   5.450  -8.155  0.00  0.00    +0.057 C 
BRANCH  32  33
ATOM     33  C   UNL     1      -0.450   4.880  -6.695  0.00  0.00    +0.156 C 
ATOM     34  O   UNL     1       0.950   4.425  -6.313  0.00  0.00    -0.223 OA
BRANCH  33  35
ATOM     35  C   UNL     1      -0.232   6.351  -5.972  0.00  0.00    +0.066 C 
BRANCH  35  36
ATOM     36  C   UNL     1      -1.720   6.353  -5.254  0.00  0.00    +0.166 C 
ATOM     37  O   UNL     1      -1.572   7.805  -4.826  0.00  0.00    -0.222 OA
BRANCH  36  38
ATOM     38  C   UNL     1      -1.105   5.814  -3.819  0.00  0.00    +0.147 C 
BRANCH  38  39
ATOM     39  C   UNL     1      -2.349   5.342  -3.154  0.00  0.00    +0.367 C 
ATOM     40  O   UNL     1      -2.360   4.956  -1.829  0.00  0.00    -0.246 OA
ATOM     41  O   UNL     1      -3.339   5.058  -3.895  0.00  0.00    -0.246 OA
ENDBRANCH  38  39
ENDBRANCH  36  38
ENDBRANCH  35  36
ENDBRANCH  33  35
ENDBRANCH  32  33
ENDBRANCH  31  32
ENDBRANCH   2  31
TORSDOF 12
ENDMDL
MODEL 3
REMARK VINA RESULT:      -8.6      2.305      3.268
REMARK  Name = 
REMARK  12 active torsions:
REMARK  status: ('A' for Active; 'I' for Inactive)
REMARK    1  A    between atoms: C_2  and  C_4
REMARK    2  A    between atoms: C_5  and  C_6
REMARK    3  A    between atoms: N_8  and  C_9
REMARK    4  A    between atoms: C_15  and  C_16
REMARK    5  A    between atoms: C_22  and  C_23
REMARK    6  A    between atoms: N_30  and  C_31
REMARK    7  A    between atoms: C_31  and  C_32
REMARK    8  A    between atoms: C_32  and  C_33
REMARK    9  A    between atoms: C_33  and  C_35
REMARK   10  A    between atoms: C_35  and  C_36
REMARK   11  A    between atoms: C_36  and  C_38
REMARK   12  A    between atoms: C_38  and  C_39
REMARK                            x       y       z     vdW  Elec       q    Type
REMARK                         _______ _______ _______ _____ _____    ______ ____
ROOT
ATOM      1  C   UNL     1       3.295   5.266  -3.612  0.00  0.00    +0.041 A 
ATOM      2  N   UNL     1       2.379   5.183  -4.608  0.00  0.00    -0.330 N 
ATOM      3  C   UNL     1       1.181   5.613  -4.145  0.00  0.00    +0.060 A 
ATOM      4  C   UNL     1       1.341   5.711  -2.768  0.00  0.00    +0.021 A 
ATOM      5  C   UNL     1       2.696   5.747  -2.453  0.00  0.00    +0.068 A 
ENDROOT
BRANCH   3   6
ATOM      6  C   UNL     1       0.091   6.263  -4.885  0.00  0.00    +0.016 A 
ATOM      7  C   UNL     1      -0.269   7.585  -4.640  0.00  0.00    +0.004 A 
ATOM      8  C   UNL     1      -1.536   8.066  -4.834  0.00  0.00    +0.030 A 
ATOM      9  C   UNL     1      -2.483   7.216  -5.365  0.00  0.00    +0.140 A 
ATOM     10  F   UNL     1      -3.791   7.460  -5.158  0.00  0.00    -0.204 F 
ATOM     11  C   UNL     1      -2.014   6.109  -6.057  0.00  0.00    +0.030 A 
ATOM     12  C   UNL     1      -0.823   5.540  -5.621  0.00  0.00    +0.004 A 
ENDBRANCH   3   6
BRANCH   4  13
ATOM     13  C   UNL     1       0.287   5.706  -1.776  0.00  0.00    +0.002 A 
ATOM     14  C   UNL     1      -0.951   5.136  -2.046  0.00  0.00    +0.000 A 
ATOM     15  C   UNL     1      -2.058   5.675  -1.406  0.00  0.00    +0.000 A 
ATOM     16  C   UNL     1      -1.891   6.523  -0.332  0.00  0.00    +0.000 A 
ATOM     17  C   UNL     1      -0.628   6.600   0.218  0.00  0.00    +0.000 A 
ATOM     18  C   UNL     1       0.474   6.113  -0.460  0.00  0.00    +0.000 A 
ENDBRANCH   4  13
BRANCH   1  20
ATOM     19  C   UNL     1       4.921   4.999  -3.812  0.00  0.00    +0.006 C 
ATOM     20  C   UNL     1       4.786   5.238  -3.716  0.00  0.00    +0.038 C 
ATOM     21  C   UNL     1       5.324   6.562  -4.240  0.00  0.00    +0.006 C 
ENDBRANCH   1  20
BRANCH   5  22
ATOM     22  C   UNL     1       3.292   6.653  -1.459  0.00  0.00    +0.270 C 
ATOM     23  N   UNL     1       3.320   8.051  -1.646  0.00  0.00    -0.175 NA
ATOM     24  O   UNL     1       3.517   6.249  -0.276  0.00  0.00    -0.268 OA
BRANCH  23  25
ATOM     25  C   UNL     1       3.054   8.953  -0.582  0.00  0.00    +0.074 A 
ATOM     26  C   UNL     1       3.586  10.230  -0.718  0.00  0.00    +0.017 A 
ATOM     27  C   UNL     1       3.511  11.077   0.379  0.00  0.00    +0.001 A 
ATOM     28  C   UNL     1       3.273  10.571   1.651  0.00  0.00    +0.000 A 
ATOM     29  C   UNL     1       2.659   9.338   1.705  0.00  0.00    +0.001 A 
ATOM     30  C   UNL     1       2.363   8.621   0.552  0.00  0.00    +0.017 A 
ENDBRANCH  23  25
ENDBRANCH   5  22
BRANCH   2  31
ATOM     31  C   UNL     1       2.700   5.057  -6.021  0.00  0.00    +0.108 C 
BRANCH  31  32
ATOM     32  C   UNL     1       2.206   3.756  -6.591  0.00  0.00    +0.057 C 
BRANCH  32  33
ATOM     33  C   UNL     1       2.572   3.851  -8.199  0.00  0.00    +0.156 C 
ATOM     34  O   UNL     1       1.403   4.785  -8.465  0.00  0.00    -0.223 OA
BRANCH  33  35
ATOM     35  C   UNL     1       3.605   5.119  -7.954  0.00  0.00    +0.066 C 
BRANCH  35  36
ATOM     36  C   UNL     1       4.222   5.069  -9.486  0.00  0.00    +0.166 C 
ATOM     37  O   UNL     1       5.645   5.234  -8.976  0.00  0.00    -0.222 OA
BRANCH  36  38
ATOM     38  C   UNL     1       4.049   6.700  -9.682  0.00  0.00    +0.147 C 
BRANCH  38  39
ATOM     39  C   UNL     1       4.834   6.903 -10.930  0.00  0.00    +0.367 C 
ATOM     40  O   UNL     1       5.752   7.927 -11.049  0.00  0.00    -0.246 OA
ATOM     41  O   UNL     1       4.460   6.278 -11.968  0.00  0.00    -0.246 OA
ENDBRANCH  38  39
ENDBRANCH  36  38
ENDBRANCH  35  36
ENDBRANCH  33  35
ENDBRANCH  32  33
ENDBRANCH  31  32
ENDBRANCH   2  31
TORSDOF 12
ENDMDL
MODEL 4
REMARK VINA RESULT:      -8.3      4.592     10.934
REMARK  Name = 
REMARK  12 active torsions:
REMARK  status: ('A' for Active; 'I' for Inactive)
REMARK    1  A    between atoms: C_2  and  C_4
REMARK    2  A    between atoms: C_5  and  C_6
REMARK    3  A    between atoms: N_8  and  C_9
REMARK    4  A    between atoms: C_15  and  C_16
REMARK    5  A    between atoms: C_22  and  C_23
REMARK    6  A    between atoms: N_30  and  C_31
REMARK    7  A    between atoms: C_31  and  C_32
REMARK    8  A    between atoms: C_32  and  C_33
REMARK    9  A    between atoms: C_33  and  C_35
REMARK   10  A    between atoms: C_35  and  C_36
REMARK   11  A    between atoms: C_36  and  C_38
REMARK   12  A    between atoms: C_38  and  C_39
REMARK                            x       y       z     vdW  Elec       q    Type
REMARK                         _______ _______ _______ _____ _____    ______ ____
ROOT
ATOM      1  C   UNL     1       1.529   5.807 -11.946  0.00  0.00    +0.041 A 
ATOM      2  N   UNL     1       2.455   5.587 -10.980  0.00  0.00    -0.330 N 
ATOM      3  C   UNL     1       3.683   5.890 -11.465  0.00  0.00    +0.060 A 
ATOM      4  C   UNL     1       3.501   6.050 -12.833  0.00  0.00    +0.021 A 
ATOM      5  C   UNL     1       2.152   6.253 -13.107  0.00  0.00    +0.068 A 
ENDROOT
BRANCH   3   6
ATOM      6  C   UNL     1       4.859   6.386 -10.737  0.00  0.00    +0.016 A 
ATOM      7  C   UNL     1       5.428   7.622 -11.028  0.00  0.00    +0.004 A 
ATOM      8  C   UNL     1       6.754   7.901 -10.838  0.00  0.00    +0.030 A 
ATOM      9  C   UNL     1       7.550   6.932 -10.266  0.00  0.00    +0.140 A 
ATOM     10  F   UNL     1       8.882   6.956 -10.468  0.00  0.00    -0.204 F 
ATOM     11  C   UNL     1       6.907   5.942  -9.537  0.00  0.00    +0.030 A 
ATOM     12  C   UNL     1       5.642   5.555  -9.965  0.00  0.00    +0.004 A 
ENDBRANCH   3   6
BRANCH   4  13
ATOM     13  C   UNL     1       4.521   5.955 -13.854  0.00  0.00    +0.002 A 
ATOM     14  C   UNL     1       5.640   5.148 -13.679  0.00  0.00    +0.000 A 
ATOM     15  C   UNL     1       6.816   5.542 -14.301  0.00  0.00    +0.000 A 
ATOM     16  C   UNL     1       6.790   6.508 -15.284  0.00  0.00    +0.000 A 
ATOM     17  C   UNL     1       5.555   6.863 -15.783  0.00  0.00    +0.000 A 
ATOM     18  C   UNL     1       4.392   6.516 -15.119  0.00  0.00    +0.000 A 
ENDBRANCH   4  13
BRANCH   1  20
ATOM     19  C   UNL     1      -0.116   5.714 -11.757  0.00  0.00    +0.006 C 
ATOM     20  C   UNL     1       0.049   5.950 -11.801  0.00  0.00    +0.038 C 
ATOM     21  C   UNL     1      -0.306   7.175 -10.970  0.00  0.00    +0.006 C 
ENDBRANCH   1  20
BRANCH   5  22
ATOM     22  C   UNL     1       1.640   7.254 -14.058  0.00  0.00    +0.270 C 
ATOM     23  N   UNL     1       1.476   6.964 -15.428  0.00  0.00    -0.175 NA
ATOM     24  O   UNL     1       1.043   8.291 -13.636  0.00  0.00    -0.268 OA
BRANCH  23  25
ATOM     25  C   UNL     1       0.339   7.409 -16.155  0.00  0.00    +0.074 A 
ATOM     26  C   UNL     1      -0.729   6.523 -16.219  0.00  0.00    +0.017 A 
ATOM     27  C   UNL     1      -1.776   6.841 -17.073  0.00  0.00    +0.001 A 
ATOM     28  C   UNL     1      -1.606   7.776 -18.087  0.00  0.00    +0.000 A 
ATOM     29  C   UNL     1      -0.581   8.679 -17.908  0.00  0.00    +0.001 A 
ATOM     30  C   UNL     1       0.270   8.609 -16.812  0.00  0.00    +0.017 A 
ENDBRANCH  23  25
ENDBRANCH   5  22
BRANCH   2  31
ATOM     31  C   UNL     1       2.156   5.454  -9.563  0.00  0.00    +0.108 C 
BRANCH  31  32
ATOM     32  C   UNL     1       2.422   4.060  -9.066  0.00  0.00    +0.057 C 
BRANCH  32  33
ATOM     33  C   UNL     1       2.327   4.189  -7.422  0.00  0.00    +0.156 C 
ATOM     34  O   UNL     1       3.639   4.953  -7.353  0.00  0.00    -0.223 OA
BRANCH  33  35
ATOM     35  C   UNL     1       1.450   5.587  -7.518  0.00  0.00    +0.066 C 
BRANCH  35  36
ATOM     36  C   UNL     1       0.652   5.327  -6.095  0.00  0.00    +0.166 C 
ATOM     37  O   UNL     1       1.007   3.848  -6.104  0.00  0.00    -0.222 OA
BRANCH  36  38
ATOM     38  C   UNL     1      -0.778   5.040  -6.870  0.00  0.00    +0.147 C 
BRANCH  38  39
ATOM     39  C   UNL     1      -1.725   5.715  -5.942  0.00  0.00    +0.367 C 
ATOM     40  O   UNL     1      -1.597   5.606  -4.572  0.00  0.00    -0.246 OA
ATOM     41  O   UNL     1      -2.798   6.179  -6.433  0.00  0.00    -0.246 OA
ENDBRANCH  38  39
ENDBRANCH  36  38
ENDBRANCH  35  36
ENDBRANCH  33  35
ENDBRANCH  32  33
ENDBRANCH  31  32
ENDBRANCH   2  31
TORSDOF 12
ENDMDL
MODEL 5
REMARK VINA RESULT:      -8.2      3.357      9.737
REMARK  Name = 
REMARK  12 active torsions:
REMARK  status: ('A' for Active; 'I' for Inactive)
REMARK    1  A    between atoms: C_2  and  C_4
REMARK    2  A    between atoms: C_5  and  C_6
REMARK    3  A    between atoms: N_8  and  C_9
REMARK    4  A    between atoms: C_15  and  C_16
REMARK    5  A    between atoms: C_22  and  C_23
REMARK    6  A    between atoms: N_30  and  C_31
REMARK    7  A    between atoms: C_31  and  C_32
REMARK    8  A    between atoms: C_32  and  C_33
REMARK    9  A    between atoms: C_33  and  C_35
REMARK   10  A    between atoms: C_35  and  C_36
REMARK   11  A    between atoms: C_36  and  C_38
REMARK   12  A    between atoms: C_38  and  C_39
REMARK                            x       y       z     vdW  Elec       q    Type
REMARK                         _______ _______ _______ _____ _____    ______ ____
ROOT
ATOM      1  C   UNL     1       2.309   4.591  -9.224  0.00  0.00    +0.041 A 
ATOM      2  N   UNL     1       2.639   4.510  -7.912  0.00  0.00    -0.330 N 
ATOM      3  C   UNL     1       3.809   5.162  -7.708  0.00  0.00    +0.060 A 
ATOM      4  C   UNL     1       4.307   5.416  -8.980  0.00  0.00    +0.021 A 
ATOM      5  C   UNL     1       3.285   5.299  -9.917  0.00  0.00    +0.068 A 
ENDROOT
BRANCH   3   6
ATOM      6  C   UNL     1       4.272   5.859  -6.500  0.00  0.00    +0.016 A 
ATOM      7  C   UNL     1       4.978   5.195  -5.502  0.00  0.00    +0.004 A 
ATOM      8  C   UNL     1       4.948   5.569  -4.186  0.00  0.00    +0.030 A 
ATOM      9  C   UNL     1       4.239   6.701  -3.845  0.00  0.00    +0.140 A 
ATOM     10  F   UNL     1       3.799   6.859  -2.582  0.00  0.00    -0.204 F 
ATOM     11  C   UNL     1       3.980   7.608  -4.862  0.00  0.00    +0.030 A 
ATOM     12  C   UNL     1       3.783   7.096  -6.139  0.00  0.00    +0.004 A 
ENDBRANCH   3   6
BRANCH   4  13
ATOM     13  C   UNL     1       5.685   5.689  -9.327  0.00  0.00    +0.002 A 
ATOM     14  C   UNL     1       6.026   6.800 -10.090  0.00  0.00    +0.000 A 
ATOM     15  C   UNL     1       7.148   6.698 -10.902  0.00  0.00    +0.000 A 
ATOM     16  C   UNL     1       8.041   5.665 -10.722  0.00  0.00    +0.000 A 
ATOM     17  C   UNL     1       7.910   4.913  -9.573  0.00  0.00    +0.000 A 
ATOM     18  C   UNL     1       6.760   4.979  -8.807  0.00  0.00    +0.000 A 
ENDBRANCH   4  13
BRANCH   1  20
ATOM     19  C   UNL     1       0.867   4.073  -9.861  0.00  0.00    +0.006 C 
ATOM     20  C   UNL     1       0.983   4.340  -9.867  0.00  0.00    +0.038 C 
ATOM     21  C   UNL     1       0.022   5.491  -9.610  0.00  0.00    +0.006 C 
ENDBRANCH   1  20
BRANCH   5  22
ATOM     22  C   UNL     1       3.075   6.234 -11.035  0.00  0.00    +0.270 C 
ATOM     23  N   UNL     1       2.981   5.789 -12.370  0.00  0.00    -0.175 NA
ATOM     24  O   UNL     1       2.663   7.414 -10.815  0.00  0.00    -0.268 OA
BRANCH  23  25
ATOM     25  C   UNL     1       2.029   6.332 -13.274  0.00  0.00    +0.074 A 
ATOM     26  C   UNL     1       2.472   6.537 -14.575  0.00  0.00    +0.017 A 
ATOM     27  C   UNL     1       1.636   7.238 -15.434  0.00  0.00    +0.001 A 
ATOM     28  C   UNL     1       0.600   8.020 -14.936  0.00  0.00    +0.000 A 
ATOM     29  C   UNL     1       0.154   7.696 -13.673  0.00  0.00    +0.001 A 
ATOM     30  C   UNL     1       0.755   6.693 -12.923  0.00  0.00    +0.017 A 
ENDBRANCH  23  25
ENDBRANCH   5  22
BRANCH   2  31
ATOM     31  C   UNL     1       1.716   4.157  -6.846  0.00  0.00    +0.108 C 
BRANCH  31  32
ATOM     32  C   UNL     1       0.900   5.340  -6.402  0.00  0.00    +0.057 C 
BRANCH  32  33
ATOM     33  C   UNL     1       0.152   4.824  -5.022  0.00  0.00    +0.156 C 
ATOM     34  O   UNL     1       1.317   5.277  -4.157  0.00  0.00    -0.223 OA
BRANCH  33  35
ATOM     35  C   UNL     1      -0.629   6.268  -4.830  0.00  0.00    +0.066 C 
BRANCH  35  36
ATOM     36  C   UNL     1      -2.138   5.596  -4.873  0.00  0.00    +0.166 C 
ATOM     37  O   UNL     1      -2.547   6.457  -6.058  0.00  0.00    -0.222 OA
BRANCH  36  38
ATOM     38  C   UNL     1      -2.735   6.700  -3.799  0.00  0.00    +0.147 C 
BRANCH  38  39
ATOM     39  C   UNL     1      -2.720   5.893  -2.550  0.00  0.00    +0.367 C 
ATOM     40  O   UNL     1      -2.322   6.434  -1.344  0.00  0.00    -0.246 OA
ATOM     41  O   UNL     1      -2.834   4.635  -2.661  0.00  0.00    -0.246 OA
ENDBRANCH  38  39
ENDBRANCH  36  38
ENDBRANCH  35  36
ENDBRANCH  33  35
ENDBRANCH  32  33
ENDBRANCH  31  32
ENDBRANCH   2  31
TORSDOF 12
ENDMDL
MODEL 6
REMARK VINA RESULT:      -8.1      3.238      8.663
REMARK  Name = 
REMARK  12 active torsions:
REMARK  status: ('A' for Active; 'I' for Inactive)
REMARK    1  A    between atoms: C_2  and  C_4
REMARK    2  A    between atoms: C_5  and  C_6
REMARK    3  A    between atoms: N_8  and  C_9
REMARK    4  A    between atoms: C_15  and  C_16
REMARK    5  A    between atoms: C_22  and  C_23
REMARK    6  A    between atoms: N_30  and  C_31
REMARK    7  A    between atoms: C_31  and  C_32
REMARK    8  A    between atoms: C_32  and  C_33
REMARK    9  A    between atoms: C_33  and  C_35
REMARK   10  A    between atoms: C_35  and  C_36
REMARK   11  A    between atoms: C_36  and  C_38
REMARK   12  A    between atoms: C_38  and  C_39
REMARK                            x       y       z     vdW  Elec       q    Type
REMARK                         _______ _______ _______ _____ _____    ______ ____
ROOT
ATOM      1  C   UNL     1       3.337   7.078  -4.372  0.00  0.00    +0.041 A 
ATOM      2  N   UNL     1       2.773   7.155  -3.142  0.00  0.00    -0.330 N 
ATOM      3  C   UNL     1       1.467   6.808  -3.230  0.00  0.00    +0.060 A 
ATOM      4  C   UNL     1       1.194   6.772  -4.592  0.00  0.00    +0.021 A 
ATOM      5  C   UNL     1       2.385   6.686  -5.307  0.00  0.00    +0.068 A 
ENDROOT
BRANCH   3   6
ATOM      6  C   UNL     1       0.615   6.175  -2.213  0.00  0.00    +0.016 A 
ATOM      7  C   UNL     1      -0.486   5.400  -2.565  0.00  0.00    +0.004 A 
ATOM      8  C   UNL     1      -1.591   5.262  -1.770  0.00  0.00    +0.030 A 
ATOM      9  C   UNL     1      -1.582   5.865  -0.529  0.00  0.00    +0.140 A 
ATOM     10  F   UNL     1      -2.748   6.152   0.082  0.00  0.00    -0.204 F 
ATOM     11  C   UNL     1      -0.343   6.186   0.003  0.00  0.00    +0.030 A 
ATOM     12  C   UNL     1       0.659   6.552  -0.888  0.00  0.00    +0.004 A 
ENDBRANCH   3   6
BRANCH   4  13
ATOM     13  C   UNL     1      -0.108   6.879  -5.213  0.00  0.00    +0.002 A 
ATOM     14  C   UNL     1      -0.962   7.935  -4.915  0.00  0.00    +0.000 A 
ATOM     15  C   UNL     1      -2.326   7.695  -4.989  0.00  0.00    +0.000 A 
ATOM     16  C   UNL     1      -2.797   6.565  -5.622  0.00  0.00    +0.000 A 
ATOM     17  C   UNL     1      -1.894   5.845  -6.375  0.00  0.00    +0.000 A 
ATOM     18  C   UNL     1      -0.534   6.052  -6.245  0.00  0.00    +0.000 A 
ENDBRANCH   4  13
BRANCH   1  20
ATOM     19  C   UNL     1       4.951   7.266  -4.705  0.00  0.00    +0.006 C 
ATOM     20  C   UNL     1       4.787   7.026  -4.730  0.00  0.00    +0.038 C 
ATOM     21  C   UNL     1       5.425   5.731  -4.250  0.00  0.00    +0.006 C 
ENDBRANCH   1  20
BRANCH   5  22
ATOM     22  C   UNL     1       2.593   5.803  -6.466  0.00  0.00    +0.270 C 
ATOM     23  N   UNL     1       2.783   6.314  -7.767  0.00  0.00    -0.175 NA
ATOM     24  O   UNL     1       2.919   4.588  -6.296  0.00  0.00    -0.268 OA
BRANCH  23  25
ATOM     25  C   UNL     1       3.744   5.761  -8.655  0.00  0.00    +0.074 A 
ATOM     26  C   UNL     1       5.060   5.769  -8.210  0.00  0.00    +0.017 A 
ATOM     27  C   UNL     1       6.047   5.414  -9.120  0.00  0.00    +0.001 A 
ATOM     28  C   UNL     1       5.790   5.423 -10.485  0.00  0.00    +0.000 A 
ATOM     29  C   UNL     1       4.466   5.320 -10.850  0.00  0.00    +0.001 A 
ATOM     30  C   UNL     1       3.450   5.280  -9.903  0.00  0.00    +0.017 A 
ENDBRANCH  23  25
ENDBRANCH   5  22
BRANCH   2  31
ATOM     31  C   UNL     1       3.516   7.193  -1.892  0.00  0.00    +0.108 C 
BRANCH  31  32
ATOM     32  C   UNL     1       3.665   8.597  -1.375  0.00  0.00    +0.057 C 
BRANCH  32  33
ATOM     33  C   UNL     1       3.402   8.463   0.250  0.00  0.00    +0.156 C 
ATOM     34  O   UNL     1       4.745   7.785   0.466  0.00  0.00    -0.223 OA
BRANCH  33  35
ATOM     35  C   UNL     1       4.045   9.959   0.541  0.00  0.00    +0.066 C 
BRANCH  35  36
ATOM     36  C   UNL     1       2.573  10.702   0.653  0.00  0.00    +0.166 C 
ATOM     37  O   UNL     1       3.033  11.557   1.824  0.00  0.00    -0.222 OA
BRANCH  36  38
ATOM     38  C   UNL     1       1.986   9.539   1.668  0.00  0.00    +0.147 C 
BRANCH  38  39
ATOM     39  C   UNL     1       0.572   9.983   1.795  0.00  0.00    +0.367 C 
ATOM     40  O   UNL     1       0.072  10.477   2.982  0.00  0.00    -0.246 OA
ATOM     41  O   UNL     1      -0.231   9.662   0.866  0.00  0.00    -0.246 OA
ENDBRANCH  38  39
ENDBRANCH  36  38
ENDBRANCH  35  36
ENDBRANCH  33  35
ENDBRANCH  32  33
ENDBRANCH  31  32
ENDBRANCH   2  31
TORSDOF 12
ENDMDL
MODEL 7
REMARK VINA RESULT:      -8.0      1.472      2.136
REMARK  Name = 
REMARK  12 active torsions:
REMARK  status: ('A' for Active; 'I' for Inactive)
REMARK    1  A    between atoms: C_2  and  C_4
REMARK    2  A    between atoms: C_5  and  C_6
REMARK    3  A    between atoms: N_8  and  C_9
REMARK    4  A    between atoms: C_15  and  C_16
REMARK    5  A    between atoms: C_22  and  C_23
REMARK    6  A    between atoms: N_30  and  C_31
REMARK    7  A    between atoms: C_31  and  C_32
REMARK    8  A    between atoms: C_32  and  C_33
REMARK    9  A    between atoms: C_33  and  C_35
REMARK   10  A    between atoms: C_35  and  C_36
REMARK   11  A    between atoms: C_36  and  C_38
REMARK   12  A    between atoms: C_38  and  C_39
REMARK                            x       y       z     vdW  Elec       q    Type
REMARK                         _______ _______ _______ _____ _____    ______ ____
ROOT
ATOM      1  C   UNL     1       2.955   4.917  -6.497  0.00  0.00    +0.041 A 
ATOM      2  N   UNL     1       2.544   4.600  -7.750  0.00  0.00    -0.330 N 
ATOM      3  C   UNL     1       1.315   5.128  -7.960  0.00  0.00    +0.060 A 
ATOM      4  C   UNL     1       0.885   5.552  -6.709  0.00  0.00    +0.021 A 
ATOM      5  C   UNL     1       1.974   5.661  -5.850  0.00  0.00    +0.068 A 
ENDROOT
BRANCH   3   6
ATOM      6  C   UNL     1       0.717   5.584  -9.223  0.00  0.00    +0.016 A 
ATOM      7  C   UNL     1       0.135   4.692 -10.118  0.00  0.00    +0.004 A 
ATOM      8  C   UNL     1       0.080   4.911 -11.468  0.00  0.00    +0.030 A 
ATOM      9  C   UNL     1       0.563   6.107 -11.955  0.00  0.00    +0.140 A 
ATOM     10  F   UNL     1       0.953   6.195 -13.242  0.00  0.00    -0.204 F 
ATOM     11  C   UNL     1       0.662   7.156 -11.054  0.00  0.00    +0.030 A 
ATOM     12  C   UNL     1       0.965   6.840  -9.735  0.00  0.00    +0.004 A 
ENDBRANCH   3   6
BRANCH   4  13
ATOM     13  C   UNL     1      -0.484   5.784  -6.302  0.00  0.00    +0.002 A 
ATOM     14  C   UNL     1      -0.845   6.944  -5.627  0.00  0.00    +0.000 A 
ATOM     15  C   UNL     1      -1.909   6.863  -4.739  0.00  0.00    +0.000 A 
ATOM     16  C   UNL     1      -2.748   5.770  -4.762  0.00  0.00    +0.000 A 
ATOM     17  C   UNL     1      -2.640   4.917  -5.840  0.00  0.00    +0.000 A 
ATOM     18  C   UNL     1      -1.544   4.969  -6.682  0.00  0.00    +0.000 A 
ENDBRANCH   4  13
BRANCH   1  20
ATOM     19  C   UNL     1       4.526   5.079  -5.988  0.00  0.00    +0.006 C 
ATOM     20  C   UNL     1       4.337   4.865  -5.930  0.00  0.00    +0.038 C 
ATOM     21  C   UNL     1       4.322   4.361  -4.494  0.00  0.00    +0.006 C 
ENDBRANCH   1  20
BRANCH   5  22
ATOM     22  C   UNL     1       2.184   6.777  -4.914  0.00  0.00    +0.270 C 
ATOM     23  N   UNL     1       1.817   6.690  -3.555  0.00  0.00    -0.175 NA
ATOM     24  O   UNL     1       2.973   7.726  -5.214  0.00  0.00    -0.268 OA
BRANCH  23  25
ATOM     25  C   UNL     1       2.644   7.208  -2.522  0.00  0.00    +0.074 A 
ATOM     26  C   UNL     1       2.315   6.825  -1.228  0.00  0.00    +0.017 A 
ATOM     27  C   UNL     1       2.977   7.458  -0.184  0.00  0.00    +0.001 A 
ATOM     28  C   UNL     1       3.641   8.661  -0.390  0.00  0.00    +0.000 A 
ATOM     29  C   UNL     1       4.016   8.927  -1.689  0.00  0.00    +0.001 A 
ATOM     30  C   UNL     1       3.684   8.073  -2.734  0.00  0.00    +0.017 A 
ENDBRANCH  23  25
ENDBRANCH   5  22
BRANCH   2  31
ATOM     31  C   UNL     1       3.420   4.141  -8.816  0.00  0.00    +0.108 C 
BRANCH  31  32
ATOM     32  C   UNL     1       3.575   5.178  -9.894  0.00  0.00    +0.057 C 
BRANCH  32  33
ATOM     33  C   UNL     1       4.745   6.192  -9.319  0.00  0.00    +0.156 C 
ATOM     34  O   UNL     1       5.848   5.211  -9.683  0.00  0.00    -0.223 OA
BRANCH  33  35
ATOM     35  C   UNL     1       4.876   6.969 -10.773  0.00  0.00    +0.066 C 
BRANCH  35  36
ATOM     36  C   UNL     1       6.482   6.620 -10.951  0.00  0.00    +0.166 C 
ATOM     37  O   UNL     1       6.869   8.086 -10.832  0.00  0.00    -0.222 OA
BRANCH  36  38
ATOM     38  C   UNL     1       6.392   6.725 -12.597  0.00  0.00    +0.147 C 
BRANCH  38  39
ATOM     39  C   UNL     1       6.527   5.290 -12.964  0.00  0.00    +0.367 C 
ATOM     40  O   UNL     1       7.759   4.671 -13.025  0.00  0.00    -0.246 OA
ATOM     41  O   UNL     1       5.515   4.715 -13.468  0.00  0.00    -0.246 OA
ENDBRANCH  38  39
ENDBRANCH  36  38
ENDBRANCH  35  36
ENDBRANCH  33  35
ENDBRANCH  32  33
ENDBRANCH  31  32
ENDBRANCH   2  31
TORSDOF 12
ENDMDL
MODEL 8
REMARK VINA RESULT:      -7.9      3.530      9.045
REMARK  Name = 
REMARK  12 active torsions:
REMARK  status: ('A' for Active; 'I' for Inactive)
REMARK    1  A    between atoms: C_2  and  C_4
REMARK    2  A    between atoms: C_5  and  C_6
REMARK    3  A    between atoms: N_8  and  C_9
REMARK    4  A    between atoms: C_15  and  C_16
REMARK    5  A    between atoms: C_22  and  C_23
REMARK    6  A    between atoms: N_30  and  C_31
REMARK    7  A    between atoms: C_31  and  C_32
REMARK    8  A    between atoms: C_32  and  C_33
REMARK    9  A    between atoms: C_33  and  C_35
REMARK   10  A    between atoms: C_35  and  C_36
REMARK   11  A    between atoms: C_36  and  C_38
REMARK   12  A    between atoms: C_38  and  C_39
REMARK                            x       y       z     vdW  Elec       q    Type
REMARK                         _______ _______ _______ _____ _____    ______ ____
ROOT
ATOM      1  C   UNL     1      -0.574   5.053  -5.865  0.00  0.00    +0.041 A 
ATOM      2  N   UNL     1       0.104   5.053  -4.691  0.00  0.00    -0.330 N 
ATOM      3  C   UNL     1       1.423   5.234  -4.941  0.00  0.00    +0.060 A 
ATOM      4  C   UNL     1       1.554   5.082  -6.316  0.00  0.00    +0.021 A 
ATOM      5  C   UNL     1       0.311   5.223  -6.925  0.00  0.00    +0.068 A 
ENDROOT
BRANCH   3   6
ATOM      6  C   UNL     1       2.437   5.876  -4.093  0.00  0.00    +0.016 A 
ATOM      7  C   UNL     1       2.706   7.238  -4.185  0.00  0.00    +0.004 A 
ATOM      8  C   UNL     1       3.926   7.783  -3.891  0.00  0.00    +0.030 A 
ATOM      9  C   UNL     1       4.916   6.950  -3.414  0.00  0.00    +0.140 A 
ATOM     10  F   UNL     1       6.209   7.307  -3.542  0.00  0.00    -0.204 F 
ATOM     11  C   UNL     1       4.508   5.746  -2.860  0.00  0.00    +0.030 A 
ATOM     12  C   UNL     1       3.378   5.145  -3.401  0.00  0.00    +0.004 A 
ENDBRANCH   3   6
BRANCH   4  13
ATOM     13  C   UNL     1       2.766   4.756  -7.035  0.00  0.00    +0.002 A 
ATOM     14  C   UNL     1       3.997   5.267  -6.638  0.00  0.00    +0.000 A 
ATOM     15  C   UNL     1       4.951   5.474  -7.623  0.00  0.00    +0.000 A 
ATOM     16  C   UNL     1       4.790   4.913  -8.872  0.00  0.00    +0.000 A 
ATOM     17  C   UNL     1       3.804   3.960  -9.010  0.00  0.00    +0.000 A 
ATOM     18  C   UNL     1       2.822   3.807  -8.048  0.00  0.00    +0.000 A 
ENDBRANCH   4  13
BRANCH   1  20
ATOM     19  C   UNL     1      -2.228   5.034  -5.989  0.00  0.00    +0.006 C 
ATOM     20  C   UNL     1      -2.041   5.231  -6.093  0.00  0.00    +0.038 C 
ATOM     21  C   UNL     1      -2.448   6.689  -5.936  0.00  0.00    +0.006 C 
ENDBRANCH   1  20
BRANCH   5  22
ATOM     22  C   UNL     1       0.075   5.986  -8.161  0.00  0.00    +0.270 C 
ATOM     23  N   UNL     1       1.069   6.808  -8.730  0.00  0.00    -0.175 NA
ATOM     24  O   UNL     1      -0.902   5.694  -8.919  0.00  0.00    -0.268 OA
BRANCH  23  25
ATOM     25  C   UNL     1       1.288   6.855 -10.133  0.00  0.00    +0.074 A 
ATOM     26  C   UNL     1       0.174   7.129 -10.916  0.00  0.00    +0.017 A 
ATOM     27  C   UNL     1       0.307   6.996 -12.292  0.00  0.00    +0.001 A 
ATOM     28  C   UNL     1       1.358   6.268 -12.836  0.00  0.00    +0.000 A 
ATOM     29  C   UNL     1       2.466   6.116 -12.031  0.00  0.00    +0.001 A 
ATOM     30  C   UNL     1       2.495   6.604 -10.730  0.00  0.00    +0.017 A 
ENDBRANCH  23  25
ENDBRANCH   5  22
BRANCH   2  31
ATOM     31  C   UNL     1      -0.504   5.244  -3.384  0.00  0.00    +0.108 C 
BRANCH  31  32
ATOM     32  C   UNL     1      -0.866   6.683  -3.143  0.00  0.00    +0.057 C 
BRANCH  32  33
ATOM     33  C   UNL     1      -2.246   6.611  -2.239  0.00  0.00    +0.156 C 
ATOM     34  O   UNL     1      -1.748   5.392  -1.479  0.00  0.00    -0.223 OA
BRANCH  33  35
ATOM     35  C   UNL     1      -1.631   7.643  -1.103  0.00  0.00    +0.066 C 
BRANCH  35  36
ATOM     36  C   UNL     1      -0.941   6.438  -0.207  0.00  0.00    +0.166 C 
ATOM     37  O   UNL     1      -1.742   6.823   1.027  0.00  0.00    -0.222 OA
BRANCH  36  38
ATOM     38  C   UNL     1       0.319   7.404   0.247  0.00  0.00    +0.147 C 
BRANCH  38  39
ATOM     39  C   UNL     1       1.457   6.659  -0.353  0.00  0.00    +0.367 C 
ATOM     40  O   UNL     1       1.431   5.285  -0.491  0.00  0.00    -0.246 OA
ATOM     41  O   UNL     1       2.554   7.279  -0.501  0.00  0.00    -0.246 OA
ENDBRANCH  38  39
ENDBRANCH  36  38
ENDBRANCH  35  36
ENDBRANCH  33  35
ENDBRANCH  32  33
ENDBRANCH  31  32
ENDBRANCH   2  31
TORSDOF 12
ENDMDL
MODEL 9
REMARK VINA RESULT:      -7.7      5.427     11.820
REMARK  Name = 
REMARK  12 active torsions:
REMARK  status: ('A' for Active; 'I' for Inactive)
REMARK    1  A    between atoms: C_2  and  C_4
REMARK    2  A    between atoms: C_5  and  C_6
REMARK    3  A    between atoms: N_8  and  C_9
REMARK    4  A    between atoms: C_15  and  C_16
REMARK    5  A    between atoms: C_22  and  C_23
REMARK    6  A    between atoms: N_30  and  C_31
REMARK    7  A    between atoms: C_31  and  C_32
REMARK    8  A    between atoms: C_32  and  C_33
REMARK    9  A    between atoms: C_33  and  C_35
REMARK   10  A    between atoms: C_35  and  C_36
REMARK   11  A    between atoms: C_36  and  C_38
REMARK   12  A    between atoms: C_38  and  C_39
REMARK                            x       y       z     vdW  Elec       q    Type
REMARK                         _______ _______ _______ _____ _____    ______ ____
ROOT
ATOM      1  C   UNL     1       2.755   6.487 -15.057  0.00  0.00    +0.041 A 
ATOM      2  N   UNL     1       3.661   5.887 -14.247  0.00  0.00    -0.330 N 
ATOM      3  C   UNL     1       4.904   6.307 -14.584  0.00  0.00    +0.060 A 
ATOM      4  C   UNL     1       4.744   6.976 -15.791  0.00  0.00    +0.021 A 
ATOM      5  C   UNL     1       3.406   7.314 -15.967  0.00  0.00    +0.068 A 
ENDROOT
BRANCH   3   6
ATOM      6  C   UNL     1       6.087   6.452 -13.725  0.00  0.00    +0.016 A 
ATOM      7  C   UNL     1       6.991   5.408 -13.547  0.00  0.00    +0.004 A 
ATOM      8  C   UNL     1       7.739   5.248 -12.412  0.00  0.00    +0.030 A 
ATOM      9  C   UNL     1       7.643   6.207 -11.426  0.00  0.00    +0.140 A 
ATOM     10  F   UNL     1       7.970   5.895 -10.157  0.00  0.00    -0.204 F 
ATOM     11  C   UNL     1       7.161   7.451 -11.807  0.00  0.00    +0.030 A 
ATOM     12  C   UNL     1       6.210   7.484 -12.820  0.00  0.00    +0.004 A 
ENDBRANCH   3   6
BRANCH   4  13
ATOM     13  C   UNL     1       5.772   7.237 -16.774  0.00  0.00    +0.002 A 
ATOM     14  C   UNL     1       5.798   6.553 -17.985  0.00  0.00    +0.000 A 
ATOM     15  C   UNL     1       7.037   6.341 -18.573  0.00  0.00    +0.000 A 
ATOM     16  C   UNL     1       8.141   7.041 -18.134  0.00  0.00    +0.000 A 
ATOM     17  C   UNL     1       7.914   8.108 -17.291  0.00  0.00    +0.000 A 
ATOM     18  C   UNL     1       6.693   8.272 -16.663  0.00  0.00    +0.000 A 
ENDBRANCH   4  13
BRANCH   1  20
ATOM     19  C   UNL     1       1.108   6.382 -14.893  0.00  0.00    +0.006 C 
ATOM     20  C   UNL     1       1.278   6.616 -14.867  0.00  0.00    +0.038 C 
ATOM     21  C   UNL     1       0.954   7.553 -13.713  0.00  0.00    +0.006 C 
ENDBRANCH   1  20
BRANCH   5  22
ATOM     22  C   UNL     1       2.938   8.616 -16.470  0.00  0.00    +0.270 C 
ATOM     23  N   UNL     1       1.624   8.802 -16.948  0.00  0.00    -0.175 NA
ATOM     24  O   UNL     1       3.586   9.675 -16.207  0.00  0.00    -0.268 OA
BRANCH  23  25
ATOM     25  C   UNL     1       0.877   9.972 -16.643  0.00  0.00    +0.074 A 
ATOM     26  C   UNL     1       0.171  10.535 -17.699  0.00  0.00    +0.017 A 
ATOM     27  C   UNL     1      -0.415  11.777 -17.488  0.00  0.00    +0.001 A 
ATOM     28  C   UNL     1      -0.007  12.584 -16.434  0.00  0.00    +0.000 A 
ATOM     29  C   UNL     1       0.606  11.938 -15.382  0.00  0.00    +0.001 A 
ATOM     30  C   UNL     1       0.859  10.573 -15.413  0.00  0.00    +0.017 A 
ENDBRANCH  23  25
ENDBRANCH   5  22
BRANCH   2  31
ATOM     31  C   UNL     1       3.342   5.242 -12.983  0.00  0.00    +0.108 C 
BRANCH  31  32
ATOM     32  C   UNL     1       3.268   6.233 -11.855  0.00  0.00    +0.057 C 
BRANCH  32  33
ATOM     33  C   UNL     1       3.927   5.435 -10.567  0.00  0.00    +0.156 C 
ATOM     34  O   UNL     1       4.380   6.736  -9.925  0.00  0.00    -0.223 OA
BRANCH  33  35
ATOM     35  C   UNL     1       2.496   5.457  -9.740  0.00  0.00    +0.066 C 
BRANCH  35  36
ATOM     36  C   UNL     1       3.214   5.333  -8.256  0.00  0.00    +0.166 C 
ATOM     37  O   UNL     1       2.727   3.903  -8.080  0.00  0.00    -0.222 OA
BRANCH  36  38
ATOM     38  C   UNL     1       1.882   5.935  -7.486  0.00  0.00    +0.147 C 
BRANCH  38  39
ATOM     39  C   UNL     1       2.369   7.296  -7.135  0.00  0.00    +0.367 C 
ATOM     40  O   UNL     1       2.087   8.392  -7.924  0.00  0.00    -0.246 OA
ATOM     41  O   UNL     1       3.261   7.388  -6.237  0.00  0.00    -0.246 OA
ENDBRANCH  38  39
ENDBRANCH  36  38
ENDBRANCH  35  36
ENDBRANCH  33  35
ENDBRANCH  32  33
ENDBRANCH  31  32
ENDBRANCH   2  31
TORSDOF 12
ENDMDL
