MODEL 1
REMARK VINA RESULT:      -7.1      0.000      0.000
REMARK  Name = 
REMARK  7 active torsions:
REMARK  status: ('A' for Active; 'I' for Inactive)
REMARK    1  A    between atoms: C_2  and  C_3
REMARK    2  A    between atoms: C_3  and  C_4
REMARK    3  A    between atoms: C_6  and  C_7
REMARK    4  A    between atoms: N_9  and  C_10
REMARK    5  A    between atoms: C_10  and  C_11
REMARK    6  A    between atoms: C_10  and  C_14
REMARK    7  A    between atoms: C_16  and  S_17
REMARK                            x       y       z     vdW  Elec       q    Type
REMARK                         _______ _______ _______ _____ _____    ______ ____
ROOT
ATOM      1  C   UNL     1      -0.610   6.556  -0.315  0.00  0.00    +0.140 C 
ENDROOT
BRANCH   1   2
ATOM      2  C   UNL     1      -1.346   7.088  -1.775  0.00  0.00    +0.170 C 
ATOM      3  C   UNL     1      -2.641   5.989  -1.506  0.00  0.00    +0.213 C 
ATOM      4  O   UNL     1      -2.048   4.732  -2.085  0.00  0.00    -0.218 OA
ATOM      5  C   UNL     1      -3.602   6.506  -2.832  0.00  0.00    +0.218 C 
ATOM      6  O   UNL     1      -3.743   5.133  -3.469  0.00  0.00    -0.217 OA
ATOM      7  C   UNL     1      -2.470   6.978  -4.045  0.00  0.00    +0.222 C 
ATOM      8  O   UNL     1      -1.841   8.144  -3.320  0.00  0.00    -0.217 OA
ATOM      9  C   UNL     1      -1.337   5.753  -3.761  0.00  0.00    +0.195 C 
ATOM     10  O   UNL     1      -0.504   6.263  -2.683  0.00  0.00    -0.341 OA
BRANCH   9  11
ATOM     11  S   UNL     1      -0.189   6.434  -5.153  0.00  0.00    -0.108 S 
ATOM     12  C   UNL     1       0.502   4.995  -5.998  0.00  0.00    +0.072 C 
ENDBRANCH   9  11
ENDBRANCH   1   2
BRANCH   1  13
ATOM     13  C   UNL     1      -1.451   7.745   0.517  0.00  0.00    +0.102 C 
ATOM     14 CL   UNL     1       0.011   8.839   0.840  0.00  0.00    -0.113 Cl
ATOM     15  C   UNL     1      -1.461   7.010   1.907  0.00  0.00    +0.019 C 
ENDBRANCH   1  13
BRANCH   1  17
ATOM     16  C   UNL     1       1.988   6.859  -0.550  0.00  0.00    +0.256 C 
ATOM     17  N   UNL     1       0.719   7.354  -0.479  0.00  0.00    -0.202 NA
ATOM     18  O   UNL     1       2.090   5.631  -0.270  0.00  0.00    -0.272 OA
BRANCH  16  23
ATOM     19  C   UNL     1       4.598   6.079  -3.058  0.00  0.00    +0.018 C 
ATOM     20  C   UNL     1       4.675   7.646  -2.593  0.00  0.00    +0.073 C 
ATOM     21  N   UNL     1       4.078   7.680  -1.314  0.00  0.00    -0.265 NA
ATOM     22  C   UNL     1       3.708   9.020  -1.001  0.00  0.00    +0.090 C 
ATOM     23  C   UNL     1       2.783   7.036  -1.970  0.00  0.00    +0.137 C 
ATOM     24  C   UNL     1       3.575   5.590  -1.863  0.00  0.00    +0.027 C 
BRANCH  19  25
ATOM     25  C   UNL     1       3.370   6.353  -4.121  0.00  0.00    +0.001 C 
BRANCH  25  27
ATOM     26  C   UNL     1       4.209   5.988  -5.914  0.00  0.00    +0.000 C 
ATOM     27  C   UNL     1       4.043   6.677  -5.449  0.00  0.00    +0.000 C 
ENDBRANCH  25  27
ENDBRANCH  19  25
ENDBRANCH  16  23
ENDBRANCH   1  17
TORSDOF 7
ENDMDL
MODEL 2
REMARK VINA RESULT:      -6.9      4.043      6.917
REMARK  Name = 
REMARK  7 active torsions:
REMARK  status: ('A' for Active; 'I' for Inactive)
REMARK    1  A    between atoms: C_2  and  C_3
REMARK    2  A    between atoms: C_3  and  C_4
REMARK    3  A    between atoms: C_6  and  C_7
REMARK    4  A    between atoms: N_9  and  C_10
REMARK    5  A    between atoms: C_10  and  C_11
REMARK    6  A    between atoms: C_10  and  C_14
REMARK    7  A    between atoms: C_16  and  S_17
REMARK                            x       y       z     vdW  Elec       q    Type
REMARK                         _______ _______ _______ _____ _____    ______ ____
ROOT
ATOM      1  C   UNL     1       3.115   6.310  -5.916  0.00  0.00    +0.140 C 
ENDROOT
BRANCH   1   2
ATOM      2  C   UNL     1       2.895   5.303  -7.292  0.00  0.00    +0.170 C 
ATOM      3  C   UNL     1       4.090   6.213  -8.131  0.00  0.00    +0.213 C 
ATOM      4  O   UNL     1       3.247   7.352  -8.641  0.00  0.00    -0.218 OA
ATOM      5  C   UNL     1       4.129   5.218  -9.531  0.00  0.00    +0.218 C 
ATOM      6  O   UNL     1       3.854   6.336 -10.525  0.00  0.00    -0.217 OA
ATOM      7  C   UNL     1       2.517   4.633  -9.708  0.00  0.00    +0.222 C 
ATOM      8  O   UNL     1       2.439   3.813  -8.442  0.00  0.00    -0.217 OA
ATOM      9  C   UNL     1       1.726   6.054  -9.240  0.00  0.00    +0.195 C 
ATOM     10  O   UNL     1       1.669   5.984  -7.788  0.00  0.00    -0.341 OA
BRANCH   9  11
ATOM     11  S   UNL     1       0.002   5.224  -9.482  0.00  0.00    -0.108 S 
ATOM     12  C   UNL     1      -0.013   4.553 -11.159  0.00  0.00    +0.072 C 
ENDBRANCH   9  11
ENDBRANCH   1   2
BRANCH   1  13
ATOM     13  C   UNL     1       4.629   5.624  -5.683  0.00  0.00    +0.102 C 
ATOM     14 CL   UNL     1       4.104   4.413  -4.381  0.00  0.00    -0.113 Cl
ATOM     15  C   UNL     1       5.175   6.735  -4.714  0.00  0.00    +0.019 C 
ENDBRANCH   1  13
BRANCH   1  17
ATOM     16  C   UNL     1       1.688   5.792  -3.774  0.00  0.00    +0.256 C 
ATOM     17  N   UNL     1       2.348   5.407  -4.903  0.00  0.00    -0.202 NA
ATOM     18  O   UNL     1       1.884   6.993  -3.434  0.00  0.00    -0.272 OA
BRANCH  16  23
ATOM     19  C   UNL     1      -1.824   6.963  -3.797  0.00  0.00    +0.018 C 
ATOM     20  C   UNL     1      -1.512   6.061  -2.468  0.00  0.00    +0.073 C 
ATOM     21  N   UNL     1      -0.116   6.158  -2.279  0.00  0.00    -0.265 NA
ATOM     22  C   UNL     1       0.320   5.097  -1.433  0.00  0.00    +0.090 C 
ATOM     23  C   UNL     1       0.061   5.608  -3.758  0.00  0.00    +0.137 C 
ATOM     24  C   UNL     1      -0.254   7.152  -4.257  0.00  0.00    +0.027 C 
BRANCH  19  25
ATOM     25  C   UNL     1      -2.043   5.646  -4.761  0.00  0.00    +0.001 C 
BRANCH  25  27
ATOM     26  C   UNL     1      -2.541   5.638  -6.712  0.00  0.00    +0.000 C 
ATOM     27  C   UNL     1      -2.611   6.186  -6.069  0.00  0.00    +0.000 C 
ENDBRANCH  25  27
ENDBRANCH  19  25
ENDBRANCH  16  23
ENDBRANCH   1  17
TORSDOF 7
ENDMDL
MODEL 3
REMARK VINA RESULT:      -6.8      2.690      6.793
REMARK  Name = 
REMARK  7 active torsions:
REMARK  status: ('A' for Active; 'I' for Inactive)
REMARK    1  A    between atoms: C_2  and  C_3
REMARK    2  A    between atoms: C_3  and  C_4
REMARK    3  A    between atoms: C_6  and  C_7
REMARK    4  A    between atoms: N_9  and  C_10
REMARK    5  A    between atoms: C_10  and  C_11
REMARK    6  A    between atoms: C_10  and  C_14
REMARK    7  A    between atoms: C_16  and  S_17
REMARK                            x       y       z     vdW  Elec       q    Type
REMARK                         _______ _______ _______ _____ _____    ______ ____
ROOT
ATOM      1  C   UNL     1       2.889   5.996  -3.131  0.00  0.00    +0.140 C 
ENDROOT
BRANCH   1   2
ATOM      2  C   UNL     1       3.369   7.231  -2.036  0.00  0.00    +0.170 C 
ATOM      3  C   UNL     1       4.388   6.103  -1.232  0.00  0.00    +0.213 C 
ATOM      4  O   UNL     1       3.392   5.458  -0.305  0.00  0.00    -0.218 OA
ATOM      5  C   UNL     1       5.108   7.234  -0.159  0.00  0.00    +0.218 C 
ATOM      6  O   UNL     1       4.762   6.483   1.116  0.00  0.00    -0.217 OA
ATOM      7  C   UNL     1       3.871   8.393   0.161  0.00  0.00    +0.222 C 
ATOM      8  O   UNL     1       3.729   8.956  -1.233  0.00  0.00    -0.217 OA
ATOM      9  C   UNL     1       2.575   7.305   0.221  0.00  0.00    +0.195 C 
ATOM     10  O   UNL     1       2.165   7.144  -1.166  0.00  0.00    -0.341 OA
BRANCH   9  11
ATOM     11  S   UNL     1       1.332   8.740   0.562  0.00  0.00    -0.108 S 
ATOM     12  C   UNL     1       0.956   8.682   2.328  0.00  0.00    +0.072 C 
ENDBRANCH   9  11
ENDBRANCH   1   2
BRANCH   1  13
ATOM     13  C   UNL     1       4.015   6.568  -4.236  0.00  0.00    +0.102 C 
ATOM     14 CL   UNL     1       2.798   6.973  -5.575  0.00  0.00    -0.113 Cl
ATOM     15  C   UNL     1       4.452   5.159  -4.782  0.00  0.00    +0.019 C 
ENDBRANCH   1  13
BRANCH   1  17
ATOM     16  C   UNL     1       0.435   6.227  -4.036  0.00  0.00    +0.256 C 
ATOM     17  N   UNL     1       1.657   6.745  -3.724  0.00  0.00    -0.202 NA
ATOM     18  O   UNL     1       0.375   4.965  -4.004  0.00  0.00    -0.272 OA
BRANCH  16  23
ATOM     19  C   UNL     1      -2.486   5.794  -1.803  0.00  0.00    +0.018 C 
ATOM     20  C   UNL     1      -2.916   6.525  -3.203  0.00  0.00    +0.073 C 
ATOM     21  N   UNL     1      -1.932   6.135  -4.138  0.00  0.00    -0.265 NA
ATOM     22  C   UNL     1      -1.957   7.028  -5.248  0.00  0.00    +0.090 C 
ATOM     23  C   UNL     1      -0.843   6.734  -3.149  0.00  0.00    +0.137 C 
ATOM     24  C   UNL     1      -0.989   5.323  -2.302  0.00  0.00    +0.027 C 
BRANCH  19  25
ATOM     25  C   UNL     1      -1.923   7.189  -1.133  0.00  0.00    +0.001 C 
BRANCH  25  27
ATOM     26  C   UNL     1      -2.310   7.585   0.802  0.00  0.00    +0.000 C 
ATOM     27  C   UNL     1      -1.939   6.955   0.373  0.00  0.00    +0.000 C 
ENDBRANCH  25  27
ENDBRANCH  19  25
ENDBRANCH  16  23
ENDBRANCH   1  17
TORSDOF 7
ENDMDL
MODEL 4
REMARK VINA RESULT:      -6.8      9.540     12.818
REMARK  Name = 
REMARK  7 active torsions:
REMARK  status: ('A' for Active; 'I' for Inactive)
REMARK    1  A    between atoms: C_2  and  C_3
REMARK    2  A    between atoms: C_3  and  C_4
REMARK    3  A    between atoms: C_6  and  C_7
REMARK    4  A    between atoms: N_9  and  C_10
REMARK    5  A    between atoms: C_10  and  C_11
REMARK    6  A    between atoms: C_10  and  C_14
REMARK    7  A    between atoms: C_16  and  S_17
REMARK                            x       y       z     vdW  Elec       q    Type
REMARK                         _______ _______ _______ _____ _____    ______ ____
ROOT
ATOM      1  C   UNL     1       5.468   6.054 -14.552  0.00  0.00    +0.140 C 
ENDROOT
BRANCH   1   2
ATOM      2  C   UNL     1       5.984   6.755 -13.069  0.00  0.00    +0.170 C 
ATOM      3  C   UNL     1       7.481   5.922 -13.212  0.00  0.00    +0.213 C 
ATOM      4  O   UNL     1       7.102   4.589 -12.624  0.00  0.00    -0.218 OA
ATOM      5  C   UNL     1       8.229   6.650 -11.847  0.00  0.00    +0.218 C 
ATOM      6  O   UNL     1       8.586   5.347 -11.151  0.00  0.00    -0.217 OA
ATOM      7  C   UNL     1       6.945   6.923 -10.729  0.00  0.00    +0.222 C 
ATOM      8  O   UNL     1       6.156   7.926 -11.537  0.00  0.00    -0.217 OA
ATOM      9  C   UNL     1       6.091   5.494 -11.038  0.00  0.00    +0.195 C 
ATOM     10  O   UNL     1       5.253   5.806 -12.186  0.00  0.00    -0.341 OA
BRANCH   9  11
ATOM     11  S   UNL     1       4.738   5.975  -9.751  0.00  0.00    -0.108 S 
ATOM     12  C   UNL     1       4.072   4.425  -9.104  0.00  0.00    +0.072 C 
ENDBRANCH   9  11
ENDBRANCH   1   2
BRANCH   1  13
ATOM     13  C   UNL     1       6.275   7.268 -15.382  0.00  0.00    +0.102 C 
ATOM     14 CL   UNL     1       4.809   7.863 -16.348  0.00  0.00    -0.113 Cl
ATOM     15  C   UNL     1       6.885   6.340 -16.496  0.00  0.00    +0.019 C 
ENDBRANCH   1  13
BRANCH   1  17
ATOM     16  C   UNL     1       2.846   6.112 -14.424  0.00  0.00    +0.256 C 
ATOM     17  N   UNL     1       4.058   6.716 -14.588  0.00  0.00    -0.202 NA
ATOM     18  O   UNL     1       2.884   4.849 -14.426  0.00  0.00    -0.272 OA
BRANCH  16  23
ATOM     19  C   UNL     1       0.198   5.653 -11.879  0.00  0.00    +0.018 C 
ATOM     20  C   UNL     1       0.031   7.086 -12.652  0.00  0.00    +0.073 C 
ATOM     21  N   UNL     1       0.676   6.908 -13.896  0.00  0.00    -0.265 NA
ATOM     22  C   UNL     1       0.965   8.183 -14.463  0.00  0.00    +0.090 C 
ATOM     23  C   UNL     1       1.985   6.508 -13.090  0.00  0.00    +0.137 C 
ATOM     24  C   UNL     1       1.298   5.014 -12.923  0.00  0.00    +0.027 C 
BRANCH  19  25
ATOM     25  C   UNL     1       1.360   6.225 -10.862  0.00  0.00    +0.001 C 
BRANCH  25  27
ATOM     26  C   UNL     1       0.374   5.471  -9.277  0.00  0.00    +0.000 C 
ATOM     27  C   UNL     1       0.730   6.215  -9.474  0.00  0.00    +0.000 C 
ENDBRANCH  25  27
ENDBRANCH  19  25
ENDBRANCH  16  23
ENDBRANCH   1  17
TORSDOF 7
ENDMDL
MODEL 5
REMARK VINA RESULT:      -6.7      2.962      5.354
REMARK  Name = 
REMARK  7 active torsions:
REMARK  status: ('A' for Active; 'I' for Inactive)
REMARK    1  A    between atoms: C_2  and  C_3
REMARK    2  A    between atoms: C_3  and  C_4
REMARK    3  A    between atoms: C_6  and  C_7
REMARK    4  A    between atoms: N_9  and  C_10
REMARK    5  A    between atoms: C_10  and  C_11
REMARK    6  A    between atoms: C_10  and  C_14
REMARK    7  A    between atoms: C_16  and  S_17
REMARK                            x       y       z     vdW  Elec       q    Type
REMARK                         _______ _______ _______ _____ _____    ______ ____
ROOT
ATOM      1  C   UNL     1      -0.751   5.448  -5.346  0.00  0.00    +0.140 C 
ENDROOT
BRANCH   1   2
ATOM      2  C   UNL     1       0.507   6.239  -6.211  0.00  0.00    +0.170 C 
ATOM      3  C   UNL     1       0.728   4.821  -7.158  0.00  0.00    +0.213 C 
ATOM      4  O   UNL     1       1.638   4.035  -6.252  0.00  0.00    -0.218 OA
ATOM      5  C   UNL     1       1.885   5.496  -8.234  0.00  0.00    +0.218 C 
ATOM      6  O   UNL     1       2.950   4.436  -8.004  0.00  0.00    -0.217 OA
ATOM      7  C   UNL     1       2.772   6.627  -7.281  0.00  0.00    +0.222 C 
ATOM      8  O   UNL     1       1.651   7.595  -6.985  0.00  0.00    -0.217 OA
ATOM      9  C   UNL     1       2.814   5.713  -5.857  0.00  0.00    +0.195 C 
ATOM     10  O   UNL     1       1.561   6.020  -5.184  0.00  0.00    -0.341 OA
BRANCH   9  11
ATOM     11  S   UNL     1       3.799   7.100  -4.946  0.00  0.00    -0.108 S 
ATOM     12  C   UNL     1       5.116   6.274  -4.027  0.00  0.00    +0.072 C 
ENDBRANCH   9  11
ENDBRANCH   1   2
BRANCH   1  13
ATOM     13  C   UNL     1      -1.876   6.186  -6.350  0.00  0.00    +0.102 C 
ATOM     14 CL   UNL     1      -2.410   7.482  -5.137  0.00  0.00    -0.113 Cl
ATOM     15  C   UNL     1      -3.043   5.167  -6.081  0.00  0.00    +0.019 C 
ENDBRANCH   1  13
BRANCH   1  17
ATOM     16  C   UNL     1      -0.984   6.219  -2.847  0.00  0.00    +0.256 C 
ATOM     17  N   UNL     1      -0.847   6.476  -4.179  0.00  0.00    -0.202 NA
ATOM     18  O   UNL     1      -1.241   5.013  -2.569  0.00  0.00    -0.272 OA
BRANCH  16  23
ATOM     19  C   UNL     1       1.681   5.564  -0.362  0.00  0.00    +0.018 C 
ATOM     20  C   UNL     1       0.641   6.709   0.175  0.00  0.00    +0.073 C 
ATOM     21  N   UNL     1      -0.561   6.471  -0.528  0.00  0.00    -0.265 NA
ATOM     22  C   UNL     1      -1.381   7.634  -0.466  0.00  0.00    +0.090 C 
ATOM     23  C   UNL     1       0.269   6.620  -1.873  0.00  0.00    +0.137 C 
ATOM     24  C   UNL     1       0.753   5.060  -1.625  0.00  0.00    +0.027 C 
BRANCH  19  25
ATOM     25  C   UNL     1       2.527   6.629  -1.291  0.00  0.00    +0.001 C 
BRANCH  25  27
ATOM     26  C   UNL     1       4.291   6.210  -0.417  0.00  0.00    +0.000 C 
ATOM     27  C   UNL     1       3.817   6.904  -0.528  0.00  0.00    +0.000 C 
ENDBRANCH  25  27
ENDBRANCH  19  25
ENDBRANCH  16  23
ENDBRANCH   1  17
TORSDOF 7
ENDMDL
MODEL 6
REMARK VINA RESULT:      -6.7      5.884      8.481
REMARK  Name = 
REMARK  7 active torsions:
REMARK  status: ('A' for Active; 'I' for Inactive)
REMARK    1  A    between atoms: C_2  and  C_3
REMARK    2  A    between atoms: C_3  and  C_4
REMARK    3  A    between atoms: C_6  and  C_7
REMARK    4  A    between atoms: N_9  and  C_10
REMARK    5  A    between atoms: C_10  and  C_11
REMARK    6  A    between atoms: C_10  and  C_14
REMARK    7  A    between atoms: C_16  and  S_17
REMARK                            x       y       z     vdW  Elec       q    Type
REMARK                         _______ _______ _______ _____ _____    ______ ____
ROOT
ATOM      1  C   UNL     1       1.344   6.168  -9.213  0.00  0.00    +0.140 C 
ENDROOT
BRANCH   1   2
ATOM      2  C   UNL     1       1.544   5.228  -7.787  0.00  0.00    +0.170 C 
ATOM      3  C   UNL     1       0.313   6.153  -7.022  0.00  0.00    +0.213 C 
ATOM      4  O   UNL     1       1.122   7.328  -6.542  0.00  0.00    -0.218 OA
ATOM      5  C   UNL     1       0.252   5.222  -5.579  0.00  0.00    +0.218 C 
ATOM      6  O   UNL     1       0.482   6.387  -4.631  0.00  0.00    -0.217 OA
ATOM      7  C   UNL     1       1.869   4.674  -5.335  0.00  0.00    +0.222 C 
ATOM      8  O   UNL     1       1.995   3.800  -6.560  0.00  0.00    -0.217 OA
ATOM      9  C   UNL     1       2.649   6.087  -5.846  0.00  0.00    +0.195 C 
ATOM     10  O   UNL     1       2.745   5.953  -7.291  0.00  0.00    -0.341 OA
BRANCH   9  11
ATOM     11  S   UNL     1       4.379   5.300  -5.522  0.00  0.00    -0.108 S 
ATOM     12  C   UNL     1       4.463   4.957  -3.750  0.00  0.00    +0.072 C 
ENDBRANCH   9  11
ENDBRANCH   1   2
BRANCH   1  13
ATOM     13  C   UNL     1      -0.074   5.332  -9.539  0.00  0.00    +0.102 C 
ATOM     14 CL   UNL     1       0.689   4.069 -10.662  0.00  0.00    -0.113 Cl
ATOM     15  C   UNL     1      -0.595   6.306 -10.659  0.00  0.00    +0.019 C 
ENDBRANCH   1  13
BRANCH   1  17
ATOM     16  C   UNL     1       2.985   5.728 -11.215  0.00  0.00    +0.256 C 
ATOM     17  N   UNL     1       2.273   5.314 -10.128  0.00  0.00    -0.202 NA
ATOM     18  O   UNL     1       2.705   6.894 -11.614  0.00  0.00    -0.272 OA
BRANCH  16  23
ATOM     19  C   UNL     1       6.365   7.231 -11.054  0.00  0.00    +0.018 C 
ATOM     20  C   UNL     1       6.243   6.184 -12.307  0.00  0.00    +0.073 C 
ATOM     21  N   UNL     1       4.864   6.129 -12.605  0.00  0.00    -0.265 NA
ATOM     22  C   UNL     1       4.594   4.957 -13.371  0.00  0.00    +0.090 C 
ATOM     23  C   UNL     1       4.618   5.701 -11.096  0.00  0.00    +0.137 C 
ATOM     24  C   UNL     1       4.753   7.308 -10.729  0.00  0.00    +0.027 C 
BRANCH  19  25
ATOM     25  C   UNL     1       6.622   6.035  -9.952  0.00  0.00    +0.001 C 
BRANCH  25  27
ATOM     26  C   UNL     1       8.327   5.031  -9.582  0.00  0.00    +0.000 C 
ATOM     27  C   UNL     1       8.058   5.575 -10.173  0.00  0.00    +0.000 C 
ENDBRANCH  25  27
ENDBRANCH  19  25
ENDBRANCH  16  23
ENDBRANCH   1  17
TORSDOF 7
ENDMDL
MODEL 7
REMARK VINA RESULT:      -6.5      2.947      6.621
REMARK  Name = 
REMARK  7 active torsions:
REMARK  status: ('A' for Active; 'I' for Inactive)
REMARK    1  A    between atoms: C_2  and  C_3
REMARK    2  A    between atoms: C_3  and  C_4
REMARK    3  A    between atoms: C_6  and  C_7
REMARK    4  A    between atoms: N_9  and  C_10
REMARK    5  A    between atoms: C_10  and  C_11
REMARK    6  A    between atoms: C_10  and  C_14
REMARK    7  A    between atoms: C_16  and  S_17
REMARK                            x       y       z     vdW  Elec       q    Type
REMARK                         _______ _______ _______ _____ _____    ______ ____
ROOT
ATOM      1  C   UNL     1       3.283   5.928  -2.931  0.00  0.00    +0.140 C 
ENDROOT
BRANCH   1   2
ATOM      2  C   UNL     1       3.407   7.240  -1.826  0.00  0.00    +0.170 C 
ATOM      3  C   UNL     1       4.484   6.308  -0.862  0.00  0.00    +0.213 C 
ATOM      4  O   UNL     1       3.496   5.517  -0.047  0.00  0.00    -0.218 OA
ATOM      5  C   UNL     1       4.861   7.558   0.254  0.00  0.00    +0.218 C 
ATOM      6  O   UNL     1       4.481   6.775   1.501  0.00  0.00    -0.217 OA
ATOM      7  C   UNL     1       3.419   8.497   0.376  0.00  0.00    +0.222 C 
ATOM      8  O   UNL     1       3.369   9.010  -1.043  0.00  0.00    -0.217 OA
ATOM      9  C   UNL     1       2.325   7.207   0.308  0.00  0.00    +0.195 C 
ATOM     10  O   UNL     1       2.131   6.962  -1.113  0.00  0.00    -0.341 OA
BRANCH   9  11
ATOM     11  S   UNL     1       0.828   8.417   0.441  0.00  0.00    -0.108 S 
ATOM     12  C   UNL     1      -0.622   7.401   0.801  0.00  0.00    +0.072 C 
ENDBRANCH   9  11
ENDBRANCH   1   2
BRANCH   1  13
ATOM     13  C   UNL     1       4.773   6.356  -3.572  0.00  0.00    +0.102 C 
ATOM     14 CL   UNL     1       4.106   7.275  -5.038  0.00  0.00    -0.113 Cl
ATOM     15  C   UNL     1       5.047   4.990  -4.301  0.00  0.00    +0.019 C 
ENDBRANCH   1  13
BRANCH   1  17
ATOM     16  C   UNL     1       1.551   6.111  -4.895  0.00  0.00    +0.256 C 
ATOM     17  N   UNL     1       2.410   6.663  -3.992  0.00  0.00    -0.202 NA
ATOM     18  O   UNL     1       1.622   4.852  -4.986  0.00  0.00    -0.272 OA
BRANCH  16  23
ATOM     19  C   UNL     1      -1.911   5.400  -3.793  0.00  0.00    +0.018 C 
ATOM     20  C   UNL     1      -1.847   5.660  -5.407  0.00  0.00    +0.073 C 
ATOM     21  N   UNL     1      -0.518   5.357  -5.775  0.00  0.00    -0.265 NA
ATOM     22  C   UNL     1      -0.235   5.943  -7.043  0.00  0.00    +0.090 C 
ATOM     23  C   UNL     1      -0.043   6.432  -4.708  0.00  0.00    +0.137 C 
ATOM     24  C   UNL     1      -0.286   5.257  -3.571  0.00  0.00    +0.027 C 
BRANCH  19  25
ATOM     25  C   UNL     1      -1.910   7.007  -3.434  0.00  0.00    +0.001 C 
BRANCH  25  27
ATOM     26  C   UNL     1      -3.468   6.664  -2.207  0.00  0.00    +0.000 C 
ATOM     27  C   UNL     1      -2.773   7.149  -2.186  0.00  0.00    +0.000 C 
ENDBRANCH  25  27
ENDBRANCH  19  25
ENDBRANCH  16  23
ENDBRANCH   1  17
TORSDOF 7
ENDMDL
MODEL 8
REMARK VINA RESULT:      -6.4      3.384      5.156
REMARK  Name = 
REMARK  7 active torsions:
REMARK  status: ('A' for Active; 'I' for Inactive)
REMARK    1  A    between atoms: C_2  and  C_3
REMARK    2  A    between atoms: C_3  and  C_4
REMARK    3  A    between atoms: C_6  and  C_7
REMARK    4  A    between atoms: N_9  and  C_10
REMARK    5  A    between atoms: C_10  and  C_11
REMARK    6  A    between atoms: C_10  and  C_14
REMARK    7  A    between atoms: C_16  and  S_17
REMARK                            x       y       z     vdW  Elec       q    Type
REMARK                         _______ _______ _______ _____ _____    ______ ____
ROOT
ATOM      1  C   UNL     1       0.029   5.663  -5.591  0.00  0.00    +0.140 C 
ENDROOT
BRANCH   1   2
ATOM      2  C   UNL     1       1.125   6.496  -6.621  0.00  0.00    +0.170 C 
ATOM      3  C   UNL     1       0.273   5.896  -7.989  0.00  0.00    +0.213 C 
ATOM      4  O   UNL     1       0.923   4.546  -8.137  0.00  0.00    -0.218 OA
ATOM      5  C   UNL     1       1.158   6.785  -9.163  0.00  0.00    +0.218 C 
ATOM      6  O   UNL     1       1.562   5.582  -9.999  0.00  0.00    -0.217 OA
ATOM      7  C   UNL     1       2.754   6.904  -8.520  0.00  0.00    +0.222 C 
ATOM      8  O   UNL     1       2.442   7.741  -7.303  0.00  0.00    -0.217 OA
ATOM      9  C   UNL     1       2.828   5.350  -7.853  0.00  0.00    +0.195 C 
ATOM     10  O   UNL     1       2.212   5.483  -6.541  0.00  0.00    -0.341 OA
BRANCH   9  11
ATOM     11  S   UNL     1       4.613   5.671  -7.197  0.00  0.00    -0.108 S 
ATOM     12  C   UNL     1       5.736   5.286  -8.559  0.00  0.00    +0.072 C 
ENDBRANCH   9  11
ENDBRANCH   1   2
BRANCH   1  13
ATOM     13  C   UNL     1      -1.230   6.560  -6.242  0.00  0.00    +0.102 C 
ATOM     14 CL   UNL     1      -1.368   7.764  -4.838  0.00  0.00    -0.113 Cl
ATOM     15  C   UNL     1      -2.384   5.592  -5.789  0.00  0.00    +0.019 C 
ENDBRANCH   1  13
BRANCH   1  17
ATOM     16  C   UNL     1       0.587   6.146  -3.071  0.00  0.00    +0.256 C 
ATOM     17  N   UNL     1       0.252   6.550  -4.330  0.00  0.00    -0.202 NA
ATOM     18  O   UNL     1       0.528   4.897  -2.888  0.00  0.00    -0.272 OA
BRANCH  16  23
ATOM     19  C   UNL     1       4.132   5.602  -2.152  0.00  0.00    +0.018 C 
ATOM     20  C   UNL     1       3.265   6.135  -0.871  0.00  0.00    +0.073 C 
ATOM     21  N   UNL     1       1.930   5.770  -1.153  0.00  0.00    -0.265 NA
ATOM     22  C   UNL     1       1.049   6.539  -0.339  0.00  0.00    +0.090 C 
ATOM     23  C   UNL     1       2.059   6.587  -2.509  0.00  0.00    +0.137 C 
ATOM     24  C   UNL     1       2.839   5.261  -3.112  0.00  0.00    +0.027 C 
BRANCH  19  25
ATOM     25  C   UNL     1       4.314   7.113  -2.782  0.00  0.00    +0.001 C 
BRANCH  25  27
ATOM     26  C   UNL     1       5.554   7.699  -4.256  0.00  0.00    +0.000 C 
ATOM     27  C   UNL     1       5.465   7.006  -3.776  0.00  0.00    +0.000 C 
ENDBRANCH  25  27
ENDBRANCH  19  25
ENDBRANCH  16  23
ENDBRANCH   1  17
TORSDOF 7
ENDMDL
MODEL 9
REMARK VINA RESULT:      -6.4      7.453     10.461
REMARK  Name = 
REMARK  7 active torsions:
REMARK  status: ('A' for Active; 'I' for Inactive)
REMARK    1  A    between atoms: C_2  and  C_3
REMARK    2  A    between atoms: C_3  and  C_4
REMARK    3  A    between atoms: C_6  and  C_7
REMARK    4  A    between atoms: N_9  and  C_10
REMARK    5  A    between atoms: C_10  and  C_11
REMARK    6  A    between atoms: C_10  and  C_14
REMARK    7  A    between atoms: C_16  and  S_17
REMARK                            x       y       z     vdW  Elec       q    Type
REMARK                         _______ _______ _______ _____ _____    ______ ____
ROOT
ATOM      1  C   UNL     1       2.187   5.516 -12.406  0.00  0.00    +0.140 C 
ENDROOT
BRANCH   1   2
ATOM      2  C   UNL     1       3.686   6.335 -12.207  0.00  0.00    +0.170 C 
ATOM      3  C   UNL     1       4.241   5.646 -13.682  0.00  0.00    +0.213 C 
ATOM      4  O   UNL     1       4.731   4.312 -13.184  0.00  0.00    -0.218 OA
ATOM      5  C   UNL     1       5.726   6.508 -13.740  0.00  0.00    +0.218 C 
ATOM      6  O   UNL     1       6.615   5.280 -13.863  0.00  0.00    -0.217 OA
ATOM      7  C   UNL     1       6.191   6.707 -12.091  0.00  0.00    +0.222 C 
ATOM      8  O   UNL     1       5.049   7.589 -11.644  0.00  0.00    -0.217 OA
ATOM      9  C   UNL     1       5.679   5.189 -11.545  0.00  0.00    +0.195 C 
ATOM     10  O   UNL     1       4.266   5.362 -11.243  0.00  0.00    -0.341 OA
BRANCH   9  11
ATOM     11  S   UNL     1       6.252   5.596  -9.748  0.00  0.00    -0.108 S 
ATOM     12  C   UNL     1       7.794   6.524  -9.900  0.00  0.00    +0.072 C 
ENDBRANCH   9  11
ENDBRANCH   1   2
BRANCH   1  13
ATOM     13  C   UNL     1       1.697   6.716 -13.472  0.00  0.00    +0.102 C 
ATOM     14 CL   UNL     1       0.295   7.347 -12.437  0.00  0.00    -0.113 Cl
ATOM     15  C   UNL     1       0.850   5.780 -14.409  0.00  0.00    +0.019 C 
ENDBRANCH   1  13
BRANCH   1  17
ATOM     16  C   UNL     1       0.934   5.417 -10.100  0.00  0.00    +0.256 C 
ATOM     17  N   UNL     1       1.489   6.102 -11.141  0.00  0.00    -0.202 NA
ATOM     18  O   UNL     1       0.825   4.173 -10.288  0.00  0.00    -0.272 OA
BRANCH  16  23
ATOM     19  C   UNL     1       2.701   4.182  -7.090  0.00  0.00    +0.018 C 
ATOM     20  C   UNL     1       1.296   4.921  -6.689  0.00  0.00    +0.073 C 
ATOM     21  N   UNL     1       0.491   4.831  -7.846  0.00  0.00    -0.265 NA
ATOM     22  C   UNL     1      -0.561   5.789  -7.764  0.00  0.00    +0.090 C 
ATOM     23  C   UNL     1       1.656   5.563  -8.638  0.00  0.00    +0.137 C 
ATOM     24  C   UNL     1       2.396   4.086  -8.705  0.00  0.00    +0.027 C 
BRANCH  19  25
ATOM     25  C   UNL     1       3.520   5.603  -7.238  0.00  0.00    +0.001 C 
BRANCH  25  27
ATOM     26  C   UNL     1       4.451   6.362  -5.622  0.00  0.00    +0.000 C 
ATOM     27  C   UNL     1       4.492   5.640  -6.064  0.00  0.00    +0.000 C 
ENDBRANCH  25  27
ENDBRANCH  19  25
ENDBRANCH  16  23
ENDBRANCH   1  17
TORSDOF 7
ENDMDL
