MODEL 1
REMARK VINA RESULT:      -6.8      0.000      0.000
REMARK  Name = 
REMARK  3 active torsions:
REMARK  status: ('A' for Active; 'I' for Inactive)
REMARK    1  A    between atoms: C_2  and  N_3
REMARK    2  A    between atoms: N_3  and  C_4
REMARK    3  A    between atoms: C_13  and  S_14
REMARK                            x       y       z     vdW  Elec       q    Type
REMARK                         _______ _______ _______ _____ _____    ______ ____
ROOT
ATOM      1  C   UNL     1       0.020   6.527  -4.953  0.00  0.00    +0.098 C 
ATOM      2  C   UNL     1       0.767   5.652  -3.808  0.00  0.00    +0.019 A 
ATOM      3  C   UNL     1      -0.229   5.494  -2.839  0.00  0.00    +0.134 A 
ATOM      4  S   UNL     1       0.731   5.000  -1.510  0.00  0.00    -0.049 S 
ATOM      5  C   UNL     1       2.274   5.487  -2.095  0.00  0.00    +0.155 A 
ATOM      6  S   UNL     1      -1.868   5.989  -3.021  0.00  0.00    +0.012 S 
ATOM      7  O   UNL     1      -2.200   7.334  -2.543  0.00  0.00    -0.168 OA
ATOM      8  O   UNL     1      -2.729   5.000  -2.269  0.00  0.00    -0.168 OA
ATOM      9  C   UNL     1      -2.406   5.757  -4.788  0.00  0.00    +0.136 C 
ATOM     10  C   UNL     1      -2.287   7.281  -5.250  0.00  0.00    +0.026 C 
ATOM     11  C   UNL     1       1.862   6.249  -3.182  0.00  0.00    +0.026 A 
ATOM     12  C   UNL     1      -0.992   5.288  -5.348  0.00  0.00    +0.046 C 
ENDROOT
BRANCH   5  13
ATOM     13  S   UNL     1       3.733   5.782  -1.146  0.00  0.00    +0.099 S 
ATOM     14  O   UNL     1       4.660   6.621  -1.957  0.00  0.00    -0.150 OA
ATOM     15  O   UNL     1       4.389   4.484  -0.751  0.00  0.00    -0.150 OA
ATOM     16  N   UNL     1       3.273   6.594   0.306  0.00  0.00    +0.040 NA
ENDBRANCH   5  13
BRANCH   1  17
ATOM     17  N   UNL     1       0.979   6.154  -6.141  0.00  0.00    -0.215 NA
BRANCH  17  19
ATOM     18  C   UNL     1       2.563   7.246  -6.873  0.00  0.00    +0.020 C 
ATOM     19  C   UNL     1       1.442   7.252  -6.836  0.00  0.00    +0.089 C 
ENDBRANCH  17  19
ENDBRANCH   1  17
TORSDOF 3
ENDMDL
MODEL 2
REMARK VINA RESULT:      -6.8      2.877      5.968
REMARK  Name = 
REMARK  3 active torsions:
REMARK  status: ('A' for Active; 'I' for Inactive)
REMARK    1  A    between atoms: C_2  and  N_3
REMARK    2  A    between atoms: N_3  and  C_4
REMARK    3  A    between atoms: C_13  and  S_14
REMARK                            x       y       z     vdW  Elec       q    Type
REMARK                         _______ _______ _______ _____ _____    ______ ____
ROOT
ATOM      1  C   UNL     1       3.229   6.407  -2.654  0.00  0.00    +0.098 C 
ATOM      2  C   UNL     1       1.955   5.566  -3.204  0.00  0.00    +0.019 A 
ATOM      3  C   UNL     1       2.171   5.542  -4.586  0.00  0.00    +0.134 A 
ATOM      4  S   UNL     1       0.611   5.078  -5.119  0.00  0.00    -0.049 S 
ATOM      5  C   UNL     1      -0.277   5.420  -3.686  0.00  0.00    +0.155 A 
ATOM      6  S   UNL     1       3.586   6.131  -5.371  0.00  0.00    +0.012 S 
ATOM      7  O   UNL     1       3.549   7.525  -5.822  0.00  0.00    -0.168 OA
ATOM      8  O   UNL     1       3.834   5.256  -6.579  0.00  0.00    -0.168 OA
ATOM      9  C   UNL     1       5.080   5.814  -4.307  0.00  0.00    +0.136 C 
ATOM     10  C   UNL     1       5.244   7.290  -3.722  0.00  0.00    +0.026 C 
ATOM     11  C   UNL     1       0.697   6.130  -2.992  0.00  0.00    +0.026 A 
ATOM     12  C   UNL     1       4.290   5.214  -3.062  0.00  0.00    +0.046 C 
ENDROOT
BRANCH   5  13
ATOM     13  S   UNL     1      -2.017   5.682  -3.542  0.00  0.00    +0.099 S 
ATOM     14  O   UNL     1      -2.555   4.727  -2.533  0.00  0.00    -0.150 OA
ATOM     15  O   UNL     1      -2.700   5.500  -4.874  0.00  0.00    -0.150 OA
ATOM     16  N   UNL     1      -2.273   7.316  -3.047  0.00  0.00    +0.040 NA
ENDBRANCH   5  13
BRANCH   1  17
ATOM     17  N   UNL     1       3.181   5.889  -1.171  0.00  0.00    -0.215 NA
BRANCH  17  19
ATOM     18  C   UNL     1       4.284   7.028   0.142  0.00  0.00    +0.020 C 
ATOM     19  C   UNL     1       4.356   6.097  -0.480  0.00  0.00    +0.089 C 
ENDBRANCH  17  19
ENDBRANCH   1  17
TORSDOF 3
ENDMDL
MODEL 3
REMARK VINA RESULT:      -6.8      7.519      8.697
REMARK  Name = 
REMARK  3 active torsions:
REMARK  status: ('A' for Active; 'I' for Inactive)
REMARK    1  A    between atoms: C_2  and  N_3
REMARK    2  A    between atoms: N_3  and  C_4
REMARK    3  A    between atoms: C_13  and  S_14
REMARK                            x       y       z     vdW  Elec       q    Type
REMARK                         _______ _______ _______ _____ _____    ______ ____
ROOT
ATOM      1  C   UNL     1       1.814   6.397 -12.289  0.00  0.00    +0.098 C 
ATOM      2  C   UNL     1       3.096   5.576 -11.727  0.00  0.00    +0.019 A 
ATOM      3  C   UNL     1       2.852   5.524 -10.350  0.00  0.00    +0.134 A 
ATOM      4  S   UNL     1       4.411   5.087  -9.792  0.00  0.00    -0.049 S 
ATOM      5  C   UNL     1       5.320   5.473 -11.201  0.00  0.00    +0.155 A 
ATOM      6  S   UNL     1       1.408   6.067  -9.585  0.00  0.00    +0.012 S 
ATOM      7  O   UNL     1       1.403   7.453  -9.110  0.00  0.00    -0.168 OA
ATOM      8  O   UNL     1       1.155   5.166  -8.397  0.00  0.00    -0.168 OA
ATOM      9  C   UNL     1      -0.056   5.733 -10.685  0.00  0.00    +0.136 C 
ATOM     10  C   UNL     1      -0.242   7.216 -11.248  0.00  0.00    +0.026 C 
ATOM     11  C   UNL     1       4.345   6.173 -11.902  0.00  0.00    +0.026 A 
ATOM     12  C   UNL     1       0.774   5.173 -11.924  0.00  0.00    +0.046 C 
ENDROOT
BRANCH   5  13
ATOM     13  S   UNL     1       7.056   5.778 -11.303  0.00  0.00    +0.099 S 
ATOM     14  O   UNL     1       7.662   5.500  -9.970  0.00  0.00    -0.150 OA
ATOM     15  O   UNL     1       7.329   7.196 -11.734  0.00  0.00    -0.150 OA
ATOM     16  N   UNL     1       7.712   4.733 -12.510  0.00  0.00    +0.040 NA
ENDBRANCH   5  13
BRANCH   1  17
ATOM     17  N   UNL     1       1.905   5.906 -13.779  0.00  0.00    -0.215 NA
BRANCH  17  19
ATOM     18  C   UNL     1       1.016   7.376 -14.915  0.00  0.00    +0.020 C 
ATOM     19  C   UNL     1       0.847   6.325 -14.559  0.00  0.00    +0.089 C 
ENDBRANCH  17  19
ENDBRANCH   1  17
TORSDOF 3
ENDMDL
MODEL 4
REMARK VINA RESULT:      -6.7      3.685      5.462
REMARK  Name = 
REMARK  3 active torsions:
REMARK  status: ('A' for Active; 'I' for Inactive)
REMARK    1  A    between atoms: C_2  and  N_3
REMARK    2  A    between atoms: N_3  and  C_4
REMARK    3  A    between atoms: C_13  and  S_14
REMARK                            x       y       z     vdW  Elec       q    Type
REMARK                         _______ _______ _______ _____ _____    ______ ____
ROOT
ATOM      1  C   UNL     1       2.554   5.239  -6.255  0.00  0.00    +0.098 C 
ATOM      2  C   UNL     1       0.992   4.988  -5.893  0.00  0.00    +0.019 A 
ATOM      3  C   UNL     1       0.330   5.450  -7.035  0.00  0.00    +0.134 A 
ATOM      4  S   UNL     1      -1.260   5.594  -6.415  0.00  0.00    -0.049 S 
ATOM      5  C   UNL     1      -0.898   5.550  -4.733  0.00  0.00    +0.155 A 
ATOM      6  S   UNL     1       1.107   5.958  -8.485  0.00  0.00    +0.012 S 
ATOM      7  O   UNL     1       1.413   7.387  -8.595  0.00  0.00    -0.168 OA
ATOM      8  O   UNL     1       0.206   5.584  -9.641  0.00  0.00    -0.168 OA
ATOM      9  C   UNL     1       2.626   4.925  -8.785  0.00  0.00    +0.136 C 
ATOM     10  C   UNL     1       3.708   5.983  -8.278  0.00  0.00    +0.026 C 
ATOM     11  C   UNL     1       0.482   5.697  -4.805  0.00  0.00    +0.026 A 
ATOM     12  C   UNL     1       2.545   4.088  -7.433  0.00  0.00    +0.046 C 
ENDROOT
BRANCH   5  13
ATOM     13  S   UNL     1      -1.911   6.124  -3.406  0.00  0.00    +0.099 S 
ATOM     14  O   UNL     1      -2.846   7.155  -3.940  0.00  0.00    -0.150 OA
ATOM     15  O   UNL     1      -1.068   6.687  -2.291  0.00  0.00    -0.150 OA
ATOM     16  N   UNL     1      -2.777   4.773  -2.771  0.00  0.00    +0.040 NA
ENDBRANCH   5  13
BRANCH   1  17
ATOM     17  N   UNL     1       3.160   4.216  -5.227  0.00  0.00    -0.215 NA
BRANCH  17  19
ATOM     18  C   UNL     1       4.750   5.402  -4.675  0.00  0.00    +0.020 C 
ATOM     19  C   UNL     1       3.902   4.816  -4.231  0.00  0.00    +0.089 C 
ENDBRANCH  17  19
ENDBRANCH   1  17
TORSDOF 3
ENDMDL
MODEL 5
REMARK VINA RESULT:      -6.7      5.375      7.379
REMARK  Name = 
REMARK  3 active torsions:
REMARK  status: ('A' for Active; 'I' for Inactive)
REMARK    1  A    between atoms: C_2  and  N_3
REMARK    2  A    between atoms: N_3  and  C_4
REMARK    3  A    between atoms: C_13  and  S_14
REMARK                            x       y       z     vdW  Elec       q    Type
REMARK                         _______ _______ _______ _____ _____    ______ ____
ROOT
ATOM      1  C   UNL     1       0.336   5.780  -6.620  0.00  0.00    +0.098 C 
ATOM      2  C   UNL     1       0.959   5.240  -8.019  0.00  0.00    +0.019 A 
ATOM      3  C   UNL     1       2.329   5.474  -7.860  0.00  0.00    +0.134 A 
ATOM      4  S   UNL     1       2.841   5.333  -9.487  0.00  0.00    -0.049 S 
ATOM      5  C   UNL     1       1.314   5.483 -10.265  0.00  0.00    +0.155 A 
ATOM      6  S   UNL     1       3.071   6.026  -6.408  0.00  0.00    +0.012 S 
ATOM      7  O   UNL     1       3.232   7.476  -6.268  0.00  0.00    -0.168 OA
ATOM      8  O   UNL     1       4.443   5.395  -6.328  0.00  0.00    -0.168 OA
ATOM      9  C   UNL     1       2.190   5.308  -4.933  0.00  0.00    +0.136 C 
ATOM     10  C   UNL     1       1.336   6.600  -4.545  0.00  0.00    +0.026 C 
ATOM     11  C   UNL     1       0.558   5.905  -9.178  0.00  0.00    +0.026 A 
ATOM     12  C   UNL     1       1.041   4.571  -5.751  0.00  0.00    +0.046 C 
ENDROOT
BRANCH   5  13
ATOM     13  S   UNL     1       1.009   5.929 -11.946  0.00  0.00    +0.099 S 
ATOM     14  O   UNL     1       0.433   4.749 -12.650  0.00  0.00    -0.150 OA
ATOM     15  O   UNL     1       2.277   6.391 -12.618  0.00  0.00    -0.150 OA
ATOM     16  N   UNL     1      -0.096   7.255 -11.955  0.00  0.00    +0.040 NA
ENDBRANCH   5  13
BRANCH   1  17
ATOM     17  N   UNL     1      -1.014   4.978  -6.685  0.00  0.00    -0.215 NA
BRANCH  17  19
ATOM     18  C   UNL     1      -2.373   5.804  -5.377  0.00  0.00    +0.020 C 
ATOM     19  C   UNL     1      -2.128   5.764  -6.471  0.00  0.00    +0.089 C 
ENDBRANCH  17  19
ENDBRANCH   1  17
TORSDOF 3
ENDMDL
MODEL 6
REMARK VINA RESULT:      -6.6      6.018      7.783
REMARK  Name = 
REMARK  3 active torsions:
REMARK  status: ('A' for Active; 'I' for Inactive)
REMARK    1  A    between atoms: C_2  and  N_3
REMARK    2  A    between atoms: N_3  and  C_4
REMARK    3  A    between atoms: C_13  and  S_14
REMARK                            x       y       z     vdW  Elec       q    Type
REMARK                         _______ _______ _______ _____ _____    ______ ____
ROOT
ATOM      1  C   UNL     1       2.150   5.440  -8.813  0.00  0.00    +0.098 C 
ATOM      2  C   UNL     1       3.677   5.105  -9.247  0.00  0.00    +0.019 A 
ATOM      3  C   UNL     1       4.412   5.494  -8.121  0.00  0.00    +0.134 A 
ATOM      4  S   UNL     1       5.981   5.559  -8.804  0.00  0.00    -0.049 S 
ATOM      5  C   UNL     1       5.550   5.583 -10.469  0.00  0.00    +0.155 A 
ATOM      6  S   UNL     1       3.727   6.008  -6.628  0.00  0.00    +0.012 S 
ATOM      7  O   UNL     1       3.513   7.449  -6.469  0.00  0.00    -0.168 OA
ATOM      8  O   UNL     1       4.649   5.548  -5.521  0.00  0.00    -0.168 OA
ATOM      9  C   UNL     1       2.160   5.061  -6.290  0.00  0.00    +0.136 C 
ATOM     10  C   UNL     1       1.126   6.197  -6.725  0.00  0.00    +0.026 C 
ATOM     11  C   UNL     1       4.186   5.812 -10.336  0.00  0.00    +0.026 A 
ATOM     12  C   UNL     1       2.135   4.259  -7.665  0.00  0.00    +0.046 C 
ENDROOT
BRANCH   5  13
ATOM     13  S   UNL     1       6.543   6.132 -11.823  0.00  0.00    +0.099 S 
ATOM     14  O   UNL     1       7.493   7.165 -11.321  0.00  0.00    -0.150 OA
ATOM     15  O   UNL     1       5.683   6.684 -12.931  0.00  0.00    -0.150 OA
ATOM     16  N   UNL     1       7.389   4.766 -12.453  0.00  0.00    +0.040 NA
ENDBRANCH   5  13
BRANCH   1  17
ATOM     17  N   UNL     1       1.440   4.485  -9.840  0.00  0.00    -0.215 NA
BRANCH  17  19
ATOM     18  C   UNL     1       0.145   5.966 -10.445  0.00  0.00    +0.020 C 
ATOM     19  C   UNL     1       0.158   4.881 -10.160  0.00  0.00    +0.089 C 
ENDBRANCH  17  19
ENDBRANCH   1  17
TORSDOF 3
ENDMDL
MODEL 7
REMARK VINA RESULT:      -6.5      2.801      4.125
REMARK  Name = 
REMARK  3 active torsions:
REMARK  status: ('A' for Active; 'I' for Inactive)
REMARK    1  A    between atoms: C_2  and  N_3
REMARK    2  A    between atoms: N_3  and  C_4
REMARK    3  A    between atoms: C_13  and  S_14
REMARK                            x       y       z     vdW  Elec       q    Type
REMARK                         _______ _______ _______ _____ _____    ______ ____
ROOT
ATOM      1  C   UNL     1       0.710   6.271  -5.720  0.00  0.00    +0.098 C 
ATOM      2  C   UNL     1       1.950   6.326  -4.674  0.00  0.00    +0.019 A 
ATOM      3  C   UNL     1       2.949   5.608  -5.338  0.00  0.00    +0.134 A 
ATOM      4  S   UNL     1       4.014   5.310  -4.031  0.00  0.00    -0.049 S 
ATOM      5  C   UNL     1       2.944   5.652  -2.727  0.00  0.00    +0.155 A 
ATOM      6  S   UNL     1       2.833   5.023  -6.953  0.00  0.00    +0.012 S 
ATOM      7  O   UNL     1       2.325   3.658  -7.117  0.00  0.00    -0.168 OA
ATOM      8  O   UNL     1       4.216   5.082  -7.560  0.00  0.00    -0.168 OA
ATOM      9  C   UNL     1       1.864   6.224  -7.994  0.00  0.00    +0.136 C 
ATOM     10  C   UNL     1       0.479   5.430  -8.004  0.00  0.00    +0.026 C 
ATOM     11  C   UNL     1       1.751   5.711  -3.437  0.00  0.00    +0.026 A 
ATOM     12  C   UNL     1       1.490   7.224  -6.813  0.00  0.00    +0.046 C 
ENDROOT
BRANCH   5  13
ATOM     13  S   UNL     1       3.100   5.125  -1.049  0.00  0.00    +0.099 S 
ATOM     14  O   UNL     1       4.395   4.402  -0.902  0.00  0.00    -0.150 OA
ATOM     15  O   UNL     1       1.943   4.244  -0.653  0.00  0.00    -0.150 OA
ATOM     16  N   UNL     1       3.055   6.526  -0.042  0.00  0.00    +0.040 NA
ENDBRANCH   5  13
BRANCH   1  17
ATOM     17  N   UNL     1      -0.074   7.512  -5.161  0.00  0.00    -0.215 NA
BRANCH  17  19
ATOM     18  C   UNL     1      -1.917   8.157  -4.505  0.00  0.00    +0.020 C 
ATOM     19  C   UNL     1      -1.371   7.220  -4.792  0.00  0.00    +0.089 C 
ENDBRANCH  17  19
ENDBRANCH   1  17
TORSDOF 3
ENDMDL
MODEL 8
REMARK VINA RESULT:      -6.4      8.379     11.033
REMARK  Name = 
REMARK  3 active torsions:
REMARK  status: ('A' for Active; 'I' for Inactive)
REMARK    1  A    between atoms: C_2  and  N_3
REMARK    2  A    between atoms: N_3  and  C_4
REMARK    3  A    between atoms: C_13  and  S_14
REMARK                            x       y       z     vdW  Elec       q    Type
REMARK                         _______ _______ _______ _____ _____    ______ ____
ROOT
ATOM      1  C   UNL     1       5.182   6.634 -10.347  0.00  0.00    +0.098 C 
ATOM      2  C   UNL     1       4.309   5.732 -11.375  0.00  0.00    +0.019 A 
ATOM      3  C   UNL     1       5.245   5.386 -12.356  0.00  0.00    +0.134 A 
ATOM      4  S   UNL     1       4.189   4.863 -13.598  0.00  0.00    -0.049 S 
ATOM      5  C   UNL     1       2.725   5.553 -13.015  0.00  0.00    +0.155 A 
ATOM      6  S   UNL     1       6.930   5.733 -12.274  0.00  0.00    +0.012 S 
ATOM      7  O   UNL     1       7.367   6.987 -12.893  0.00  0.00    -0.168 OA
ATOM      8  O   UNL     1       7.662   4.597 -12.953  0.00  0.00    -0.168 OA
ATOM      9  C   UNL     1       7.516   5.619 -10.511  0.00  0.00    +0.136 C 
ATOM     10  C   UNL     1       7.560   7.184 -10.199  0.00  0.00    +0.026 C 
ATOM     11  C   UNL     1       3.251   6.371 -12.022  0.00  0.00    +0.026 A 
ATOM     12  C   UNL     1       6.087   5.345  -9.864  0.00  0.00    +0.046 C 
ENDROOT
BRANCH   5  13
ATOM     13  S   UNL     1       1.262   5.897 -13.942  0.00  0.00    +0.099 S 
ATOM     14  O   UNL     1       0.366   6.748 -13.108  0.00  0.00    -0.150 OA
ATOM     15  O   UNL     1       0.568   4.621 -14.347  0.00  0.00    -0.150 OA
ATOM     16  N   UNL     1       1.725   6.718 -15.388  0.00  0.00    +0.040 NA
ENDBRANCH   5  13
BRANCH   1  17
ATOM     17  N   UNL     1       4.242   6.471  -9.097  0.00  0.00    -0.215 NA
BRANCH  17  19
ATOM     18  C   UNL     1       3.397   5.082  -7.834  0.00  0.00    +0.020 C 
ATOM     19  C   UNL     1       4.212   5.186  -8.598  0.00  0.00    +0.089 C 
ENDBRANCH  17  19
ENDBRANCH   1  17
TORSDOF 3
ENDMDL
MODEL 9
REMARK VINA RESULT:      -6.2      3.090      5.554
REMARK  Name = 
REMARK  3 active torsions:
REMARK  status: ('A' for Active; 'I' for Inactive)
REMARK    1  A    between atoms: C_2  and  N_3
REMARK    2  A    between atoms: N_3  and  C_4
REMARK    3  A    between atoms: C_13  and  S_14
REMARK                            x       y       z     vdW  Elec       q    Type
REMARK                         _______ _______ _______ _____ _____    ______ ____
ROOT
ATOM      1  C   UNL     1       1.073   5.547  -7.923  0.00  0.00    +0.098 C 
ATOM      2  C   UNL     1       0.401   6.296  -6.650  0.00  0.00    +0.019 A 
ATOM      3  C   UNL     1       1.505   6.588  -5.842  0.00  0.00    +0.134 A 
ATOM      4  S   UNL     1       0.707   6.929  -4.366  0.00  0.00    -0.049 S 
ATOM      5  C   UNL     1      -0.824   6.230  -4.720  0.00  0.00    +0.155 A 
ATOM      6  S   UNL     1       3.148   6.335  -6.292  0.00  0.00    +0.012 S 
ATOM      7  O   UNL     1       3.737   5.048  -5.913  0.00  0.00    -0.168 OA
ATOM      8  O   UNL     1       3.970   7.431  -5.653  0.00  0.00    -0.168 OA
ATOM      9  C   UNL     1       3.363   6.656  -8.113  0.00  0.00    +0.136 C 
ATOM     10  C   UNL     1       3.387   5.134  -8.597  0.00  0.00    +0.026 C 
ATOM     11  C   UNL     1      -0.487   5.544  -5.880  0.00  0.00    +0.026 A 
ATOM     12  C   UNL     1       1.826   6.921  -8.432  0.00  0.00    +0.046 C 
ENDROOT
BRANCH   5  13
ATOM     13  S   UNL     1      -2.060   5.721  -3.565  0.00  0.00    +0.099 S 
ATOM     14  O   UNL     1      -1.432   4.794  -2.582  0.00  0.00    -0.150 OA
ATOM     15  O   UNL     1      -3.215   5.057  -4.271  0.00  0.00    -0.150 OA
ATOM     16  N   UNL     1      -2.673   7.132  -2.781  0.00  0.00    +0.040 NA
ENDBRANCH   5  13
BRANCH   1  17
ATOM     17  N   UNL     1      -0.104   5.788  -8.936  0.00  0.00    -0.215 NA
BRANCH  17  19
ATOM     18  C   UNL     1       0.122   4.508 -10.533  0.00  0.00    +0.020 C 
ATOM     19  C   UNL     1       0.257   5.586 -10.253  0.00  0.00    +0.089 C 
ENDBRANCH  17  19
ENDBRANCH   1  17
TORSDOF 3
ENDMDL
