MODEL 1
REMARK VINA RESULT:      -5.1      0.000      0.000
REMARK  Name = 
REMARK  5 active torsions:
REMARK  status: ('A' for Active; 'I' for Inactive)
REMARK    1  A    between atoms: C_2  and  C_3
REMARK    2  A    between atoms: C_3  and  C_4
REMARK    3  A    between atoms: C_4  and  C_5
REMARK    4  A    between atoms: C_5  and  C_7
REMARK    5  A    between atoms: C_5  and  C_10
REMARK                            x       y       z     vdW  Elec       q    Type
REMARK                         _______ _______ _______ _____ _____    ______ ____
ROOT
ATOM      1  C   UNL     1       7.038   6.153 -11.229  0.00  0.00    +0.231 C 
ATOM      2  N   UNL     1       6.995   7.484 -11.773  0.00  0.00    -0.117 NA
ENDROOT
BRANCH   1   3
ATOM      3  C   UNL     1       7.400   6.187  -9.775  0.00  0.00    +0.345 C 
ATOM      4  F   UNL     1       8.026   5.059  -9.324  0.00  0.00    -0.196 F 
ATOM      5  F   UNL     1       8.181   7.318  -9.562  0.00  0.00    -0.196 F 
ENDBRANCH   1   3
BRANCH   1   6
ATOM      6  C   UNL     1       7.977   5.352 -12.049  0.00  0.00    +0.385 C 
ATOM      7  O   UNL     1       7.511   4.610 -13.139  0.00  0.00    -0.244 OA
ATOM      8  O   UNL     1       9.148   5.823 -12.167  0.00  0.00    -0.244 OA
ENDBRANCH   1   6
BRANCH   1   9
ATOM      9  C   UNL     1       5.658   5.539 -11.357  0.00  0.00    +0.036 C 
BRANCH   9  10
ATOM     10  C   UNL     1       4.870   5.949 -10.142  0.00  0.00    +0.023 C 
BRANCH  10  12
ATOM     11  N   UNL     1       3.761   4.106  -8.964  0.00  0.00    -0.131 NA
ATOM     12  C   UNL     1       3.611   5.132  -9.974  0.00  0.00    +0.109 C 
ENDBRANCH  10  12
ENDBRANCH   9  10
ENDBRANCH   1   9
TORSDOF 5
ENDMDL
MODEL 2
REMARK VINA RESULT:      -4.9      1.533      2.018
REMARK  Name = 
REMARK  5 active torsions:
REMARK  status: ('A' for Active; 'I' for Inactive)
REMARK    1  A    between atoms: C_2  and  C_3
REMARK    2  A    between atoms: C_3  and  C_4
REMARK    3  A    between atoms: C_4  and  C_5
REMARK    4  A    between atoms: C_5  and  C_7
REMARK    5  A    between atoms: C_5  and  C_10
REMARK                            x       y       z     vdW  Elec       q    Type
REMARK                         _______ _______ _______ _____ _____    ______ ____
ROOT
ATOM      1  C   UNL     1       6.426   6.145 -11.218  0.00  0.00    +0.231 C 
ATOM      2  N   UNL     1       6.080   7.482 -11.624  0.00  0.00    -0.117 NA
ENDROOT
BRANCH   1   3
ATOM      3  C   UNL     1       7.602   6.162 -10.289  0.00  0.00    +0.345 C 
ATOM      4  F   UNL     1       8.002   7.412  -9.908  0.00  0.00    -0.196 F 
ATOM      5  F   UNL     1       7.280   5.376  -9.188  0.00  0.00    -0.196 F 
ENDBRANCH   1   3
BRANCH   1   6
ATOM      6  C   UNL     1       6.655   5.339 -12.439  0.00  0.00    +0.385 C 
ATOM      7  O   UNL     1       7.800   4.546 -12.562  0.00  0.00    -0.244 OA
ATOM      8  O   UNL     1       5.615   4.890 -13.008  0.00  0.00    -0.244 OA
ENDBRANCH   1   6
BRANCH   1   9
ATOM      9  C   UNL     1       5.247   5.551 -10.474  0.00  0.00    +0.036 C 
BRANCH   9  10
ATOM     10  C   UNL     1       4.202   6.628 -10.354  0.00  0.00    +0.023 C 
BRANCH  10  12
ATOM     11  N   UNL     1       2.567   6.273 -12.146  0.00  0.00    -0.131 NA
ATOM     12  C   UNL     1       2.826   6.134 -10.730  0.00  0.00    +0.109 C 
ENDBRANCH  10  12
ENDBRANCH   9  10
ENDBRANCH   1   9
TORSDOF 5
ENDMDL
MODEL 3
REMARK VINA RESULT:      -4.9      1.756      2.311
REMARK  Name = 
REMARK  5 active torsions:
REMARK  status: ('A' for Active; 'I' for Inactive)
REMARK    1  A    between atoms: C_2  and  C_3
REMARK    2  A    between atoms: C_3  and  C_4
REMARK    3  A    between atoms: C_4  and  C_5
REMARK    4  A    between atoms: C_5  and  C_7
REMARK    5  A    between atoms: C_5  and  C_10
REMARK                            x       y       z     vdW  Elec       q    Type
REMARK                         _______ _______ _______ _____ _____    ______ ____
ROOT
ATOM      1  C   UNL     1       6.174   6.332 -11.414  0.00  0.00    +0.231 C 
ATOM      2  N   UNL     1       4.783   6.669 -11.561  0.00  0.00    -0.117 NA
ENDROOT
BRANCH   1   3
ATOM      3  C   UNL     1       7.020   7.569 -11.397  0.00  0.00    +0.345 C 
ATOM      4  F   UNL     1       6.322   8.732 -11.568  0.00  0.00    -0.196 F 
ATOM      5  F   UNL     1       7.729   7.577 -10.200  0.00  0.00    -0.196 F 
ENDBRANCH   1   3
BRANCH   1   6
ATOM      6  C   UNL     1       6.536   5.391 -12.500  0.00  0.00    +0.385 C 
ATOM      7  O   UNL     1       7.694   4.613 -12.408  0.00  0.00    -0.244 OA
ATOM      8  O   UNL     1       5.564   4.854 -13.112  0.00  0.00    -0.244 OA
ENDBRANCH   1   6
BRANCH   1   9
ATOM      9  C   UNL     1       6.357   5.618 -10.090  0.00  0.00    +0.036 C 
BRANCH   9  10
ATOM     10  C   UNL     1       4.988   5.411  -9.499  0.00  0.00    +0.023 C 
BRANCH  10  12
ATOM     11  N   UNL     1       3.729   5.580  -7.402  0.00  0.00    -0.131 NA
ATOM     12  C   UNL     1       5.023   5.316  -7.993  0.00  0.00    +0.109 C 
ENDBRANCH  10  12
ENDBRANCH   9  10
ENDBRANCH   1   9
TORSDOF 5
ENDMDL
MODEL 4
REMARK VINA RESULT:      -4.9      9.916     11.370
REMARK  Name = 
REMARK  5 active torsions:
REMARK  status: ('A' for Active; 'I' for Inactive)
REMARK    1  A    between atoms: C_2  and  C_3
REMARK    2  A    between atoms: C_3  and  C_4
REMARK    3  A    between atoms: C_4  and  C_5
REMARK    4  A    between atoms: C_5  and  C_7
REMARK    5  A    between atoms: C_5  and  C_10
REMARK                            x       y       z     vdW  Elec       q    Type
REMARK                         _______ _______ _______ _____ _____    ______ ____
ROOT
ATOM      1  C   UNL     1      -2.058   6.612  -3.931  0.00  0.00    +0.231 C 
ATOM      2  N   UNL     1      -2.047   7.950  -3.401  0.00  0.00    -0.117 NA
ENDROOT
BRANCH   1   3
ATOM      3  C   UNL     1      -2.284   6.632  -5.412  0.00  0.00    +0.345 C 
ATOM      4  F   UNL     1      -2.783   5.467  -5.922  0.00  0.00    -0.196 F 
ATOM      5  F   UNL     1      -3.119   7.707  -5.696  0.00  0.00    -0.196 F 
ENDBRANCH   1   3
BRANCH   1   6
ATOM      6  C   UNL     1      -3.080   5.834  -3.192  0.00  0.00    +0.385 C 
ATOM      7  O   UNL     1      -2.751   4.607  -2.607  0.00  0.00    -0.244 OA
ATOM      8  O   UNL     1      -3.958   6.514  -2.581  0.00  0.00    -0.244 OA
ENDBRANCH   1   6
BRANCH   1   9
ATOM      9  C   UNL     1      -0.704   5.982  -3.669  0.00  0.00    +0.036 C 
BRANCH   9  10
ATOM     10  C   UNL     1       0.210   6.400  -4.788  0.00  0.00    +0.023 C 
BRANCH  10  12
ATOM     11  N   UNL     1       0.849   4.347  -5.966  0.00  0.00    -0.131 NA
ATOM     12  C   UNL     1       1.291   5.380  -5.056  0.00  0.00    +0.109 C 
ENDBRANCH  10  12
ENDBRANCH   9  10
ENDBRANCH   1   9
TORSDOF 5
ENDMDL
MODEL 5
REMARK VINA RESULT:      -4.7      1.893      2.306
REMARK  Name = 
REMARK  5 active torsions:
REMARK  status: ('A' for Active; 'I' for Inactive)
REMARK    1  A    between atoms: C_2  and  C_3
REMARK    2  A    between atoms: C_3  and  C_4
REMARK    3  A    between atoms: C_4  and  C_5
REMARK    4  A    between atoms: C_5  and  C_7
REMARK    5  A    between atoms: C_5  and  C_10
REMARK                            x       y       z     vdW  Elec       q    Type
REMARK                         _______ _______ _______ _____ _____    ______ ____
ROOT
ATOM      1  C   UNL     1       7.098   6.050 -10.992  0.00  0.00    +0.231 C 
ATOM      2  N   UNL     1       7.030   7.441 -11.354  0.00  0.00    -0.117 NA
ENDROOT
BRANCH   1   3
ATOM      3  C   UNL     1       7.415   5.897  -9.536  0.00  0.00    +0.345 C 
ATOM      4  F   UNL     1       6.320   5.738  -8.734  0.00  0.00    -0.196 F 
ATOM      5  F   UNL     1       8.295   4.827  -9.407  0.00  0.00    -0.196 F 
ENDBRANCH   1   3
BRANCH   1   6
ATOM      6  C   UNL     1       8.085   5.392 -11.880  0.00  0.00    +0.385 C 
ATOM      7  O   UNL     1       7.662   4.519 -12.886  0.00  0.00    -0.244 OA
ATOM      8  O   UNL     1       9.128   6.064 -12.141  0.00  0.00    -0.244 OA
ENDBRANCH   1   6
BRANCH   1   9
ATOM      9  C   UNL     1       5.741   5.423 -11.248  0.00  0.00    +0.036 C 
BRANCH   9  10
ATOM     10  C   UNL     1       4.930   6.414 -12.038  0.00  0.00    +0.023 C 
BRANCH  10  12
ATOM     11  N   UNL     1       5.165   6.280 -14.475  0.00  0.00    -0.131 NA
ATOM     12  C   UNL     1       4.409   5.827 -13.328  0.00  0.00    +0.109 C 
ENDBRANCH  10  12
ENDBRANCH   9  10
ENDBRANCH   1   9
TORSDOF 5
ENDMDL
MODEL 6
REMARK VINA RESULT:      -4.7     10.784     11.935
REMARK  Name = 
REMARK  5 active torsions:
REMARK  status: ('A' for Active; 'I' for Inactive)
REMARK    1  A    between atoms: C_2  and  C_3
REMARK    2  A    between atoms: C_3  and  C_4
REMARK    3  A    between atoms: C_4  and  C_5
REMARK    4  A    between atoms: C_5  and  C_7
REMARK    5  A    between atoms: C_5  and  C_10
REMARK                            x       y       z     vdW  Elec       q    Type
REMARK                         _______ _______ _______ _____ _____    ______ ____
ROOT
ATOM      1  C   UNL     1      -1.915   5.916  -3.303  0.00  0.00    +0.231 C 
ATOM      2  N   UNL     1      -2.617   4.943  -2.509  0.00  0.00    -0.117 NA
ENDROOT
BRANCH   1   3
ATOM      3  C   UNL     1      -2.499   5.997  -4.680  0.00  0.00    +0.345 C 
ATOM      4  F   UNL     1      -2.661   7.270  -5.150  0.00  0.00    -0.196 F 
ATOM      5  F   UNL     1      -1.690   5.246  -5.526  0.00  0.00    -0.196 F 
ENDBRANCH   1   3
BRANCH   1   6
ATOM      6  C   UNL     1      -0.476   5.561  -3.297  0.00  0.00    +0.385 C 
ATOM      7  O   UNL     1       0.486   6.492  -3.699  0.00  0.00    -0.244 OA
ATOM      8  O   UNL     1      -0.110   4.753  -2.391  0.00  0.00    -0.244 OA
ENDBRANCH   1   6
BRANCH   1   9
ATOM      9  C   UNL     1      -2.069   7.273  -2.645  0.00  0.00    +0.036 C 
BRANCH   9  10
ATOM     10  C   UNL     1      -2.351   7.034  -1.186  0.00  0.00    +0.023 C 
BRANCH  10  12
ATOM     11  N   UNL     1      -1.506   8.735   0.366  0.00  0.00    -0.131 NA
ATOM     12  C   UNL     1      -1.212   7.485  -0.302  0.00  0.00    +0.109 C 
ENDBRANCH  10  12
ENDBRANCH   9  10
ENDBRANCH   1   9
TORSDOF 5
ENDMDL
MODEL 7
REMARK VINA RESULT:      -4.5      1.955      2.395
REMARK  Name = 
REMARK  5 active torsions:
REMARK  status: ('A' for Active; 'I' for Inactive)
REMARK    1  A    between atoms: C_2  and  C_3
REMARK    2  A    between atoms: C_3  and  C_4
REMARK    3  A    between atoms: C_4  and  C_5
REMARK    4  A    between atoms: C_5  and  C_7
REMARK    5  A    between atoms: C_5  and  C_10
REMARK                            x       y       z     vdW  Elec       q    Type
REMARK                         _______ _______ _______ _____ _____    ______ ____
ROOT
ATOM      1  C   UNL     1       6.170   6.086 -11.437  0.00  0.00    +0.231 C 
ATOM      2  N   UNL     1       5.224   5.447 -12.313  0.00  0.00    -0.117 NA
ENDROOT
BRANCH   1   3
ATOM      3  C   UNL     1       6.211   7.562 -11.687  0.00  0.00    +0.345 C 
ATOM      4  F   UNL     1       7.104   8.242 -10.908  0.00  0.00    -0.196 F 
ATOM      5  F   UNL     1       6.473   7.753 -13.040  0.00  0.00    -0.196 F 
ENDBRANCH   1   3
BRANCH   1   6
ATOM      6  C   UNL     1       7.484   5.424 -11.618  0.00  0.00    +0.385 C 
ATOM      7  O   UNL     1       8.279   5.111 -10.511  0.00  0.00    -0.244 OA
ATOM      8  O   UNL     1       7.568   4.622 -12.597  0.00  0.00    -0.244 OA
ENDBRANCH   1   6
BRANCH   1   9
ATOM      9  C   UNL     1       5.723   5.862 -10.006  0.00  0.00    +0.036 C 
BRANCH   9  10
ATOM     10  C   UNL     1       4.437   5.082 -10.054  0.00  0.00    +0.023 C 
BRANCH  10  12
ATOM     11  N   UNL     1       2.377   6.405 -10.185  0.00  0.00    -0.131 NA
ATOM     12  C   UNL     1       3.324   5.765  -9.297  0.00  0.00    +0.109 C 
ENDBRANCH  10  12
ENDBRANCH   9  10
ENDBRANCH   1   9
TORSDOF 5
ENDMDL
MODEL 8
REMARK VINA RESULT:      -4.3      2.126      2.570
REMARK  Name = 
REMARK  5 active torsions:
REMARK  status: ('A' for Active; 'I' for Inactive)
REMARK    1  A    between atoms: C_2  and  C_3
REMARK    2  A    between atoms: C_3  and  C_4
REMARK    3  A    between atoms: C_4  and  C_5
REMARK    4  A    between atoms: C_5  and  C_7
REMARK    5  A    between atoms: C_5  and  C_10
REMARK                            x       y       z     vdW  Elec       q    Type
REMARK                         _______ _______ _______ _____ _____    ______ ____
ROOT
ATOM      1  C   UNL     1       7.200   6.488 -11.441  0.00  0.00    +0.231 C 
ATOM      2  N   UNL     1       7.804   7.039 -10.257  0.00  0.00    -0.117 NA
ENDROOT
BRANCH   1   3
ATOM      3  C   UNL     1       8.231   5.826 -12.303  0.00  0.00    +0.345 C 
ATOM      4  F   UNL     1       9.518   6.003 -11.879  0.00  0.00    -0.196 F 
ATOM      5  F   UNL     1       7.908   4.476 -12.385  0.00  0.00    -0.196 F 
ENDBRANCH   1   3
BRANCH   1   6
ATOM      6  C   UNL     1       6.469   7.576 -12.132  0.00  0.00    +0.385 C 
ATOM      7  O   UNL     1       6.471   8.874 -11.612  0.00  0.00    -0.244 OA
ATOM      8  O   UNL     1       6.420   7.494 -13.396  0.00  0.00    -0.244 OA
ENDBRANCH   1   6
BRANCH   1   9
ATOM      9  C   UNL     1       6.193   5.436 -11.020  0.00  0.00    +0.036 C 
BRANCH   9  10
ATOM     10  C   UNL     1       5.737   5.784  -9.628  0.00  0.00    +0.023 C 
BRANCH  10  12
ATOM     11  N   UNL     1       3.924   4.251  -9.013  0.00  0.00    -0.131 NA
ATOM     12  C   UNL     1       4.250   5.592  -9.449  0.00  0.00    +0.109 C 
ENDBRANCH  10  12
ENDBRANCH   9  10
ENDBRANCH   1   9
TORSDOF 5
ENDMDL
MODEL 9
REMARK VINA RESULT:      -4.3      7.359      8.733
REMARK  Name = 
REMARK  5 active torsions:
REMARK  status: ('A' for Active; 'I' for Inactive)
REMARK    1  A    between atoms: C_2  and  C_3
REMARK    2  A    between atoms: C_3  and  C_4
REMARK    3  A    between atoms: C_4  and  C_5
REMARK    4  A    between atoms: C_5  and  C_7
REMARK    5  A    between atoms: C_5  and  C_10
REMARK                            x       y       z     vdW  Elec       q    Type
REMARK                         _______ _______ _______ _____ _____    ______ ____
ROOT
ATOM      1  C   UNL     1       0.490   5.882  -6.179  0.00  0.00    +0.231 C 
ATOM      2  N   UNL     1       0.823   4.635  -5.543  0.00  0.00    -0.117 NA
ENDROOT
BRANCH   1   3
ATOM      3  C   UNL     1      -0.219   5.642  -7.477  0.00  0.00    +0.345 C 
ATOM      4  F   UNL     1       0.576   5.148  -8.471  0.00  0.00    -0.196 F 
ATOM      5  F   UNL     1      -1.291   4.794  -7.220  0.00  0.00    -0.196 F 
ENDBRANCH   1   3
BRANCH   1   6
ATOM      6  C   UNL     1       1.736   6.669  -6.329  0.00  0.00    +0.385 C 
ATOM      7  O   UNL     1       1.779   7.775  -7.184  0.00  0.00    -0.244 OA
ATOM      8  O   UNL     1       2.469   6.747  -5.297  0.00  0.00    -0.244 OA
ENDBRANCH   1   6
BRANCH   1   9
ATOM      9  C   UNL     1      -0.446   6.650  -5.266  0.00  0.00    +0.036 C 
BRANCH   9  10
ATOM     10  C   UNL     1      -0.814   5.735  -4.129  0.00  0.00    +0.023 C 
BRANCH  10  12
ATOM     11  N   UNL     1      -2.663   4.904  -2.749  0.00  0.00    -0.131 NA
ATOM     12  C   UNL     1      -2.309   5.588  -3.974  0.00  0.00    +0.109 C 
ENDBRANCH  10  12
ENDBRANCH   9  10
ENDBRANCH   1   9
TORSDOF 5
ENDMDL
