MODEL 1
REMARK VINA RESULT:      -4.5      0.000      0.000
REMARK  Name = 
REMARK  5 active torsions:
REMARK  status: ('A' for Active; 'I' for Inactive)
REMARK    1  A    between atoms: C_2  and  C_3
REMARK    2  A    between atoms: C_3  and  C_4
REMARK    3  A    between atoms: C_4  and  C_5
REMARK    4  A    between atoms: C_5  and  C_6
REMARK    5  A    between atoms: C_6  and  C_7
REMARK                            x       y       z     vdW  Elec       q    Type
REMARK                         _______ _______ _______ _____ _____    ______ ____
ROOT
ATOM      1  C   UNL     1       7.234   7.017 -10.375  0.00  0.00    +0.012 C 
ENDROOT
BRANCH   1   2
ATOM      2  C   UNL     1       7.144   5.677  -9.700  0.00  0.00    +0.002 C 
BRANCH   2   3
ATOM      3  C   UNL     1       5.874   5.559  -8.871  0.00  0.00    +0.021 C 
BRANCH   3   5
ATOM      4  N   UNL     1       3.914   4.226  -9.081  0.00  0.00    -0.131 NA
ATOM      5  C   UNL     1       4.721   5.207  -9.804  0.00  0.00    +0.109 C 
ENDBRANCH   3   5
ENDBRANCH   2   3
ENDBRANCH   1   2
BRANCH   1   6
ATOM      6  C   UNL     1       7.333   6.761 -11.874  0.00  0.00    +0.114 C 
BRANCH   6   7
ATOM      7  C   UNL     1       8.221   5.595 -12.167  0.00  0.00    +0.365 C 
ATOM      8  O   UNL     1       9.587   5.878 -12.248  0.00  0.00    -0.246 OA
ATOM      9  O   UNL     1       7.828   4.642 -12.907  0.00  0.00    -0.246 OA
ENDBRANCH   6   7
ENDBRANCH   1   6
TORSDOF 5
ENDMDL
MODEL 2
REMARK VINA RESULT:      -4.4      0.837      1.405
REMARK  Name = 
REMARK  5 active torsions:
REMARK  status: ('A' for Active; 'I' for Inactive)
REMARK    1  A    between atoms: C_2  and  C_3
REMARK    2  A    between atoms: C_3  and  C_4
REMARK    3  A    between atoms: C_4  and  C_5
REMARK    4  A    between atoms: C_5  and  C_6
REMARK    5  A    between atoms: C_6  and  C_7
REMARK                            x       y       z     vdW  Elec       q    Type
REMARK                         _______ _______ _______ _____ _____    ______ ____
ROOT
ATOM      1  C   UNL     1       7.708   6.977 -10.417  0.00  0.00    +0.012 C 
ENDROOT
BRANCH   1   2
ATOM      2  C   UNL     1       7.270   5.826  -9.556  0.00  0.00    +0.002 C 
BRANCH   2   3
ATOM      3  C   UNL     1       5.764   5.623  -9.625  0.00  0.00    +0.021 C 
BRANCH   3   5
ATOM      4  N   UNL     1       4.051   5.828  -7.986  0.00  0.00    -0.131 NA
ATOM      5  C   UNL     1       5.287   5.103  -8.273  0.00  0.00    +0.109 C 
ENDBRANCH   3   5
ENDBRANCH   2   3
ENDBRANCH   1   2
BRANCH   1   6
ATOM      6  C   UNL     1       7.201   6.704 -11.827  0.00  0.00    +0.114 C 
BRANCH   6   7
ATOM      7  C   UNL     1       8.164   5.858 -12.596  0.00  0.00    +0.365 C 
ATOM      8  O   UNL     1       7.718   4.575 -12.925  0.00  0.00    -0.246 OA
ATOM      9  O   UNL     1       9.416   5.957 -12.411  0.00  0.00    -0.246 OA
ENDBRANCH   6   7
ENDBRANCH   1   6
TORSDOF 5
ENDMDL
MODEL 3
REMARK VINA RESULT:      -4.4      3.063      3.822
REMARK  Name = 
REMARK  5 active torsions:
REMARK  status: ('A' for Active; 'I' for Inactive)
REMARK    1  A    between atoms: C_2  and  C_3
REMARK    2  A    between atoms: C_3  and  C_4
REMARK    3  A    between atoms: C_4  and  C_5
REMARK    4  A    between atoms: C_5  and  C_6
REMARK    5  A    between atoms: C_6  and  C_7
REMARK                            x       y       z     vdW  Elec       q    Type
REMARK                         _______ _______ _______ _____ _____    ______ ____
ROOT
ATOM      1  C   UNL     1       6.377   7.694 -11.458  0.00  0.00    +0.012 C 
ENDROOT
BRANCH   1   2
ATOM      2  C   UNL     1       7.490   7.227 -10.561  0.00  0.00    +0.002 C 
BRANCH   2   3
ATOM      3  C   UNL     1       7.962   5.833 -10.943  0.00  0.00    +0.021 C 
BRANCH   3   5
ATOM      4  N   UNL     1       7.724   4.742 -13.045  0.00  0.00    -0.131 NA
ATOM      5  C   UNL     1       8.412   5.859 -12.400  0.00  0.00    +0.109 C 
ENDBRANCH   3   5
ENDBRANCH   2   3
ENDBRANCH   1   2
BRANCH   1   6
ATOM      6  C   UNL     1       5.066   7.359 -10.758  0.00  0.00    +0.114 C 
BRANCH   6   7
ATOM      7  C   UNL     1       4.417   6.158 -11.367  0.00  0.00    +0.365 C 
ATOM      8  O   UNL     1       4.355   5.023 -10.553  0.00  0.00    -0.246 OA
ATOM      9  O   UNL     1       4.515   5.919 -12.609  0.00  0.00    -0.246 OA
ENDBRANCH   6   7
ENDBRANCH   1   6
TORSDOF 5
ENDMDL
MODEL 4
REMARK VINA RESULT:      -4.3      1.490      1.632
REMARK  Name = 
REMARK  5 active torsions:
REMARK  status: ('A' for Active; 'I' for Inactive)
REMARK    1  A    between atoms: C_2  and  C_3
REMARK    2  A    between atoms: C_3  and  C_4
REMARK    3  A    between atoms: C_4  and  C_5
REMARK    4  A    between atoms: C_5  and  C_6
REMARK    5  A    between atoms: C_6  and  C_7
REMARK                            x       y       z     vdW  Elec       q    Type
REMARK                         _______ _______ _______ _____ _____    ______ ____
ROOT
ATOM      1  C   UNL     1       7.350   6.048  -9.686  0.00  0.00    +0.012 C 
ENDROOT
BRANCH   1   2
ATOM      2  C   UNL     1       5.878   5.752  -9.624  0.00  0.00    +0.002 C 
BRANCH   2   3
ATOM      3  C   UNL     1       5.083   6.707 -10.502  0.00  0.00    +0.021 C 
BRANCH   3   5
ATOM      4  N   UNL     1       4.463   5.364 -12.367  0.00  0.00    -0.131 NA
ATOM      5  C   UNL     1       3.929   5.934 -11.132  0.00  0.00    +0.109 C 
ENDBRANCH   3   5
ENDBRANCH   2   3
ENDBRANCH   1   2
BRANCH   1   6
ATOM      6  C   UNL     1       7.651   6.542 -11.096  0.00  0.00    +0.114 C 
BRANCH   6   7
ATOM      7  C   UNL     1       8.403   5.516 -11.881  0.00  0.00    +0.365 C 
ATOM      8  O   UNL     1       9.636   5.929 -12.395  0.00  0.00    -0.246 OA
ATOM      9  O   UNL     1       7.795   4.652 -12.583  0.00  0.00    -0.246 OA
ENDBRANCH   6   7
ENDBRANCH   1   6
TORSDOF 5
ENDMDL
MODEL 5
REMARK VINA RESULT:      -4.3      9.443     10.997
REMARK  Name = 
REMARK  5 active torsions:
REMARK  status: ('A' for Active; 'I' for Inactive)
REMARK    1  A    between atoms: C_2  and  C_3
REMARK    2  A    between atoms: C_3  and  C_4
REMARK    3  A    between atoms: C_4  and  C_5
REMARK    4  A    between atoms: C_5  and  C_6
REMARK    5  A    between atoms: C_6  and  C_7
REMARK                            x       y       z     vdW  Elec       q    Type
REMARK                         _______ _______ _______ _____ _____    ______ ____
ROOT
ATOM      1  C   UNL     1      -1.888   6.979  -5.177  0.00  0.00    +0.012 C 
ENDROOT
BRANCH   1   2
ATOM      2  C   UNL     1      -2.296   5.711  -5.875  0.00  0.00    +0.002 C 
BRANCH   2   3
ATOM      3  C   UNL     1      -1.290   5.322  -6.948  0.00  0.00    +0.021 C 
BRANCH   3   5
ATOM      4  N   UNL     1       0.688   4.445  -5.959  0.00  0.00    -0.131 NA
ATOM      5  C   UNL     1       0.105   5.689  -6.456  0.00  0.00    +0.109 C 
ENDBRANCH   3   5
ENDBRANCH   2   3
ENDBRANCH   1   2
BRANCH   1   6
ATOM      6  C   UNL     1      -2.219   6.805  -3.699  0.00  0.00    +0.114 C 
BRANCH   6   7
ATOM      7  C   UNL     1      -1.884   5.427  -3.227  0.00  0.00    +0.365 C 
ATOM      8  O   UNL     1      -2.925   4.728  -2.608  0.00  0.00    -0.246 OA
ATOM      9  O   UNL     1      -0.723   5.144  -2.800  0.00  0.00    -0.246 OA
ENDBRANCH   6   7
ENDBRANCH   1   6
TORSDOF 5
ENDMDL
MODEL 6
REMARK VINA RESULT:      -4.2      3.376      4.415
REMARK  Name = 
REMARK  5 active torsions:
REMARK  status: ('A' for Active; 'I' for Inactive)
REMARK    1  A    between atoms: C_2  and  C_3
REMARK    2  A    between atoms: C_3  and  C_4
REMARK    3  A    between atoms: C_4  and  C_5
REMARK    4  A    between atoms: C_5  and  C_6
REMARK    5  A    between atoms: C_6  and  C_7
REMARK                            x       y       z     vdW  Elec       q    Type
REMARK                         _______ _______ _______ _____ _____    ______ ____
ROOT
ATOM      1  C   UNL     1       6.591   5.703  -9.388  0.00  0.00    +0.012 C 
ENDROOT
BRANCH   1   2
ATOM      2  C   UNL     1       7.690   6.487 -10.048  0.00  0.00    +0.002 C 
BRANCH   2   3
ATOM      3  C   UNL     1       7.412   6.692 -11.529  0.00  0.00    +0.021 C 
BRANCH   3   5
ATOM      4  N   UNL     1       7.775   4.682 -12.749  0.00  0.00    -0.131 NA
ATOM      5  C   UNL     1       8.448   5.908 -12.326  0.00  0.00    +0.109 C 
ENDBRANCH   3   5
ENDBRANCH   2   3
ENDBRANCH   1   2
BRANCH   1   6
ATOM      6  C   UNL     1       5.316   5.956 -10.184  0.00  0.00    +0.114 C 
BRANCH   6   7
ATOM      7  C   UNL     1       4.121   5.388  -9.488  0.00  0.00    +0.365 C 
ATOM      8  O   UNL     1       3.419   6.274  -8.666  0.00  0.00    -0.246 OA
ATOM      9  O   UNL     1       4.096   4.176  -9.113  0.00  0.00    -0.246 OA
ENDBRANCH   6   7
ENDBRANCH   1   6
TORSDOF 5
ENDMDL
MODEL 7
REMARK VINA RESULT:      -4.1      8.512      9.852
REMARK  Name = 
REMARK  5 active torsions:
REMARK  status: ('A' for Active; 'I' for Inactive)
REMARK    1  A    between atoms: C_2  and  C_3
REMARK    2  A    between atoms: C_3  and  C_4
REMARK    3  A    between atoms: C_4  and  C_5
REMARK    4  A    between atoms: C_5  and  C_6
REMARK    5  A    between atoms: C_6  and  C_7
REMARK                            x       y       z     vdW  Elec       q    Type
REMARK                         _______ _______ _______ _____ _____    ______ ____
ROOT
ATOM      1  C   UNL     1      -1.029   5.433  -6.487  0.00  0.00    +0.012 C 
ENDROOT
BRANCH   1   2
ATOM      2  C   UNL     1      -2.407   5.711  -5.957  0.00  0.00    +0.002 C 
BRANCH   2   3
ATOM      3  C   UNL     1      -2.362   6.170  -4.508  0.00  0.00    +0.021 C 
BRANCH   3   5
ATOM      4  N   UNL     1      -2.423   4.897  -2.498  0.00  0.00    -0.131 NA
ATOM      5  C   UNL     1      -3.223   5.226  -3.676  0.00  0.00    +0.109 C 
ENDBRANCH   3   5
ENDBRANCH   2   3
ENDBRANCH   1   2
BRANCH   1   6
ATOM      6  C   UNL     1      -0.037   5.901  -5.429  0.00  0.00    +0.114 C 
BRANCH   6   7
ATOM      7  C   UNL     1       1.206   5.069  -5.445  0.00  0.00    +0.365 C 
ATOM      8  O   UNL     1       1.085   3.810  -6.040  0.00  0.00    -0.246 OA
ATOM      9  O   UNL     1       2.051   5.135  -4.502  0.00  0.00    -0.246 OA
ENDBRANCH   6   7
ENDBRANCH   1   6
TORSDOF 5
ENDMDL
MODEL 8
REMARK VINA RESULT:      -3.9      8.437      9.782
REMARK  Name = 
REMARK  5 active torsions:
REMARK  status: ('A' for Active; 'I' for Inactive)
REMARK    1  A    between atoms: C_2  and  C_3
REMARK    2  A    between atoms: C_3  and  C_4
REMARK    3  A    between atoms: C_4  and  C_5
REMARK    4  A    between atoms: C_5  and  C_6
REMARK    5  A    between atoms: C_6  and  C_7
REMARK                            x       y       z     vdW  Elec       q    Type
REMARK                         _______ _______ _______ _____ _____    ______ ____
ROOT
ATOM      1  C   UNL     1      -1.095   5.673  -5.648  0.00  0.00    +0.012 C 
ENDROOT
BRANCH   1   2
ATOM      2  C   UNL     1      -2.492   5.901  -5.144  0.00  0.00    +0.002 C 
BRANCH   2   3
ATOM      3  C   UNL     1      -2.495   6.761  -3.889  0.00  0.00    +0.021 C 
BRANCH   3   5
ATOM      4  N   UNL     1      -2.712   4.876  -2.454  0.00  0.00    -0.131 NA
ATOM      5  C   UNL     1      -3.400   6.101  -2.855  0.00  0.00    +0.109 C 
ENDBRANCH   3   5
ENDBRANCH   2   3
ENDBRANCH   1   2
BRANCH   1   6
ATOM      6  C   UNL     1      -1.203   5.312  -7.125  0.00  0.00    +0.114 C 
BRANCH   6   7
ATOM      7  C   UNL     1       0.113   5.468  -7.819  0.00  0.00    +0.365 C 
ATOM      8  O   UNL     1       0.939   6.484  -7.331  0.00  0.00    -0.246 OA
ATOM      9  O   UNL     1       0.231   5.233  -9.060  0.00  0.00    -0.246 OA
ENDBRANCH   6   7
ENDBRANCH   1   6
TORSDOF 5
ENDMDL
MODEL 9
REMARK VINA RESULT:      -3.7      6.544      7.784
REMARK  Name = 
REMARK  5 active torsions:
REMARK  status: ('A' for Active; 'I' for Inactive)
REMARK    1  A    between atoms: C_2  and  C_3
REMARK    2  A    between atoms: C_3  and  C_4
REMARK    3  A    between atoms: C_4  and  C_5
REMARK    4  A    between atoms: C_5  and  C_6
REMARK    5  A    between atoms: C_6  and  C_7
REMARK                            x       y       z     vdW  Elec       q    Type
REMARK                         _______ _______ _______ _____ _____    ______ ____
ROOT
ATOM      1  C   UNL     1       0.407   6.071  -7.064  0.00  0.00    +0.012 C 
ENDROOT
BRANCH   1   2
ATOM      2  C   UNL     1      -0.823   5.254  -7.347  0.00  0.00    +0.002 C 
BRANCH   2   3
ATOM      3  C   UNL     1      -1.973   5.648  -6.433  0.00  0.00    +0.021 C 
BRANCH   3   5
ATOM      4  N   UNL     1      -2.256   7.516  -4.987  0.00  0.00    -0.131 NA
ATOM      5  C   UNL     1      -1.396   6.357  -5.212  0.00  0.00    +0.109 C 
ENDBRANCH   3   5
ENDBRANCH   2   3
ENDBRANCH   1   2
BRANCH   1   6
ATOM      6  C   UNL     1       1.214   6.132  -8.354  0.00  0.00    +0.114 C 
BRANCH   6   7
ATOM      7  C   UNL     1       2.382   7.057  -8.221  0.00  0.00    +0.365 C 
ATOM      8  O   UNL     1       2.079   8.361  -7.817  0.00  0.00    -0.246 OA
ATOM      9  O   UNL     1       3.390   6.955  -8.983  0.00  0.00    -0.246 OA
ENDBRANCH   6   7
ENDBRANCH   1   6
TORSDOF 5
ENDMDL
