MODEL 1
REMARK VINA RESULT:      -7.9      0.000      0.000
REMARK  Name = 
REMARK  13 active torsions:
REMARK  status: ('A' for Active; 'I' for Inactive)
REMARK    1  A    between atoms: O_2  and  C_3
REMARK    2  A    between atoms: N_5  and  C_6
REMARK    3  A    between atoms: C_6  and  C_7
REMARK    4  A    between atoms: C_6  and  C_63
REMARK    5  A    between atoms: C_13  and  C_14
REMARK    6  A    between atoms: C_16  and  C_17
REMARK    7  A    between atoms: C_25  and  C_26
REMARK    8  A    between atoms: C_35  and  C_36
REMARK    9  A    between atoms: C_39  and  C_40
REMARK   10  A    between atoms: C_45  and  C_47
REMARK   11  A    between atoms: C_47  and  N_48
REMARK   12  A    between atoms: C_47  and  C_53
REMARK   13  A    between atoms: C_49  and  O_51
REMARK                            x       y       z     vdW  Elec       q    Type
REMARK                         _______ _______ _______ _____ _____    ______ ____
ROOT
ATOM      1  C   UNL     1       5.437   9.867   2.502  0.00  0.00    +0.019 A 
ATOM      2  C   UNL     1       4.075  10.131   2.426  0.00  0.00    +0.003 A 
ATOM      3  C   UNL     1       3.210   9.053   2.252  0.00  0.00    +0.017 A 
ATOM      4  C   UNL     1       1.902   8.955   1.789  0.00  0.00    +0.019 A 
ATOM      5  C   UNL     1       1.851   7.897   0.886  0.00  0.00    +0.066 A 
ATOM      6  C   UNL     1       0.772   7.361   0.116  0.00  0.00    +0.050 A 
ATOM      7  C   UNL     1       0.901   6.125  -0.474  0.00  0.00    +0.142 A 
ATOM      8  C   UNL     1      -0.232   5.683  -1.154  0.00  0.00    +0.039 A 
ATOM      9  C   UNL     1      -0.837   6.680  -1.915  0.00  0.00    +0.022 A 
ATOM     10  C   UNL     1      -1.210   7.785  -1.157  0.00  0.00    +0.002 A 
ATOM     11  O   UNL     1       1.942   5.384  -0.069  0.00  0.00    -0.454 OA
ATOM     12  C   UNL     1       3.350   6.078   0.042  0.00  0.00    +0.280 C 
ATOM     13  C   UNL     1      -0.324   8.168  -0.157  0.00  0.00    +0.005 A 
ATOM     14  N   UNL     1       2.865   7.136   1.155  0.00  0.00    -0.291 N 
ATOM     15  C   UNL     1       3.760   7.823   1.907  0.00  0.00    +0.063 A 
ATOM     16  C   UNL     1       5.028   7.526   2.392  0.00  0.00    +0.017 A 
ATOM     17  C   UNL     1       5.754   8.582   2.925  0.00  0.00    +0.003 A 
ENDROOT
BRANCH  12  18
ATOM     18  C   UNL     1       3.101   7.099  -1.247  0.00  0.00    +0.040 A 
ATOM     19  C   UNL     1       3.224   6.273  -2.366  0.00  0.00    +0.001 A 
ATOM     20  C   UNL     1       3.927   6.694  -3.495  0.00  0.00    -0.000 A 
ATOM     21  C   UNL     1       3.933   8.083  -3.605  0.00  0.00    -0.000 A 
ATOM     22  C   UNL     1       4.030   8.853  -2.451  0.00  0.00    -0.000 A 
ATOM     23  C   UNL     1       4.053   8.121  -1.267  0.00  0.00    +0.001 A 
ENDBRANCH  12  18
BRANCH   9  24
ATOM     24  C   UNL     1      -1.415   6.508  -3.220  0.00  0.00    +0.102 A 
ATOM     25  N   UNL     1      -1.205   7.157  -4.393  0.00  0.00    -0.227 NA
ATOM     26  C   UNL     1      -1.011   6.170  -5.264  0.00  0.00    +0.157 A 
ATOM     27  N   UNL     1      -1.967   5.259  -4.973  0.00  0.00    -0.226 NA
ATOM     28  C   UNL     1      -2.055   5.339  -3.621  0.00  0.00    +0.119 A 
BRANCH  26  29
ATOM     29  C   UNL     1      -0.645   6.415  -6.830  0.00  0.00    +0.134 C 
ATOM     30  N   UNL     1       0.863   6.865  -6.555  0.00  0.00    -0.273 N 
ATOM     31  C   UNL     1       1.520   7.029  -7.828  0.00  0.00    +0.246 C 
ATOM     32  O   UNL     1       2.033   8.071  -8.234  0.00  0.00    -0.273 OA
ATOM     33  C   UNL     1       1.319   5.965  -5.542  0.00  0.00    +0.094 C 
ATOM     34  C   UNL     1       0.652   4.638  -5.794  0.00  0.00    +0.024 C 
ATOM     35  C   UNL     1      -0.178   4.825  -7.024  0.00  0.00    +0.029 C 
BRANCH  31  36
ATOM     36  C   UNL     1       2.193   5.641  -8.368  0.00  0.00    +0.175 C 
BRANCH  36  37
ATOM     37  N   UNL     1       2.061   6.052  -9.908  0.00  0.00    -0.161 NA
ATOM     38  C   UNL     1       0.924   5.347 -10.430  0.00  0.00    +0.422 C 
ATOM     39  O   UNL     1       0.765   4.109 -10.193  0.00  0.00    -0.225 OA
BRANCH  38  40
ATOM     40  O   UNL     1       0.283   5.922 -11.533  0.00  0.00    -0.429 OA
ATOM     41  C   UNL     1      -0.249   7.230 -11.325  0.00  0.00    +0.257 C 
ENDBRANCH  38  40
ENDBRANCH  36  37
BRANCH  36  42
ATOM     42  C   UNL     1       3.734   6.227  -8.159  0.00  0.00    +0.029 C 
ATOM     43  C   UNL     1       4.470   6.181  -9.408  0.00  0.00    +0.002 C 
ATOM     44  C   UNL     1       4.296   5.392  -7.019  0.00  0.00    +0.002 C 
ENDBRANCH  36  42
ENDBRANCH  31  36
ENDBRANCH  26  29
ENDBRANCH   9  24
BRANCH   1  48
ATOM     45  C   UNL     1       6.826  13.008   1.792  0.00  0.00    +0.157 A 
ATOM     46  N   UNL     1       7.254  12.854   3.058  0.00  0.00    -0.226 NA
ATOM     47  C   UNL     1       7.105  11.530   3.332  0.00  0.00    +0.119 A 
ATOM     48  C   UNL     1       6.448  10.905   2.279  0.00  0.00    +0.102 A 
ATOM     49  N   UNL     1       6.194  11.917   1.422  0.00  0.00    -0.227 NA
BRANCH  45  52
ATOM     50  C   UNL     1       8.339  14.069  -0.396  0.00  0.00    +0.246 C 
ATOM     51  N   UNL     1       6.958  14.246  -0.185  0.00  0.00    -0.273 N 
ATOM     52  C   UNL     1       6.377  14.491   1.279  0.00  0.00    +0.134 C 
ATOM     53  C   UNL     1       4.832  14.022   0.881  0.00  0.00    +0.029 C 
ATOM     54  C   UNL     1       4.879  13.774  -0.554  0.00  0.00    +0.024 C 
ATOM     55  C   UNL     1       5.920  14.782  -1.029  0.00  0.00    +0.094 C 
ATOM     56  O   UNL     1       8.827  13.235  -1.130  0.00  0.00    -0.273 OA
BRANCH  50  57
ATOM     57  C   UNL     1       9.296  14.843   0.672  0.00  0.00    +0.175 C 
BRANCH  57  58
ATOM     58  C   UNL     1       9.994  15.783  -0.508  0.00  0.00    +0.029 C 
ATOM     59  C   UNL     1      11.306  16.214   0.139  0.00  0.00    +0.002 C 
ATOM     60  C   UNL     1       9.108  16.936  -0.766  0.00  0.00    +0.002 C 
ENDBRANCH  57  58
BRANCH  57  62
ATOM     61  C   UNL     1      10.771  13.293   1.950  0.00  0.00    +0.422 C 
ATOM     62  N   UNL     1      10.461  13.750   0.638  0.00  0.00    -0.161 NA
ATOM     63  O   UNL     1      10.340  13.890   2.983  0.00  0.00    -0.225 OA
BRANCH  61  65
ATOM     64  C   UNL     1      11.968  11.271   1.358  0.00  0.00    +0.257 C 
ATOM     65  O   UNL     1      11.793  12.385   2.192  0.00  0.00    -0.429 OA
ENDBRANCH  61  65
ENDBRANCH  57  62
ENDBRANCH  50  57
ENDBRANCH  45  52
ENDBRANCH   1  48
TORSDOF 13
ENDMDL
MODEL 2
REMARK VINA RESULT:      -6.1      1.277      1.421
REMARK  Name = 
REMARK  13 active torsions:
REMARK  status: ('A' for Active; 'I' for Inactive)
REMARK    1  A    between atoms: O_2  and  C_3
REMARK    2  A    between atoms: N_5  and  C_6
REMARK    3  A    between atoms: C_6  and  C_7
REMARK    4  A    between atoms: C_6  and  C_63
REMARK    5  A    between atoms: C_13  and  C_14
REMARK    6  A    between atoms: C_16  and  C_17
REMARK    7  A    between atoms: C_25  and  C_26
REMARK    8  A    between atoms: C_35  and  C_36
REMARK    9  A    between atoms: C_39  and  C_40
REMARK   10  A    between atoms: C_45  and  C_47
REMARK   11  A    between atoms: C_47  and  N_48
REMARK   12  A    between atoms: C_47  and  C_53
REMARK   13  A    between atoms: C_49  and  O_51
REMARK                            x       y       z     vdW  Elec       q    Type
REMARK                         _______ _______ _______ _____ _____    ______ ____
ROOT
ATOM      1  C   UNL     1       5.308   9.119   2.053  0.00  0.00    +0.019 A 
ATOM      2  C   UNL     1       3.947   9.322   1.859  0.00  0.00    +0.003 A 
ATOM      3  C   UNL     1       3.170   8.226   1.492  0.00  0.00    +0.017 A 
ATOM      4  C   UNL     1       1.924   8.111   0.885  0.00  0.00    +0.019 A 
ATOM      5  C   UNL     1       2.027   7.150  -0.116  0.00  0.00    +0.066 A 
ATOM      6  C   UNL     1       1.066   6.642  -1.044  0.00  0.00    +0.050 A 
ATOM      7  C   UNL     1       1.326   5.480  -1.734  0.00  0.00    +0.142 A 
ATOM      8  C   UNL     1       0.296   5.054  -2.569  0.00  0.00    +0.039 A 
ATOM      9  C   UNL     1      -0.287   6.093  -3.291  0.00  0.00    +0.022 A 
ATOM     10  C   UNL     1      -0.800   7.094  -2.474  0.00  0.00    +0.002 A 
ATOM     11  O   UNL     1       2.364   4.754  -1.293  0.00  0.00    -0.454 OA
ATOM     12  C   UNL     1       3.709   5.502  -0.967  0.00  0.00    +0.280 C 
ATOM     13  C   UNL     1      -0.043   7.418  -1.354  0.00  0.00    +0.005 A 
ATOM     14  N   UNL     1       3.052   6.416   0.185  0.00  0.00    -0.291 N 
ATOM     15  C   UNL     1       3.824   7.066   1.090  0.00  0.00    +0.063 A 
ATOM     16  C   UNL     1       5.052   6.785   1.677  0.00  0.00    +0.017 A 
ATOM     17  C   UNL     1       5.656   7.815   2.383  0.00  0.00    +0.003 A 
ENDROOT
BRANCH  12  18
ATOM     18  C   UNL     1       3.532   6.635  -2.170  0.00  0.00    +0.040 A 
ATOM     19  C   UNL     1       3.792   5.928  -3.346  0.00  0.00    +0.001 A 
ATOM     20  C   UNL     1       4.574   6.484  -4.359  0.00  0.00    -0.000 A 
ATOM     21  C   UNL     1       4.527   7.876  -4.336  0.00  0.00    -0.000 A 
ATOM     22  C   UNL     1       4.484   8.532  -3.111  0.00  0.00    -0.000 A 
ATOM     23  C   UNL     1       4.435   7.688  -2.004  0.00  0.00    +0.001 A 
ENDBRANCH  12  18
BRANCH   9  24
ATOM     24  C   UNL     1      -0.718   6.025  -4.660  0.00  0.00    +0.102 A 
ATOM     25  N   UNL     1      -0.366   6.747  -5.755  0.00  0.00    -0.227 NA
ATOM     26  C   UNL     1      -0.096   5.817  -6.667  0.00  0.00    +0.157 A 
ATOM     27  N   UNL     1      -1.096   4.915  -6.547  0.00  0.00    -0.226 NA
ATOM     28  C   UNL     1      -1.333   4.904  -5.212  0.00  0.00    +0.119 A 
BRANCH  26  29
ATOM     29  C   UNL     1       0.448   6.157  -8.161  0.00  0.00    +0.134 C 
ATOM     30  N   UNL     1       1.939   6.494  -7.697  0.00  0.00    -0.273 N 
ATOM     31  C   UNL     1       2.736   6.715  -8.878  0.00  0.00    +0.246 C 
ATOM     32  O   UNL     1       3.343   7.751  -9.144  0.00  0.00    -0.273 OA
ATOM     33  C   UNL     1       2.237   5.494  -6.720  0.00  0.00    +0.094 C 
ATOM     34  C   UNL     1       1.532   4.232  -7.148  0.00  0.00    +0.024 C 
ATOM     35  C   UNL     1       0.849   4.562  -8.436  0.00  0.00    +0.029 C 
BRANCH  31  36
ATOM     36  C   UNL     1       3.389   5.333  -9.459  0.00  0.00    +0.175 C 
BRANCH  36  37
ATOM     37  N   UNL     1       3.469   5.877 -10.961  0.00  0.00    -0.161 NA
ATOM     38  C   UNL     1       2.136   5.825 -11.493  0.00  0.00    +0.422 C 
ATOM     39  O   UNL     1       1.418   4.789 -11.339  0.00  0.00    -0.225 OA
BRANCH  38  40
ATOM     40  O   UNL     1       1.841   6.717 -12.531  0.00  0.00    -0.429 OA
ATOM     41  C   UNL     1       1.989   6.197 -13.852  0.00  0.00    +0.257 C 
ENDBRANCH  38  40
ENDBRANCH  36  37
BRANCH  36  42
ATOM     42  C   UNL     1       4.925   5.795  -9.021  0.00  0.00    +0.029 C 
ATOM     43  C   UNL     1       5.792   5.846 -10.182  0.00  0.00    +0.002 C 
ATOM     44  C   UNL     1       5.315   4.802  -7.937  0.00  0.00    +0.002 C 
ENDBRANCH  36  42
ENDBRANCH  31  36
ENDBRANCH  26  29
ENDBRANCH   9  24
BRANCH   1  48
ATOM     45  C   UNL     1       6.560  12.393   1.939  0.00  0.00    +0.157 A 
ATOM     46  N   UNL     1       6.974  12.037   3.167  0.00  0.00    -0.226 NA
ATOM     47  C   UNL     1       6.882  10.681   3.202  0.00  0.00    +0.119 A 
ATOM     48  C   UNL     1       6.273  10.223   2.041  0.00  0.00    +0.102 A 
ATOM     49  N   UNL     1       5.986  11.358   1.368  0.00  0.00    -0.227 NA
BRANCH  45  52
ATOM     50  C   UNL     1       8.250  13.996   0.273  0.00  0.00    +0.246 C 
ATOM     51  N   UNL     1       6.843  14.040   0.304  0.00  0.00    -0.273 N 
ATOM     52  C   UNL     1       6.050  13.922   1.682  0.00  0.00    +0.134 C 
ATOM     53  C   UNL     1       4.622  13.459   0.965  0.00  0.00    +0.029 C 
ATOM     54  C   UNL     1       4.885  13.534  -0.465  0.00  0.00    +0.024 C 
ATOM     55  C   UNL     1       5.884  14.683  -0.557  0.00  0.00    +0.094 C 
ATOM     56  O   UNL     1       8.908  13.375  -0.535  0.00  0.00    -0.273 OA
BRANCH  50  57
ATOM     57  C   UNL     1       8.979  14.575   1.612  0.00  0.00    +0.175 C 
BRANCH  57  58
ATOM     58  C   UNL     1       8.832  16.153   1.110  0.00  0.00    +0.029 C 
ATOM     59  C   UNL     1      10.082  16.353   0.260  0.00  0.00    +0.002 C 
ATOM     60  C   UNL     1       8.840  17.021   2.306  0.00  0.00    +0.002 C 
ENDBRANCH  57  58
BRANCH  57  62
ATOM     61  C   UNL     1      11.254  13.597   1.892  0.00  0.00    +0.422 C 
ATOM     62  N   UNL     1      10.464  14.423   1.043  0.00  0.00    -0.161 NA
ATOM     63  O   UNL     1      10.864  13.270   3.054  0.00  0.00    -0.225 OA
BRANCH  61  65
ATOM     64  C   UNL     1      12.993  12.438   0.666  0.00  0.00    +0.257 C 
ATOM     65  O   UNL     1      12.599  13.360   1.646  0.00  0.00    -0.429 OA
ENDBRANCH  61  65
ENDBRANCH  57  62
ENDBRANCH  50  57
ENDBRANCH  45  52
ENDBRANCH   1  48
TORSDOF 13
ENDMDL
MODEL 3
REMARK VINA RESULT:      -5.9      2.955     12.403
REMARK  Name = 
REMARK  13 active torsions:
REMARK  status: ('A' for Active; 'I' for Inactive)
REMARK    1  A    between atoms: O_2  and  C_3
REMARK    2  A    between atoms: N_5  and  C_6
REMARK    3  A    between atoms: C_6  and  C_7
REMARK    4  A    between atoms: C_6  and  C_63
REMARK    5  A    between atoms: C_13  and  C_14
REMARK    6  A    between atoms: C_16  and  C_17
REMARK    7  A    between atoms: C_25  and  C_26
REMARK    8  A    between atoms: C_35  and  C_36
REMARK    9  A    between atoms: C_39  and  C_40
REMARK   10  A    between atoms: C_45  and  C_47
REMARK   11  A    between atoms: C_47  and  N_48
REMARK   12  A    between atoms: C_47  and  C_53
REMARK   13  A    between atoms: C_49  and  O_51
REMARK                            x       y       z     vdW  Elec       q    Type
REMARK                         _______ _______ _______ _____ _____    ______ ____
ROOT
ATOM      1  C   UNL     1       2.674   5.842  -9.221  0.00  0.00    +0.019 A 
ATOM      2  C   UNL     1       3.605   6.480  -8.412  0.00  0.00    +0.003 A 
ATOM      3  C   UNL     1       3.909   5.899  -7.183  0.00  0.00    +0.017 A 
ATOM      4  C   UNL     1       4.472   6.399  -6.013  0.00  0.00    +0.019 A 
ATOM      5  C   UNL     1       3.702   5.947  -4.946  0.00  0.00    +0.066 A 
ATOM      6  C   UNL     1       3.821   6.157  -3.537  0.00  0.00    +0.050 A 
ATOM      7  C   UNL     1       3.119   5.359  -2.663  0.00  0.00    +0.142 A 
ATOM      8  C   UNL     1       3.354   5.622  -1.316  0.00  0.00    +0.039 A 
ATOM      9  C   UNL     1       3.396   6.984  -1.023  0.00  0.00    +0.022 A 
ATOM     10  C   UNL     1       4.364   7.662  -1.756  0.00  0.00    +0.002 A 
ATOM     11  O   UNL     1       2.565   4.256  -3.188  0.00  0.00    -0.454 OA
ATOM     12  C   UNL     1       1.781   4.393  -4.545  0.00  0.00    +0.280 C 
ATOM     13  C   UNL     1       4.516   7.270  -3.080  0.00  0.00    +0.005 A 
ATOM     14  N   UNL     1       3.069   4.898  -5.368  0.00  0.00    -0.291 N 
ATOM     15  C   UNL     1       3.089   4.873  -6.724  0.00  0.00    +0.063 A 
ATOM     16  C   UNL     1       2.506   4.043  -7.674  0.00  0.00    +0.017 A 
ATOM     17  C   UNL     1       2.548   4.477  -8.991  0.00  0.00    +0.003 A 
ENDROOT
BRANCH  12  18
ATOM     18  C   UNL     1       1.208   5.920  -4.220  0.00  0.00    +0.040 A 
ATOM     19  C   UNL     1       0.279   5.725  -3.195  0.00  0.00    +0.001 A 
ATOM     20  C   UNL     1      -0.949   6.387  -3.205  0.00  0.00    -0.000 A 
ATOM     21  C   UNL     1      -0.879   7.585  -3.914  0.00  0.00    -0.000 A 
ATOM     22  C   UNL     1      -0.093   7.649  -5.059  0.00  0.00    -0.000 A 
ATOM     23  C   UNL     1       0.605   6.480  -5.349  0.00  0.00    +0.001 A 
ENDBRANCH  12  18
BRANCH   9  24
ATOM     24  C   UNL     1       2.849   7.608   0.150  0.00  0.00    +0.102 A 
ATOM     25  N   UNL     1       3.442   8.190   1.223  0.00  0.00    -0.227 NA
ATOM     26  C   UNL     1       2.818   9.360   1.328  0.00  0.00    +0.157 A 
ATOM     27  N   UNL     1       1.509   9.070   1.152  0.00  0.00    -0.226 NA
ATOM     28  C   UNL     1       1.542   8.083   0.222  0.00  0.00    +0.119 A 
BRANCH  26  29
ATOM     29  C   UNL     1       3.206  10.488   2.433  0.00  0.00    +0.134 C 
ATOM     30  N   UNL     1       4.775  10.450   2.131  0.00  0.00    -0.273 N 
ATOM     31  C   UNL     1       5.404  11.492   2.904  0.00  0.00    +0.246 C 
ATOM     32  O   UNL     1       6.283  11.320   3.747  0.00  0.00    -0.273 OA
ATOM     33  C   UNL     1       4.856  10.366   0.707  0.00  0.00    +0.094 C 
ATOM     34  C   UNL     1       3.700  11.156   0.149  0.00  0.00    +0.024 C 
ATOM     35  C   UNL     1       2.982  11.720   1.332  0.00  0.00    +0.029 C 
BRANCH  31  36
ATOM     36  C   UNL     1       5.440  12.922   2.113  0.00  0.00    +0.175 C 
BRANCH  36  37
ATOM     37  N   UNL     1       4.913  13.753   3.374  0.00  0.00    -0.161 NA
ATOM     38  C   UNL     1       4.015  14.753   2.866  0.00  0.00    +0.422 C 
ATOM     39  O   UNL     1       4.334  15.457   1.858  0.00  0.00    -0.225 OA
BRANCH  38  40
ATOM     40  O   UNL     1       3.036  15.222   3.750  0.00  0.00    -0.429 OA
ATOM     41  C   UNL     1       2.543  16.535   3.483  0.00  0.00    +0.257 C 
ENDBRANCH  38  40
ENDBRANCH  36  37
BRANCH  36  42
ATOM     42  C   UNL     1       7.059  13.132   2.426  0.00  0.00    +0.029 C 
ATOM     43  C   UNL     1       7.282  14.373   3.142  0.00  0.00    +0.002 C 
ATOM     44  C   UNL     1       7.716  13.020   1.059  0.00  0.00    +0.002 C 
ENDBRANCH  36  42
ENDBRANCH  31  36
ENDBRANCH  26  29
ENDBRANCH   9  24
BRANCH   1  48
ATOM     45  C   UNL     1       1.707   6.695 -12.483  0.00  0.00    +0.157 A 
ATOM     46  N   UNL     1       0.529   6.258 -12.006  0.00  0.00    -0.226 NA
ATOM     47  C   UNL     1       0.668   6.243 -10.654  0.00  0.00    +0.119 A 
ATOM     48  C   UNL     1       1.983   6.533 -10.314  0.00  0.00    +0.102 A 
ATOM     49  N   UNL     1       2.593   6.672 -11.511  0.00  0.00    -0.227 NA
BRANCH  45  52
ATOM     50  C   UNL     1       4.164   5.272 -12.857  0.00  0.00    +0.246 C 
ATOM     51  N   UNL     1       2.995   5.116 -13.627  0.00  0.00    -0.273 N 
ATOM     52  C   UNL     1       2.107   6.376 -14.032  0.00  0.00    +0.134 C 
ATOM     53  C   UNL     1       0.741   5.476 -14.331  0.00  0.00    +0.029 C 
ATOM     54  C   UNL     1       1.165   4.093 -14.161  0.00  0.00    +0.024 C 
ATOM     55  C   UNL     1       2.620   4.137 -14.615  0.00  0.00    +0.094 C 
ATOM     56  O   UNL     1       4.486   4.557 -11.932  0.00  0.00    -0.273 OA
BRANCH  50  57
ATOM     57  C   UNL     1       4.929   6.696 -13.063  0.00  0.00    +0.175 C 
BRANCH  57  58
ATOM     58  C   UNL     1       5.669   6.192 -14.464  0.00  0.00    +0.029 C 
ATOM     59  C   UNL     1       6.982   5.605 -13.958  0.00  0.00    +0.002 C 
ATOM     60  C   UNL     1       5.893   7.375 -15.320  0.00  0.00    +0.002 C 
ENDBRANCH  57  58
BRANCH  57  62
ATOM     61  C   UNL     1       6.361   7.281 -11.108  0.00  0.00    +0.422 C 
ATOM     62  N   UNL     1       6.180   6.320 -12.144  0.00  0.00    -0.161 NA
ATOM     63  O   UNL     1       5.752   8.393 -11.118  0.00  0.00    -0.225 OA
BRANCH  61  65
ATOM     64  C   UNL     1       7.624   6.056  -9.442  0.00  0.00    +0.257 C 
ATOM     65  O   UNL     1       7.420   7.209 -10.213  0.00  0.00    -0.429 OA
ENDBRANCH  61  65
ENDBRANCH  57  62
ENDBRANCH  50  57
ENDBRANCH  45  52
ENDBRANCH   1  48
TORSDOF 13
ENDMDL
MODEL 4
REMARK VINA RESULT:      -5.5      2.808      5.346
REMARK  Name = 
REMARK  13 active torsions:
REMARK  status: ('A' for Active; 'I' for Inactive)
REMARK    1  A    between atoms: O_2  and  C_3
REMARK    2  A    between atoms: N_5  and  C_6
REMARK    3  A    between atoms: C_6  and  C_7
REMARK    4  A    between atoms: C_6  and  C_63
REMARK    5  A    between atoms: C_13  and  C_14
REMARK    6  A    between atoms: C_16  and  C_17
REMARK    7  A    between atoms: C_25  and  C_26
REMARK    8  A    between atoms: C_35  and  C_36
REMARK    9  A    between atoms: C_39  and  C_40
REMARK   10  A    between atoms: C_45  and  C_47
REMARK   11  A    between atoms: C_47  and  N_48
REMARK   12  A    between atoms: C_47  and  C_53
REMARK   13  A    between atoms: C_49  and  O_51
REMARK                            x       y       z     vdW  Elec       q    Type
REMARK                         _______ _______ _______ _____ _____    ______ ____
ROOT
ATOM      1  C   UNL     1       3.412   7.004  -0.166  0.00  0.00    +0.019 A 
ATOM      2  C   UNL     1       2.276   7.445  -0.832  0.00  0.00    +0.003 A 
ATOM      3  C   UNL     1       1.640   6.557  -1.696  0.00  0.00    +0.017 A 
ATOM      4  C   UNL     1       0.754   6.735  -2.753  0.00  0.00    +0.019 A 
ATOM      5  C   UNL     1       1.189   5.941  -3.809  0.00  0.00    +0.066 A 
ATOM      6  C   UNL     1       0.664   5.743  -5.124  0.00  0.00    +0.050 A 
ATOM      7  C   UNL     1       1.097   4.679  -5.882  0.00  0.00    +0.142 A 
ATOM      8  C   UNL     1       0.478   4.557  -7.124  0.00  0.00    +0.039 A 
ATOM      9  C   UNL     1       0.330   5.776  -7.783  0.00  0.00    +0.022 A 
ATOM     10  C   UNL     1      -0.396   6.703  -7.044  0.00  0.00    +0.002 A 
ATOM     11  O   UNL     1       1.798   3.739  -5.231  0.00  0.00    -0.454 OA
ATOM     12  C   UNL     1       2.939   4.206  -4.254  0.00  0.00    +0.280 C 
ATOM     13  C   UNL     1      -0.152   6.722  -5.676  0.00  0.00    +0.005 A 
ATOM     14  N   UNL     1       1.936   5.017  -3.290  0.00  0.00    -0.291 N 
ATOM     15  C   UNL     1       2.309   5.386  -2.040  0.00  0.00    +0.063 A 
ATOM     16  C   UNL     1       3.156   4.827  -1.091  0.00  0.00    +0.017 A 
ATOM     17  C   UNL     1       3.490   5.625  -0.006  0.00  0.00    +0.003 A 
ENDROOT
BRANCH  12  18
ATOM     18  C   UNL     1       3.367   5.530  -5.165  0.00  0.00    +0.040 A 
ATOM     19  C   UNL     1       3.933   4.982  -6.318  0.00  0.00    +0.001 A 
ATOM     20  C   UNL     1       5.096   5.519  -6.871  0.00  0.00    -0.000 A 
ATOM     21  C   UNL     1       5.238   6.868  -6.554  0.00  0.00    -0.000 A 
ATOM     22  C   UNL     1       4.848   7.313  -5.296  0.00  0.00    -0.000 A 
ATOM     23  C   UNL     1       4.285   6.331  -4.483  0.00  0.00    +0.001 A 
ENDBRANCH  12  18
BRANCH   9  24
ATOM     24  C   UNL     1       0.503   5.995  -9.192  0.00  0.00    +0.102 A 
ATOM     25  N   UNL     1       1.261   6.886  -9.882  0.00  0.00    -0.227 NA
ATOM     26  C   UNL     1       1.902   6.129 -10.768  0.00  0.00    +0.157 A 
ATOM     27  N   UNL     1       0.960   5.286 -11.248  0.00  0.00    -0.226 NA
ATOM     28  C   UNL     1       0.193   5.039 -10.156  0.00  0.00    +0.119 A 
BRANCH  26  29
ATOM     29  C   UNL     1       3.007   6.710 -11.811  0.00  0.00    +0.134 C 
ATOM     30  N   UNL     1       4.111   7.012 -10.696  0.00  0.00    -0.273 N 
ATOM     31  C   UNL     1       5.317   7.433 -11.364  0.00  0.00    +0.246 C 
ATOM     32  O   UNL     1       5.880   8.514 -11.200  0.00  0.00    -0.273 OA
ATOM     33  C   UNL     1       4.045   5.882  -9.823  0.00  0.00    +0.094 C 
ATOM     34  C   UNL     1       3.716   4.682 -10.673  0.00  0.00    +0.024 C 
ATOM     35  C   UNL     1       3.633   5.187 -12.078  0.00  0.00    +0.029 C 
BRANCH  31  36
ATOM     36  C   UNL     1       6.282   6.176 -11.764  0.00  0.00    +0.175 C 
BRANCH  36  37
ATOM     37  N   UNL     1       6.803   6.865 -13.109  0.00  0.00    -0.161 NA
ATOM     38  C   UNL     1       6.798   5.851 -14.125  0.00  0.00    +0.422 C 
ATOM     39  O   UNL     1       7.284   4.700 -13.893  0.00  0.00    -0.225 OA
BRANCH  38  40
ATOM     40  O   UNL     1       6.676   6.290 -15.449  0.00  0.00    -0.429 OA
ATOM     41  C   UNL     1       6.030   7.550 -15.623  0.00  0.00    +0.257 C 
ENDBRANCH  38  40
ENDBRANCH  36  37
BRANCH  36  42
ATOM     42  C   UNL     1       7.515   6.725 -10.793  0.00  0.00    +0.029 C 
ATOM     43  C   UNL     1       8.796   6.545 -11.447  0.00  0.00    +0.002 C 
ATOM     44  C   UNL     1       7.318   5.974  -9.485  0.00  0.00    +0.002 C 
ENDBRANCH  36  42
ENDBRANCH  31  36
ENDBRANCH  26  29
ENDBRANCH   9  24
BRANCH   1  48
ATOM     45  C   UNL     1       4.795   9.319   2.076  0.00  0.00    +0.157 A 
ATOM     46  N   UNL     1       5.659   8.302   2.242  0.00  0.00    -0.226 NA
ATOM     47  C   UNL     1       5.465   7.484   1.173  0.00  0.00    +0.119 A 
ATOM     48  C   UNL     1       4.378   7.931   0.433  0.00  0.00    +0.102 A 
ATOM     49  N   UNL     1       3.938   8.998   1.133  0.00  0.00    -0.227 NA
BRANCH  45  52
ATOM     50  C   UNL     1       4.342  12.097   1.549  0.00  0.00    +0.246 C 
ATOM     51  N   UNL     1       3.626  11.305   2.467  0.00  0.00    -0.273 N 
ATOM     52  C   UNL     1       4.370  10.221   3.368  0.00  0.00    +0.134 C 
ATOM     53  C   UNL     1       2.988   9.348   3.680  0.00  0.00    +0.029 C 
ATOM     54  C   UNL     1       1.918  10.117   3.060  0.00  0.00    +0.024 C 
ATOM     55  C   UNL     1       2.415  11.552   3.206  0.00  0.00    +0.094 C 
ATOM     56  O   UNL     1       3.980  12.350   0.419  0.00  0.00    -0.273 OA
BRANCH  50  57
ATOM     57  C   UNL     1       5.886  12.404   1.974  0.00  0.00    +0.175 C 
BRANCH  57  58
ATOM     58  C   UNL     1       5.445  13.626   3.011  0.00  0.00    +0.029 C 
ATOM     59  C   UNL     1       4.865  14.675   2.068  0.00  0.00    +0.002 C 
ATOM     60  C   UNL     1       6.661  14.117   3.693  0.00  0.00    +0.002 C 
ENDBRANCH  57  58
BRANCH  57  62
ATOM     61  C   UNL     1       7.507  13.250   0.281  0.00  0.00    +0.422 C 
ATOM     62  N   UNL     1       6.173  13.399   0.758  0.00  0.00    -0.161 NA
ATOM     63  O   UNL     1       8.378  12.598   0.931  0.00  0.00    -0.225 OA
BRANCH  61  65
ATOM     64  C   UNL     1       9.157  13.646  -1.449  0.00  0.00    +0.257 C 
ATOM     65  O   UNL     1       8.020  14.047  -0.734  0.00  0.00    -0.429 OA
ENDBRANCH  61  65
ENDBRANCH  57  62
ENDBRANCH  50  57
ENDBRANCH  45  52
ENDBRANCH   1  48
TORSDOF 13
ENDMDL
MODEL 5
REMARK VINA RESULT:      -5.1      3.264     13.412
REMARK  Name = 
REMARK  13 active torsions:
REMARK  status: ('A' for Active; 'I' for Inactive)
REMARK    1  A    between atoms: O_2  and  C_3
REMARK    2  A    between atoms: N_5  and  C_6
REMARK    3  A    between atoms: C_6  and  C_7
REMARK    4  A    between atoms: C_6  and  C_63
REMARK    5  A    between atoms: C_13  and  C_14
REMARK    6  A    between atoms: C_16  and  C_17
REMARK    7  A    between atoms: C_25  and  C_26
REMARK    8  A    between atoms: C_35  and  C_36
REMARK    9  A    between atoms: C_39  and  C_40
REMARK   10  A    between atoms: C_45  and  C_47
REMARK   11  A    between atoms: C_47  and  N_48
REMARK   12  A    between atoms: C_47  and  C_53
REMARK   13  A    between atoms: C_49  and  O_51
REMARK                            x       y       z     vdW  Elec       q    Type
REMARK                         _______ _______ _______ _____ _____    ______ ____
ROOT
ATOM      1  C   UNL     1       2.711   6.028  -9.707  0.00  0.00    +0.019 A 
ATOM      2  C   UNL     1       3.629   6.698  -8.910  0.00  0.00    +0.003 A 
ATOM      3  C   UNL     1       4.074   6.064  -7.752  0.00  0.00    +0.017 A 
ATOM      4  C   UNL     1       4.668   6.534  -6.585  0.00  0.00    +0.019 A 
ATOM      5  C   UNL     1       4.023   5.928  -5.510  0.00  0.00    +0.066 A 
ATOM      6  C   UNL     1       4.220   6.048  -4.099  0.00  0.00    +0.050 A 
ATOM      7  C   UNL     1       3.662   5.120  -3.249  0.00  0.00    +0.142 A 
ATOM      8  C   UNL     1       3.965   5.308  -1.902  0.00  0.00    +0.039 A 
ATOM      9  C   UNL     1       3.894   6.642  -1.506  0.00  0.00    +0.022 A 
ATOM     10  C   UNL     1       4.737   7.467  -2.242  0.00  0.00    +0.002 A 
ATOM     11  O   UNL     1       3.183   4.007  -3.823  0.00  0.00    -0.454 OA
ATOM     12  C   UNL     1       2.296   4.160  -5.113  0.00  0.00    +0.280 C 
ATOM     13  C   UNL     1       4.832   7.189  -3.600  0.00  0.00    +0.005 A 
ATOM     14  N   UNL     1       3.467   4.853  -5.973  0.00  0.00    -0.291 N 
ATOM     15  C   UNL     1       3.393   4.929  -7.325  0.00  0.00    +0.063 A 
ATOM     16  C   UNL     1       2.829   4.114  -8.299  0.00  0.00    +0.017 A 
ATOM     17  C   UNL     1       2.735   4.644  -9.578  0.00  0.00    +0.003 A 
ENDROOT
BRANCH  12  18
ATOM     18  C   UNL     1       1.601   5.592  -4.633  0.00  0.00    +0.040 A 
ATOM     19  C   UNL     1       0.731   5.222  -3.605  0.00  0.00    +0.001 A 
ATOM     20  C   UNL     1      -0.551   5.766  -3.519  0.00  0.00    -0.000 A 
ATOM     21  C   UNL     1      -0.614   7.023  -4.116  0.00  0.00    -0.000 A 
ATOM     22  C   UNL     1       0.120   7.261  -5.273  0.00  0.00    -0.000 A 
ATOM     23  C   UNL     1       0.909   6.192  -5.688  0.00  0.00    +0.001 A 
ENDBRANCH  12  18
BRANCH   9  24
ATOM     24  C   UNL     1       3.373   7.120  -0.256  0.00  0.00    +0.102 A 
ATOM     25  N   UNL     1       3.949   7.821   0.754  0.00  0.00    -0.227 NA
ATOM     26  C   UNL     1       3.092   8.815   0.972  0.00  0.00    +0.157 A 
ATOM     27  N   UNL     1       1.873   8.230   0.950  0.00  0.00    -0.226 NA
ATOM     28  C   UNL     1       2.012   7.280  -0.007  0.00  0.00    +0.119 A 
BRANCH  26  29
ATOM     29  C   UNL     1       3.348  10.000   2.056  0.00  0.00    +0.134 C 
ATOM     30  N   UNL     1       4.706  10.513   1.388  0.00  0.00    -0.273 N 
ATOM     31  C   UNL     1       5.125  11.703   2.085  0.00  0.00    +0.246 C 
ATOM     32  O   UNL     1       6.196  11.842   2.675  0.00  0.00    -0.273 OA
ATOM     33  C   UNL     1       4.443  10.471  -0.016  0.00  0.00    +0.094 C 
ATOM     34  C   UNL     1       2.988  10.813  -0.206  0.00  0.00    +0.024 C 
ATOM     35  C   UNL     1       2.451  11.084   1.162  0.00  0.00    +0.029 C 
BRANCH  31  36
ATOM     36  C   UNL     1       4.476  13.061   1.448  0.00  0.00    +0.175 C 
BRANCH  36  37
ATOM     37  N   UNL     1       5.232  14.030   2.472  0.00  0.00    -0.161 NA
ATOM     38  C   UNL     1       4.446  15.228   2.567  0.00  0.00    +0.422 C 
ATOM     39  O   UNL     1       4.006  15.798   1.520  0.00  0.00    -0.225 OA
BRANCH  38  40
ATOM     40  O   UNL     1       4.570  15.967   3.749  0.00  0.00    -0.429 OA
ATOM     41  C   UNL     1       4.990  17.321   3.590  0.00  0.00    +0.257 C 
ENDBRANCH  38  40
ENDBRANCH  36  37
BRANCH  36  42
ATOM     42  C   UNL     1       5.629  13.133   0.253  0.00  0.00    +0.029 C 
ATOM     43  C   UNL     1       6.821  13.804   0.734  0.00  0.00    +0.002 C 
ATOM     44  C   UNL     1       4.912  13.796  -0.913  0.00  0.00    +0.002 C 
ENDBRANCH  36  42
ENDBRANCH  31  36
ENDBRANCH  26  29
ENDBRANCH   9  24
BRANCH   1  48
ATOM     45  C   UNL     1       0.406   6.514 -12.306  0.00  0.00    +0.157 A 
ATOM     46  N   UNL     1      -0.240   7.147 -11.311  0.00  0.00    -0.226 NA
ATOM     47  C   UNL     1       0.696   7.358 -10.347  0.00  0.00    +0.119 A 
ATOM     48  C   UNL     1       1.880   6.721 -10.696  0.00  0.00    +0.102 A 
ATOM     49  N   UNL     1       1.576   6.111 -11.863  0.00  0.00    -0.227 NA
BRANCH  45  52
ATOM     50  C   UNL     1       1.489   6.444 -14.956  0.00  0.00    +0.246 C 
ATOM     51  N   UNL     1       0.823   5.385 -14.308  0.00  0.00    -0.273 N 
ATOM     52  C   UNL     1      -0.454   5.657 -13.395  0.00  0.00    +0.134 C 
ATOM     53  C   UNL     1      -0.319   4.224 -12.561  0.00  0.00    +0.029 C 
ATOM     54  C   UNL     1       0.786   3.526 -13.203  0.00  0.00    +0.024 C 
ATOM     55  C   UNL     1       0.675   3.993 -14.650  0.00  0.00    +0.094 C 
ATOM     56  O   UNL     1       2.693   6.571 -15.019  0.00  0.00    -0.273 OA
BRANCH  50  57
ATOM     57  C   UNL     1       0.536   7.705 -15.353  0.00  0.00    +0.175 C 
BRANCH  57  58
ATOM     58  C   UNL     1      -0.037   6.951 -16.719  0.00  0.00    +0.029 C 
ATOM     59  C   UNL     1       0.742   7.638 -17.834  0.00  0.00    +0.002 C 
ATOM     60  C   UNL     1      -1.487   7.216 -16.820  0.00  0.00    +0.002 C 
ENDBRANCH  57  58
BRANCH  57  62
ATOM     61  C   UNL     1       1.619   9.894 -15.853  0.00  0.00    +0.422 C 
ATOM     62  N   UNL     1       1.674   8.501 -16.143  0.00  0.00    -0.161 NA
ATOM     63  O   UNL     1       0.627  10.411 -15.254  0.00  0.00    -0.225 OA
BRANCH  61  65
ATOM     64  C   UNL     1       3.531  10.368 -17.263  0.00  0.00    +0.257 C 
ATOM     65  O   UNL     1       2.466  10.808 -16.465  0.00  0.00    -0.429 OA
ENDBRANCH  61  65
ENDBRANCH  57  62
ENDBRANCH  50  57
ENDBRANCH  45  52
ENDBRANCH   1  48
TORSDOF 13
ENDMDL
