MODEL 1
REMARK VINA RESULT:      -6.3      0.000      0.000
REMARK  Name = 
REMARK  12 active torsions:
REMARK  status: ('A' for Active; 'I' for Inactive)
REMARK    1  A    between atoms: C_2  and  N_4
REMARK    2  A    between atoms: N_4  and  C_5
REMARK    3  A    between atoms: C_5  and  C_6
REMARK    4  A    between atoms: C_6  and  C_8
REMARK    5  A    between atoms: C_8  and  O_9
REMARK    6  A    between atoms: O_9  and  C_10
REMARK    7  A    between atoms: C_13  and  C_14
REMARK    8  A    between atoms: C_14  and  O_15
REMARK    9  A    between atoms: O_15  and  C_16
REMARK   10  A    between atoms: C_16  and  C_17
REMARK   11  A    between atoms: C_17  and  O_18
REMARK   12  A    between atoms: O_18  and  C_19
REMARK                            x       y       z     vdW  Elec       q    Type
REMARK                         _______ _______ _______ _____ _____    ______ ____
ROOT
ATOM      1  C   UNL     1       3.502   6.408  -9.332  0.00  0.00    +0.139 A 
ATOM      2  C   UNL     1       4.197   5.510  -8.551  0.00  0.00    +0.037 A 
ATOM      3  C   UNL     1       4.172   5.616  -7.171  0.00  0.00    +0.001 A 
ATOM      4  C   UNL     1       3.429   6.610  -6.554  0.00  0.00    +0.007 A 
ATOM      5  C   UNL     1       2.532   7.286  -7.353  0.00  0.00    +0.001 A 
ATOM      6  C   UNL     1       2.560   7.215  -8.741  0.00  0.00    +0.037 A 
ENDROOT
BRANCH   1   7
ATOM      7  O   UNL     1       3.905   6.533 -10.653  0.00  0.00    -0.473 OA
BRANCH   7   8
ATOM      8  C   UNL     1       4.403   5.383 -11.327  0.00  0.00    +0.240 C 
BRANCH   8   9
ATOM      9  C   UNL     1       4.544   5.937 -12.873  0.00  0.00    +0.213 C 
ATOM     10  O   UNL     1       5.151   4.626 -13.342  0.00  0.00    -0.218 OA
BRANCH   9  11
ATOM     11  C   UNL     1       6.031   6.581 -12.568  0.00  0.00    +0.125 C 
BRANCH  11  12
ATOM     12  N   UNL     1       6.837   5.401 -12.341  0.00  0.00    -0.217 NA
BRANCH  12  14
ATOM     13  C   UNL     1       8.865   5.754 -12.023  0.00  0.00    +0.019 C 
ATOM     14  C   UNL     1       8.065   5.736 -11.638  0.00  0.00    +0.073 C 
ATOM     15  C   UNL     1       7.912   5.602 -10.137  0.00  0.00    +0.019 C 
ENDBRANCH  12  14
ENDBRANCH  11  12
ENDBRANCH   9  11
ENDBRANCH   8   9
ENDBRANCH   7   8
ENDBRANCH   1   7
BRANCH   4  16
ATOM     16  C   UNL     1       3.723   7.093  -5.188  0.00  0.00    +0.169 C 
BRANCH  16  17
ATOM     17  O   UNL     1       2.571   7.019  -4.431  0.00  0.00    -0.346 OA
BRANCH  17  18
ATOM     18  C   UNL     1       2.277   5.748  -3.974  0.00  0.00    +0.175 C 
BRANCH  18  19
ATOM     19  C   UNL     1       0.888   5.298  -4.226  0.00  0.00    +0.174 C 
BRANCH  19  20
ATOM     20  O   UNL     1       0.072   6.120  -4.914  0.00  0.00    -0.354 OA
BRANCH  20  21
ATOM     21  C   UNL     1      -0.934   5.590  -5.659  0.00  0.00    +0.115 C 
ATOM     22  C   UNL     1      -0.660   5.372  -7.106  0.00  0.00    +0.032 C 
ATOM     23  C   UNL     1      -2.105   6.561  -5.541  0.00  0.00    +0.032 C 
ENDBRANCH  20  21
ENDBRANCH  19  20
ENDBRANCH  18  19
ENDBRANCH  17  18
ENDBRANCH  16  17
ENDBRANCH   4  16
TORSDOF 12
ENDMDL
MODEL 2
REMARK VINA RESULT:      -6.2      2.669      4.079
REMARK  Name = 
REMARK  12 active torsions:
REMARK  status: ('A' for Active; 'I' for Inactive)
REMARK    1  A    between atoms: C_2  and  N_4
REMARK    2  A    between atoms: N_4  and  C_5
REMARK    3  A    between atoms: C_5  and  C_6
REMARK    4  A    between atoms: C_6  and  C_8
REMARK    5  A    between atoms: C_8  and  O_9
REMARK    6  A    between atoms: O_9  and  C_10
REMARK    7  A    between atoms: C_13  and  C_14
REMARK    8  A    between atoms: C_14  and  O_15
REMARK    9  A    between atoms: O_15  and  C_16
REMARK   10  A    between atoms: C_16  and  C_17
REMARK   11  A    between atoms: C_17  and  O_18
REMARK   12  A    between atoms: O_18  and  C_19
REMARK                            x       y       z     vdW  Elec       q    Type
REMARK                         _______ _______ _______ _____ _____    ______ ____
ROOT
ATOM      1  C   UNL     1       4.004   5.379 -10.216  0.00  0.00    +0.139 A 
ATOM      2  C   UNL     1       3.768   6.705  -9.918  0.00  0.00    +0.037 A 
ATOM      3  C   UNL     1       3.007   7.049  -8.814  0.00  0.00    +0.001 A 
ATOM      4  C   UNL     1       2.494   6.070  -7.979  0.00  0.00    +0.007 A 
ATOM      5  C   UNL     1       2.999   4.798  -8.148  0.00  0.00    +0.001 A 
ATOM      6  C   UNL     1       3.739   4.426  -9.264  0.00  0.00    +0.037 A 
ENDROOT
BRANCH   1   7
ATOM      7  O   UNL     1       4.369   5.086 -11.522  0.00  0.00    -0.473 OA
BRANCH   7   8
ATOM      8  C   UNL     1       4.056   6.024 -12.545  0.00  0.00    +0.240 C 
BRANCH   8   9
ATOM      9  C   UNL     1       3.092   5.126 -13.537  0.00  0.00    +0.213 C 
ATOM     10  O   UNL     1       3.380   6.031 -14.722  0.00  0.00    -0.218 OA
BRANCH   9  11
ATOM     11  C   UNL     1       1.755   6.000 -13.124  0.00  0.00    +0.125 C 
BRANCH  11  12
ATOM     12  N   UNL     1       0.870   4.981 -12.603  0.00  0.00    -0.217 NA
BRANCH  12  14
ATOM     13  C   UNL     1       0.218   4.668 -10.650  0.00  0.00    +0.019 C 
ATOM     14  C   UNL     1       0.477   5.283 -11.236  0.00  0.00    +0.073 C 
ATOM     15  C   UNL     1       0.119   6.744 -11.060  0.00  0.00    +0.019 C 
ENDBRANCH  12  14
ENDBRANCH  11  12
ENDBRANCH   9  11
ENDBRANCH   8   9
ENDBRANCH   7   8
ENDBRANCH   1   7
BRANCH   4  16
ATOM     16  C   UNL     1       1.318   6.297  -7.112  0.00  0.00    +0.169 C 
BRANCH  16  17
ATOM     17  O   UNL     1       0.629   5.110  -6.972  0.00  0.00    -0.346 OA
BRANCH  17  18
ATOM     18  C   UNL     1      -0.380   5.152  -6.028  0.00  0.00    +0.175 C 
BRANCH  18  19
ATOM     19  C   UNL     1      -1.713   5.535  -6.552  0.00  0.00    +0.174 C 
BRANCH  19  20
ATOM     20  O   UNL     1      -2.450   6.402  -5.831  0.00  0.00    -0.354 OA
BRANCH  20  21
ATOM     21  C   UNL     1      -2.057   6.725  -4.571  0.00  0.00    +0.115 C 
ATOM     22  C   UNL     1      -3.009   6.419  -3.468  0.00  0.00    +0.032 C 
ATOM     23  C   UNL     1      -1.810   8.231  -4.577  0.00  0.00    +0.032 C 
ENDBRANCH  20  21
ENDBRANCH  19  20
ENDBRANCH  18  19
ENDBRANCH  17  18
ENDBRANCH  16  17
ENDBRANCH   4  16
TORSDOF 12
ENDMDL
MODEL 3
REMARK VINA RESULT:      -6.2      2.598      8.419
REMARK  Name = 
REMARK  12 active torsions:
REMARK  status: ('A' for Active; 'I' for Inactive)
REMARK    1  A    between atoms: C_2  and  N_4
REMARK    2  A    between atoms: N_4  and  C_5
REMARK    3  A    between atoms: C_5  and  C_6
REMARK    4  A    between atoms: C_6  and  C_8
REMARK    5  A    between atoms: C_8  and  O_9
REMARK    6  A    between atoms: O_9  and  C_10
REMARK    7  A    between atoms: C_13  and  C_14
REMARK    8  A    between atoms: C_14  and  O_15
REMARK    9  A    between atoms: O_15  and  C_16
REMARK   10  A    between atoms: C_16  and  C_17
REMARK   11  A    between atoms: C_17  and  O_18
REMARK   12  A    between atoms: O_18  and  C_19
REMARK                            x       y       z     vdW  Elec       q    Type
REMARK                         _______ _______ _______ _____ _____    ______ ____
ROOT
ATOM      1  C   UNL     1       3.328   6.755  -6.290  0.00  0.00    +0.139 A 
ATOM      2  C   UNL     1       4.441   5.956  -6.445  0.00  0.00    +0.037 A 
ATOM      3  C   UNL     1       4.794   5.483  -7.697  0.00  0.00    +0.001 A 
ATOM      4  C   UNL     1       4.050   5.826  -8.815  0.00  0.00    +0.007 A 
ATOM      5  C   UNL     1       3.141   6.849  -8.653  0.00  0.00    +0.001 A 
ATOM      6  C   UNL     1       2.752   7.316  -7.403  0.00  0.00    +0.037 A 
ENDROOT
BRANCH   1   7
ATOM      7  O   UNL     1       2.780   6.825  -5.017  0.00  0.00    -0.473 OA
BRANCH   7   8
ATOM      8  C   UNL     1       2.238   5.642  -4.441  0.00  0.00    +0.240 C 
BRANCH   8   9
ATOM      9  C   UNL     1       1.148   6.262  -3.370  0.00  0.00    +0.213 C 
ATOM     10  O   UNL     1       0.354   4.968  -3.350  0.00  0.00    -0.218 OA
BRANCH   9  11
ATOM     11  C   UNL     1       0.218   6.878  -4.585  0.00  0.00    +0.125 C 
BRANCH  11  12
ATOM     12  N   UNL     1      -0.953   6.030  -4.537  0.00  0.00    -0.217 NA
BRANCH  12  14
ATOM     13  C   UNL     1      -2.520   7.295  -5.068  0.00  0.00    +0.019 C 
ATOM     14  C   UNL     1      -2.038   6.594  -5.323  0.00  0.00    +0.073 C 
ATOM     15  C   UNL     1      -2.549   5.619  -6.364  0.00  0.00    +0.019 C 
ENDBRANCH  12  14
ENDBRANCH  11  12
ENDBRANCH   9  11
ENDBRANCH   8   9
ENDBRANCH   7   8
ENDBRANCH   1   7
BRANCH   4  16
ATOM     16  C   UNL     1       4.047   5.014 -10.050  0.00  0.00    +0.169 C 
BRANCH  16  17
ATOM     17  O   UNL     1       3.635   5.804 -11.104  0.00  0.00    -0.346 OA
BRANCH  17  18
ATOM     18  C   UNL     1       4.301   5.554 -12.290  0.00  0.00    +0.175 C 
BRANCH  18  19
ATOM     19  C   UNL     1       5.756   5.310 -12.152  0.00  0.00    +0.174 C 
BRANCH  19  20
ATOM     20  O   UNL     1       6.600   6.287 -12.538  0.00  0.00    -0.354 OA
BRANCH  20  21
ATOM     21  C   UNL     1       7.290   6.983 -11.596  0.00  0.00    +0.115 C 
ATOM     22  C   UNL     1       7.501   6.314 -10.283  0.00  0.00    +0.032 C 
ATOM     23  C   UNL     1       6.498   8.264 -11.352  0.00  0.00    +0.032 C 
ENDBRANCH  20  21
ENDBRANCH  19  20
ENDBRANCH  18  19
ENDBRANCH  17  18
ENDBRANCH  16  17
ENDBRANCH   4  16
TORSDOF 12
ENDMDL
MODEL 4
REMARK VINA RESULT:      -6.2      2.961      7.461
REMARK  Name = 
REMARK  12 active torsions:
REMARK  status: ('A' for Active; 'I' for Inactive)
REMARK    1  A    between atoms: C_2  and  N_4
REMARK    2  A    between atoms: N_4  and  C_5
REMARK    3  A    between atoms: C_5  and  C_6
REMARK    4  A    between atoms: C_6  and  C_8
REMARK    5  A    between atoms: C_8  and  O_9
REMARK    6  A    between atoms: O_9  and  C_10
REMARK    7  A    between atoms: C_13  and  C_14
REMARK    8  A    between atoms: C_14  and  O_15
REMARK    9  A    between atoms: O_15  and  C_16
REMARK   10  A    between atoms: C_16  and  C_17
REMARK   11  A    between atoms: C_17  and  O_18
REMARK   12  A    between atoms: O_18  and  C_19
REMARK                            x       y       z     vdW  Elec       q    Type
REMARK                         _______ _______ _______ _____ _____    ______ ____
ROOT
ATOM      1  C   UNL     1       3.104   4.998  -6.660  0.00  0.00    +0.139 A 
ATOM      2  C   UNL     1       2.656   4.260  -7.735  0.00  0.00    +0.037 A 
ATOM      3  C   UNL     1       3.360   4.262  -8.927  0.00  0.00    +0.001 A 
ATOM      4  C   UNL     1       4.535   4.985  -9.051  0.00  0.00    +0.007 A 
ATOM      5  C   UNL     1       5.087   5.457  -7.879  0.00  0.00    +0.001 A 
ATOM      6  C   UNL     1       4.386   5.490  -6.679  0.00  0.00    +0.037 A 
ENDROOT
BRANCH   1   7
ATOM      7  O   UNL     1       2.170   5.312  -5.683  0.00  0.00    -0.473 OA
BRANCH   7   8
ATOM      8  C   UNL     1       2.434   6.408  -4.814  0.00  0.00    +0.240 C 
BRANCH   8   9
ATOM      9  C   UNL     1       0.976   6.600  -4.069  0.00  0.00    +0.213 C 
ATOM     10  O   UNL     1       0.712   5.104  -4.087  0.00  0.00    -0.218 OA
BRANCH   9  11
ATOM     11  C   UNL     1       0.202   6.809  -5.510  0.00  0.00    +0.125 C 
BRANCH  11  12
ATOM     12  N   UNL     1      -1.186   6.622  -5.144  0.00  0.00    -0.217 NA
BRANCH  12  14
ATOM     13  C   UNL     1      -2.695   5.496  -6.034  0.00  0.00    +0.019 C 
ATOM     14  C   UNL     1      -1.892   5.854  -6.157  0.00  0.00    +0.073 C 
ATOM     15  C   UNL     1      -0.958   5.349  -7.237  0.00  0.00    +0.019 C 
ENDBRANCH  12  14
ENDBRANCH  11  12
ENDBRANCH   9  11
ENDBRANCH   8   9
ENDBRANCH   7   8
ENDBRANCH   1   7
BRANCH   4  16
ATOM     16  C   UNL     1       5.062   5.434 -10.357  0.00  0.00    +0.169 C 
BRANCH  16  17
ATOM     17  O   UNL     1       4.163   5.087 -11.345  0.00  0.00    -0.346 OA
BRANCH  17  18
ATOM     18  C   UNL     1       3.871   6.112 -12.226  0.00  0.00    +0.175 C 
BRANCH  18  19
ATOM     19  C   UNL     1       2.439   6.234 -12.591  0.00  0.00    +0.174 C 
BRANCH  19  20
ATOM     20  O   UNL     1       1.590   5.288 -12.145  0.00  0.00    -0.354 OA
BRANCH  20  21
ATOM     21  C   UNL     1       0.524   5.654 -11.385  0.00  0.00    +0.115 C 
ATOM     22  C   UNL     1       0.767   6.674 -10.329  0.00  0.00    +0.032 C 
ATOM     23  C   UNL     1       0.031   4.379 -10.706  0.00  0.00    +0.032 C 
ENDBRANCH  20  21
ENDBRANCH  19  20
ENDBRANCH  18  19
ENDBRANCH  17  18
ENDBRANCH  16  17
ENDBRANCH   4  16
TORSDOF 12
ENDMDL
MODEL 5
REMARK VINA RESULT:      -6.1      3.945      5.617
REMARK  Name = 
REMARK  12 active torsions:
REMARK  status: ('A' for Active; 'I' for Inactive)
REMARK    1  A    between atoms: C_2  and  N_4
REMARK    2  A    between atoms: N_4  and  C_5
REMARK    3  A    between atoms: C_5  and  C_6
REMARK    4  A    between atoms: C_6  and  C_8
REMARK    5  A    between atoms: C_8  and  O_9
REMARK    6  A    between atoms: O_9  and  C_10
REMARK    7  A    between atoms: C_13  and  C_14
REMARK    8  A    between atoms: C_14  and  O_15
REMARK    9  A    between atoms: O_15  and  C_16
REMARK   10  A    between atoms: C_16  and  C_17
REMARK   11  A    between atoms: C_17  and  O_18
REMARK   12  A    between atoms: O_18  and  C_19
REMARK                            x       y       z     vdW  Elec       q    Type
REMARK                         _______ _______ _______ _____ _____    ______ ____
ROOT
ATOM      1  C   UNL     1       4.035   6.591  -5.239  0.00  0.00    +0.139 A 
ATOM      2  C   UNL     1       3.967   7.478  -4.186  0.00  0.00    +0.037 A 
ATOM      3  C   UNL     1       3.916   7.015  -2.882  0.00  0.00    +0.001 A 
ATOM      4  C   UNL     1       3.958   5.655  -2.616  0.00  0.00    +0.007 A 
ATOM      5  C   UNL     1       4.319   4.839  -3.666  0.00  0.00    +0.001 A 
ATOM      6  C   UNL     1       4.347   5.278  -4.984  0.00  0.00    +0.037 A 
ENDROOT
BRANCH   1   7
ATOM      7  O   UNL     1       3.642   7.064  -6.483  0.00  0.00    -0.473 OA
BRANCH   7   8
ATOM      8  C   UNL     1       3.161   6.134  -7.446  0.00  0.00    +0.240 C 
BRANCH   8   9
ATOM      9  C   UNL     1       2.534   7.138  -8.594  0.00  0.00    +0.213 C 
ATOM     10  O   UNL     1       2.007   8.097  -7.542  0.00  0.00    -0.218 OA
BRANCH   9  11
ATOM     11  C   UNL     1       1.111   6.305  -8.628  0.00  0.00    +0.125 C 
BRANCH  11  12
ATOM     12  N   UNL     1       1.271   5.378  -7.529  0.00  0.00    -0.217 NA
BRANCH  12  14
ATOM     13  C   UNL     1      -0.771   5.414  -7.117  0.00  0.00    +0.019 C 
ATOM     14  C   UNL     1       0.032   5.241  -6.780  0.00  0.00    +0.073 C 
ATOM     15  C   UNL     1       0.275   5.224  -5.284  0.00  0.00    +0.019 C 
ENDBRANCH  12  14
ENDBRANCH  11  12
ENDBRANCH   9  11
ENDBRANCH   8   9
ENDBRANCH   7   8
ENDBRANCH   1   7
BRANCH   4  16
ATOM     16  C   UNL     1       3.431   5.072  -1.364  0.00  0.00    +0.169 C 
BRANCH  16  17
ATOM     17  O   UNL     1       2.241   5.694  -1.046  0.00  0.00    -0.346 OA
BRANCH  17  18
ATOM     18  C   UNL     1       1.121   4.914  -1.266  0.00  0.00    +0.175 C 
BRANCH  18  19
ATOM     19  C   UNL     1      -0.117   5.668  -1.576  0.00  0.00    +0.174 C 
BRANCH  19  20
ATOM     20  O   UNL     1      -1.257   4.971  -1.742  0.00  0.00    -0.354 OA
BRANCH  20  21
ATOM     21  C   UNL     1      -2.395   5.627  -2.091  0.00  0.00    +0.115 C 
ATOM     22  C   UNL     1      -2.990   5.291  -3.413  0.00  0.00    +0.032 C 
ATOM     23  C   UNL     1      -2.043   7.112  -2.094  0.00  0.00    +0.032 C 
ENDBRANCH  20  21
ENDBRANCH  19  20
ENDBRANCH  18  19
ENDBRANCH  17  18
ENDBRANCH  16  17
ENDBRANCH   4  16
TORSDOF 12
ENDMDL
MODEL 6
REMARK VINA RESULT:      -6.1      3.068      7.302
REMARK  Name = 
REMARK  12 active torsions:
REMARK  status: ('A' for Active; 'I' for Inactive)
REMARK    1  A    between atoms: C_2  and  N_4
REMARK    2  A    between atoms: N_4  and  C_5
REMARK    3  A    between atoms: C_5  and  C_6
REMARK    4  A    between atoms: C_6  and  C_8
REMARK    5  A    between atoms: C_8  and  O_9
REMARK    6  A    between atoms: O_9  and  C_10
REMARK    7  A    between atoms: C_13  and  C_14
REMARK    8  A    between atoms: C_14  and  O_15
REMARK    9  A    between atoms: O_15  and  C_16
REMARK   10  A    between atoms: C_16  and  C_17
REMARK   11  A    between atoms: C_17  and  O_18
REMARK   12  A    between atoms: O_18  and  C_19
REMARK                            x       y       z     vdW  Elec       q    Type
REMARK                         _______ _______ _______ _____ _____    ______ ____
ROOT
ATOM      1  C   UNL     1       0.095   5.874 -10.422  0.00  0.00    +0.139 A 
ATOM      2  C   UNL     1      -0.044   7.074 -11.086  0.00  0.00    +0.037 A 
ATOM      3  C   UNL     1       0.295   7.176 -12.424  0.00  0.00    +0.001 A 
ATOM      4  C   UNL     1       0.754   6.071 -13.122  0.00  0.00    +0.007 A 
ATOM      5  C   UNL     1       0.595   4.850 -12.502  0.00  0.00    +0.001 A 
ATOM      6  C   UNL     1       0.285   4.727 -11.153  0.00  0.00    +0.037 A 
ENDROOT
BRANCH   1   7
ATOM      7  O   UNL     1       0.173   5.929  -9.038  0.00  0.00    -0.473 OA
BRANCH   7   8
ATOM      8  C   UNL     1       1.418   5.641  -8.411  0.00  0.00    +0.240 C 
BRANCH   8   9
ATOM      9  C   UNL     1       1.453   6.765  -7.206  0.00  0.00    +0.213 C 
ATOM     10  O   UNL     1       1.989   7.831  -8.146  0.00  0.00    -0.218 OA
BRANCH   9  11
ATOM     11  C   UNL     1       2.975   6.319  -6.755  0.00  0.00    +0.125 C 
BRANCH  11  12
ATOM     12  N   UNL     1       3.397   7.439  -5.943  0.00  0.00    -0.217 NA
BRANCH  12  14
ATOM     13  C   UNL     1       4.840   7.550  -4.445  0.00  0.00    +0.019 C 
ATOM     14  C   UNL     1       4.292   7.005  -4.882  0.00  0.00    +0.073 C 
ATOM     15  C   UNL     1       4.527   5.508  -4.917  0.00  0.00    +0.019 C 
ENDBRANCH  12  14
ENDBRANCH  11  12
ENDBRANCH   9  11
ENDBRANCH   8   9
ENDBRANCH   7   8
ENDBRANCH   1   7
BRANCH   4  16
ATOM     16  C   UNL     1       1.573   6.185 -14.347  0.00  0.00    +0.169 C 
BRANCH  16  17
ATOM     17  O   UNL     1       2.615   5.284 -14.275  0.00  0.00    -0.346 OA
BRANCH  17  18
ATOM     18  C   UNL     1       3.868   5.863 -14.360  0.00  0.00    +0.175 C 
BRANCH  18  19
ATOM     19  C   UNL     1       4.744   5.636 -13.186  0.00  0.00    +0.174 C 
BRANCH  19  20
ATOM     20  O   UNL     1       4.166   5.254 -12.030  0.00  0.00    -0.354 OA
BRANCH  20  21
ATOM     21  C   UNL     1       4.222   6.080 -10.952  0.00  0.00    +0.115 C 
ATOM     22  C   UNL     1       5.142   7.247 -11.044  0.00  0.00    +0.032 C 
ATOM     23  C   UNL     1       4.673   5.214  -9.779  0.00  0.00    +0.032 C 
ENDBRANCH  20  21
ENDBRANCH  19  20
ENDBRANCH  18  19
ENDBRANCH  17  18
ENDBRANCH  16  17
ENDBRANCH   4  16
TORSDOF 12
ENDMDL
MODEL 7
REMARK VINA RESULT:      -6.1      2.528      7.715
REMARK  Name = 
REMARK  12 active torsions:
REMARK  status: ('A' for Active; 'I' for Inactive)
REMARK    1  A    between atoms: C_2  and  N_4
REMARK    2  A    between atoms: N_4  and  C_5
REMARK    3  A    between atoms: C_5  and  C_6
REMARK    4  A    between atoms: C_6  and  C_8
REMARK    5  A    between atoms: C_8  and  O_9
REMARK    6  A    between atoms: O_9  and  C_10
REMARK    7  A    between atoms: C_13  and  C_14
REMARK    8  A    between atoms: C_14  and  O_15
REMARK    9  A    between atoms: O_15  and  C_16
REMARK   10  A    between atoms: C_16  and  C_17
REMARK   11  A    between atoms: C_17  and  O_18
REMARK   12  A    between atoms: O_18  and  C_19
REMARK                            x       y       z     vdW  Elec       q    Type
REMARK                         _______ _______ _______ _____ _____    ______ ____
ROOT
ATOM      1  C   UNL     1       2.455   5.418  -7.476  0.00  0.00    +0.139 A 
ATOM      2  C   UNL     1       3.103   4.411  -8.159  0.00  0.00    +0.037 A 
ATOM      3  C   UNL     1       3.698   4.667  -9.383  0.00  0.00    +0.001 A 
ATOM      4  C   UNL     1       3.672   5.941  -9.926  0.00  0.00    +0.007 A 
ATOM      5  C   UNL     1       3.279   6.957  -9.081  0.00  0.00    +0.001 A 
ATOM      6  C   UNL     1       2.653   6.720  -7.863  0.00  0.00    +0.037 A 
ENDROOT
BRANCH   1   7
ATOM      7  O   UNL     1       1.527   5.029  -6.520  0.00  0.00    -0.473 OA
BRANCH   7   8
ATOM      8  C   UNL     1       0.852   6.036  -5.775  0.00  0.00    +0.240 C 
BRANCH   8   9
ATOM      9  C   UNL     1       0.959   5.444  -4.240  0.00  0.00    +0.213 C 
ATOM     10  O   UNL     1      -0.166   6.342  -3.759  0.00  0.00    -0.218 OA
BRANCH   9  11
ATOM     11  C   UNL     1       2.101   6.560  -3.828  0.00  0.00    +0.125 C 
BRANCH  11  12
ATOM     12  N   UNL     1       3.162   5.733  -3.295  0.00  0.00    -0.217 NA
BRANCH  12  14
ATOM     13  C   UNL     1       4.736   4.849  -4.334  0.00  0.00    +0.019 C 
ATOM     14  C   UNL     1       4.238   5.580  -4.261  0.00  0.00    +0.073 C 
ATOM     15  C   UNL     1       4.714   6.917  -4.793  0.00  0.00    +0.019 C 
ENDBRANCH  12  14
ENDBRANCH  11  12
ENDBRANCH   9  11
ENDBRANCH   8   9
ENDBRANCH   7   8
ENDBRANCH   1   7
BRANCH   4  16
ATOM     16  C   UNL     1       3.829   6.194 -11.374  0.00  0.00    +0.169 C 
BRANCH  16  17
ATOM     17  O   UNL     1       4.439   5.101 -11.956  0.00  0.00    -0.346 OA
BRANCH  17  18
ATOM     18  C   UNL     1       5.200   5.407 -13.069  0.00  0.00    +0.175 C 
BRANCH  18  19
ATOM     19  C   UNL     1       6.588   5.839 -12.779  0.00  0.00    +0.174 C 
BRANCH  19  20
ATOM     20  O   UNL     1       7.224   5.268 -11.737  0.00  0.00    -0.354 OA
BRANCH  20  21
ATOM     21  C   UNL     1       7.706   6.054 -10.738  0.00  0.00    +0.115 C 
ATOM     22  C   UNL     1       7.341   5.675  -9.346  0.00  0.00    +0.032 C 
ATOM     23  C   UNL     1       7.163   7.456 -11.004  0.00  0.00    +0.032 C 
ENDBRANCH  20  21
ENDBRANCH  19  20
ENDBRANCH  18  19
ENDBRANCH  17  18
ENDBRANCH  16  17
ENDBRANCH   4  16
TORSDOF 12
ENDMDL
MODEL 8
REMARK VINA RESULT:      -6.0      4.123      5.899
REMARK  Name = 
REMARK  12 active torsions:
REMARK  status: ('A' for Active; 'I' for Inactive)
REMARK    1  A    between atoms: C_2  and  N_4
REMARK    2  A    between atoms: N_4  and  C_5
REMARK    3  A    between atoms: C_5  and  C_6
REMARK    4  A    between atoms: C_6  and  C_8
REMARK    5  A    between atoms: C_8  and  O_9
REMARK    6  A    between atoms: O_9  and  C_10
REMARK    7  A    between atoms: C_13  and  C_14
REMARK    8  A    between atoms: C_14  and  O_15
REMARK    9  A    between atoms: O_15  and  C_16
REMARK   10  A    between atoms: C_16  and  C_17
REMARK   11  A    between atoms: C_17  and  O_18
REMARK   12  A    between atoms: O_18  and  C_19
REMARK                            x       y       z     vdW  Elec       q    Type
REMARK                         _______ _______ _______ _____ _____    ______ ____
ROOT
ATOM      1  C   UNL     1      -0.408   6.433  -6.228  0.00  0.00    +0.139 A 
ATOM      2  C   UNL     1      -1.443   5.555  -6.470  0.00  0.00    +0.037 A 
ATOM      3  C   UNL     1      -2.471   5.416  -5.553  0.00  0.00    +0.001 A 
ATOM      4  C   UNL     1      -2.488   6.173  -4.393  0.00  0.00    +0.007 A 
ATOM      5  C   UNL     1      -1.605   7.230  -4.342  0.00  0.00    +0.001 A 
ATOM      6  C   UNL     1      -0.549   7.370  -5.235  0.00  0.00    +0.037 A 
ENDROOT
BRANCH   1   7
ATOM      7  O   UNL     1       0.773   6.216  -6.923  0.00  0.00    -0.473 OA
BRANCH   7   8
ATOM      8  C   UNL     1       0.756   5.336  -8.041  0.00  0.00    +0.240 C 
BRANCH   8   9
ATOM      9  C   UNL     1       2.261   4.668  -7.963  0.00  0.00    +0.213 C 
ATOM     10  O   UNL     1       1.887   3.839  -6.747  0.00  0.00    -0.218 OA
BRANCH   9  11
ATOM     11  C   UNL     1       2.821   5.900  -7.020  0.00  0.00    +0.125 C 
BRANCH  11  12
ATOM     12  N   UNL     1       4.132   5.423  -6.636  0.00  0.00    -0.217 NA
BRANCH  12  14
ATOM     13  C   UNL     1       4.781   5.315  -4.660  0.00  0.00    +0.019 C 
ATOM     14  C   UNL     1       4.471   5.857  -5.290  0.00  0.00    +0.073 C 
ATOM     15  C   UNL     1       3.824   7.184  -4.945  0.00  0.00    +0.019 C 
ENDBRANCH  12  14
ENDBRANCH  11  12
ENDBRANCH   9  11
ENDBRANCH   8   9
ENDBRANCH   7   8
ENDBRANCH   1   7
BRANCH   4  16
ATOM     16  C   UNL     1      -3.230   5.760  -3.183  0.00  0.00    +0.169 C 
BRANCH  16  17
ATOM     17  O   UNL     1      -2.383   5.043  -2.362  0.00  0.00    -0.346 OA
BRANCH  17  18
ATOM     18  C   UNL     1      -2.168   5.626  -1.127  0.00  0.00    +0.175 C 
BRANCH  18  19
ATOM     19  C   UNL     1      -0.750   5.921  -0.812  0.00  0.00    +0.174 C 
BRANCH  19  20
ATOM     20  O   UNL     1       0.189   5.068  -1.266  0.00  0.00    -0.354 OA
BRANCH  20  21
ATOM     21  C   UNL     1       1.189   5.537  -2.058  0.00  0.00    +0.115 C 
ATOM     22  C   UNL     1       1.245   5.017  -3.452  0.00  0.00    +0.032 C 
ATOM     23  C   UNL     1       2.493   5.162  -1.361  0.00  0.00    +0.032 C 
ENDBRANCH  20  21
ENDBRANCH  19  20
ENDBRANCH  18  19
ENDBRANCH  17  18
ENDBRANCH  16  17
ENDBRANCH   4  16
TORSDOF 12
ENDMDL
MODEL 9
REMARK VINA RESULT:      -6.0      1.967      3.104
REMARK  Name = 
REMARK  12 active torsions:
REMARK  status: ('A' for Active; 'I' for Inactive)
REMARK    1  A    between atoms: C_2  and  N_4
REMARK    2  A    between atoms: N_4  and  C_5
REMARK    3  A    between atoms: C_5  and  C_6
REMARK    4  A    between atoms: C_6  and  C_8
REMARK    5  A    between atoms: C_8  and  O_9
REMARK    6  A    between atoms: O_9  and  C_10
REMARK    7  A    between atoms: C_13  and  C_14
REMARK    8  A    between atoms: C_14  and  O_15
REMARK    9  A    between atoms: O_15  and  C_16
REMARK   10  A    between atoms: C_16  and  C_17
REMARK   11  A    between atoms: C_17  and  O_18
REMARK   12  A    between atoms: O_18  and  C_19
REMARK                            x       y       z     vdW  Elec       q    Type
REMARK                         _______ _______ _______ _____ _____    ______ ____
ROOT
ATOM      1  C   UNL     1       4.345   5.817  -6.025  0.00  0.00    +0.139 A 
ATOM      2  C   UNL     1       3.793   7.020  -5.637  0.00  0.00    +0.037 A 
ATOM      3  C   UNL     1       3.366   7.205  -4.333  0.00  0.00    +0.001 A 
ATOM      4  C   UNL     1       3.507   6.195  -3.395  0.00  0.00    +0.007 A 
ATOM      5  C   UNL     1       4.320   5.141  -3.752  0.00  0.00    +0.001 A 
ATOM      6  C   UNL     1       4.735   4.922  -5.060  0.00  0.00    +0.037 A 
ENDROOT
BRANCH   1   7
ATOM      7  O   UNL     1       4.339   5.535  -7.384  0.00  0.00    -0.473 OA
BRANCH   7   8
ATOM      8  C   UNL     1       3.446   6.254  -8.227  0.00  0.00    +0.240 C 
BRANCH   8   9
ATOM      9  C   UNL     1       3.579   5.418  -9.642  0.00  0.00    +0.213 C 
ATOM     10  O   UNL     1       3.948   4.139  -8.912  0.00  0.00    -0.218 OA
BRANCH   9  11
ATOM     11  C   UNL     1       5.164   5.844  -9.811  0.00  0.00    +0.125 C 
BRANCH  11  12
ATOM     12  N   UNL     1       5.068   7.144 -10.439  0.00  0.00    -0.217 NA
BRANCH  12  14
ATOM     13  C   UNL     1       6.409   7.849 -11.868  0.00  0.00    +0.019 C 
ATOM     14  C   UNL     1       6.334   7.524 -11.046  0.00  0.00    +0.073 C 
ATOM     15  C   UNL     1       7.514   6.894 -10.334  0.00  0.00    +0.019 C 
ENDBRANCH  12  14
ENDBRANCH  11  12
ENDBRANCH   9  11
ENDBRANCH   8   9
ENDBRANCH   7   8
ENDBRANCH   1   7
BRANCH   4  16
ATOM     16  C   UNL     1       2.673   6.116  -2.178  0.00  0.00    +0.169 C 
BRANCH  16  17
ATOM     17  O   UNL     1       1.379   6.477  -2.497  0.00  0.00    -0.346 OA
BRANCH  17  18
ATOM     18  C   UNL     1       0.519   5.406  -2.658  0.00  0.00    +0.175 C 
BRANCH  18  19
ATOM     19  C   UNL     1      -0.280   5.427  -3.906  0.00  0.00    +0.174 C 
BRANCH  19  20
ATOM     20  O   UNL     1       0.165   6.183  -4.929  0.00  0.00    -0.354 OA
BRANCH  20  21
ATOM     21  C   UNL     1       0.195   5.657  -6.182  0.00  0.00    +0.115 C 
ATOM     22  C   UNL     1      -1.116   5.388  -6.833  0.00  0.00    +0.032 C 
ATOM     23  C   UNL     1       0.947   4.334  -6.068  0.00  0.00    +0.032 C 
ENDBRANCH  20  21
ENDBRANCH  19  20
ENDBRANCH  18  19
ENDBRANCH  17  18
ENDBRANCH  16  17
ENDBRANCH   4  16
TORSDOF 12
ENDMDL
