MODEL 1
REMARK VINA RESULT:      -7.7      0.000      0.000
REMARK  Name = 
REMARK  9 active torsions:
REMARK  status: ('A' for Active; 'I' for Inactive)
REMARK    1  A    between atoms: C_2  and  C_3
REMARK    2  A    between atoms: N_5  and  C_6
REMARK    3  A    between atoms: N_5  and  C_12
REMARK    4  A    between atoms: C_12  and  C_13
REMARK    5  A    between atoms: C_13  and  O_15
REMARK    6  A    between atoms: N_19  and  C_20
REMARK    7  A    between atoms: C_20  and  C_21
REMARK    8  A    between atoms: C_21  and  C_22
REMARK    9  A    between atoms: C_22  and  O_24
REMARK                            x       y       z     vdW  Elec       q    Type
REMARK                         _______ _______ _______ _____ _____    ______ ____
ROOT
ATOM      1  C   UNL     1       1.921   5.455  -8.752  0.00  0.00    +0.156 C 
ATOM      2  C   UNL     1       2.599   6.813  -8.744  0.00  0.00    +0.047 C 
ATOM      3  C   UNL     1       4.088   6.644  -8.547  0.00  0.00    +0.074 C 
ATOM      4  N   UNL     1       4.658   6.129  -9.790  0.00  0.00    -0.272 NA
ATOM      5  C   UNL     1       3.800   5.043 -10.240  0.00  0.00    +0.074 C 
ATOM      6  C   UNL     1       3.013   4.443  -9.079  0.00  0.00    +0.047 C 
ENDROOT
BRANCH   1   8
ATOM      7  C   UNL     1       2.038   4.522  -6.473  0.00  0.00    +0.230 C 
ATOM      8  N   UNL     1       1.289   5.191  -7.489  0.00  0.00    -0.252 N 
ATOM      9  O   UNL     1       1.632   3.411  -6.080  0.00  0.00    -0.275 OA
BRANCH   8  10
ATOM     10  C   UNL     1       0.162   5.947  -7.026  0.00  0.00    +0.054 A 
ATOM     11  C   UNL     1      -1.096   5.374  -7.165  0.00  0.00    +0.015 A 
ATOM     12  C   UNL     1      -2.088   5.552  -6.208  0.00  0.00    +0.001 A 
ATOM     13  C   UNL     1      -1.877   6.399  -5.142  0.00  0.00    +0.000 A 
ATOM     14  C   UNL     1      -0.758   7.207  -5.183  0.00  0.00    +0.001 A 
ATOM     15  C   UNL     1       0.338   6.708  -5.877  0.00  0.00    +0.015 A 
ENDBRANCH   8  10
BRANCH   7  17
ATOM     16  C   UNL     1       3.672   4.631  -4.602  0.00  0.00    +0.010 C 
ATOM     17  C   UNL     1       3.383   4.972  -6.039  0.00  0.00    +0.086 C 
ENDBRANCH   7  17
ENDBRANCH   1   8
BRANCH   1  18
ATOM     18  C   UNL     1       0.877   5.500  -9.804  0.00  0.00    +0.334 C 
ATOM     19  O   UNL     1       0.376   4.440 -10.284  0.00  0.00    -0.248 OA
BRANCH  18  20
ATOM     20  O   UNL     1       0.679   6.704 -10.457  0.00  0.00    -0.443 OA
ATOM     21  C   UNL     1      -0.472   6.933 -11.232  0.00  0.00    +0.256 C 
ENDBRANCH  18  20
ENDBRANCH   1  18
BRANCH   4  22
ATOM     22  C   UNL     1       4.678   7.199 -10.754  0.00  0.00    +0.084 C 
BRANCH  22  23
ATOM     23  C   UNL     1       6.062   7.600 -11.178  0.00  0.00    +0.127 C 
BRANCH  23  24
ATOM     24  C   UNL     1       7.109   6.651 -10.709  0.00  0.00    +0.319 C 
ATOM     25  O   UNL     1       7.999   7.039  -9.893  0.00  0.00    -0.250 OA
BRANCH  24  26
ATOM     26  O   UNL     1       7.542   5.713 -11.651  0.00  0.00    -0.444 OA
ATOM     27  C   UNL     1       8.739   5.861 -12.382  0.00  0.00    +0.256 C 
ENDBRANCH  24  26
ENDBRANCH  23  24
ENDBRANCH  22  23
ENDBRANCH   4  22
TORSDOF 9
ENDMDL
MODEL 2
REMARK VINA RESULT:      -7.3      2.994      7.112
REMARK  Name = 
REMARK  9 active torsions:
REMARK  status: ('A' for Active; 'I' for Inactive)
REMARK    1  A    between atoms: C_2  and  C_3
REMARK    2  A    between atoms: N_5  and  C_6
REMARK    3  A    between atoms: N_5  and  C_12
REMARK    4  A    between atoms: C_12  and  C_13
REMARK    5  A    between atoms: C_13  and  O_15
REMARK    6  A    between atoms: N_19  and  C_20
REMARK    7  A    between atoms: C_20  and  C_21
REMARK    8  A    between atoms: C_21  and  C_22
REMARK    9  A    between atoms: C_22  and  O_24
REMARK                            x       y       z     vdW  Elec       q    Type
REMARK                         _______ _______ _______ _____ _____    ______ ____
ROOT
ATOM      1  C   UNL     1       2.889   6.063  -6.564  0.00  0.00    +0.156 C 
ATOM      2  C   UNL     1       2.493   4.948  -5.614  0.00  0.00    +0.047 C 
ATOM      3  C   UNL     1       3.600   4.706  -4.614  0.00  0.00    +0.074 C 
ATOM      4  N   UNL     1       3.600   5.810  -3.657  0.00  0.00    -0.272 NA
ATOM      5  C   UNL     1       3.492   7.043  -4.422  0.00  0.00    +0.074 C 
ATOM      6  C   UNL     1       3.983   6.851  -5.853  0.00  0.00    +0.047 C 
ENDROOT
BRANCH   1   8
ATOM      7  C   UNL     1       2.445   4.671  -8.550  0.00  0.00    +0.230 C 
ATOM      8  N   UNL     1       3.326   5.530  -7.825  0.00  0.00    -0.252 N 
ATOM      9  O   UNL     1       2.808   3.497  -8.757  0.00  0.00    -0.275 OA
BRANCH   8  10
ATOM     10  C   UNL     1       4.355   6.156  -8.603  0.00  0.00    +0.054 A 
ATOM     11  C   UNL     1       5.593   5.528  -8.655  0.00  0.00    +0.015 A 
ATOM     12  C   UNL     1       6.364   5.532  -9.810  0.00  0.00    +0.001 A 
ATOM     13  C   UNL     1       5.961   6.259 -10.910  0.00  0.00    +0.000 A 
ATOM     14  C   UNL     1       4.905   7.132 -10.741  0.00  0.00    +0.001 A 
ATOM     15  C   UNL     1       3.965   6.786  -9.778  0.00  0.00    +0.015 A 
ENDBRANCH   8  10
BRANCH   7  17
ATOM     16  C   UNL     1       0.724   4.931 -10.325  0.00  0.00    +0.010 C 
ATOM     17  C   UNL     1       1.041   5.036  -8.858  0.00  0.00    +0.086 C 
ENDBRANCH   7  17
ENDBRANCH   1   8
BRANCH   1  18
ATOM     18  C   UNL     1       1.676   6.885  -6.793  0.00  0.00    +0.334 C 
ATOM     19  O   UNL     1       1.746   8.029  -7.335  0.00  0.00    -0.248 OA
BRANCH  18  20
ATOM     20  O   UNL     1       0.517   6.512  -6.135  0.00  0.00    -0.443 OA
ATOM     21  C   UNL     1      -0.113   7.375  -5.221  0.00  0.00    +0.256 C 
ENDBRANCH  18  20
ENDBRANCH   1  18
BRANCH   4  22
ATOM     22  C   UNL     1       2.467   5.650  -2.782  0.00  0.00    +0.084 C 
BRANCH  22  23
ATOM     23  C   UNL     1       2.772   5.950  -1.342  0.00  0.00    +0.127 C 
BRANCH  23  24
ATOM     24  C   UNL     1       4.048   5.337  -0.881  0.00  0.00    +0.319 C 
ATOM     25  O   UNL     1       4.154   4.076  -0.799  0.00  0.00    -0.250 OA
BRANCH  24  26
ATOM     26  O   UNL     1       4.745   6.052   0.099  0.00  0.00    -0.444 OA
ATOM     27  C   UNL     1       4.268   7.263   0.643  0.00  0.00    +0.256 C 
ENDBRANCH  24  26
ENDBRANCH  23  24
ENDBRANCH  22  23
ENDBRANCH   4  22
TORSDOF 9
ENDMDL
MODEL 3
REMARK VINA RESULT:      -7.2      1.842      3.492
REMARK  Name = 
REMARK  9 active torsions:
REMARK  status: ('A' for Active; 'I' for Inactive)
REMARK    1  A    between atoms: C_2  and  C_3
REMARK    2  A    between atoms: N_5  and  C_6
REMARK    3  A    between atoms: N_5  and  C_12
REMARK    4  A    between atoms: C_12  and  C_13
REMARK    5  A    between atoms: C_13  and  O_15
REMARK    6  A    between atoms: N_19  and  C_20
REMARK    7  A    between atoms: C_20  and  C_21
REMARK    8  A    between atoms: C_21  and  C_22
REMARK    9  A    between atoms: C_22  and  O_24
REMARK                            x       y       z     vdW  Elec       q    Type
REMARK                         _______ _______ _______ _____ _____    ______ ____
ROOT
ATOM      1  C   UNL     1       2.851   6.132  -7.582  0.00  0.00    +0.156 C 
ATOM      2  C   UNL     1       4.284   6.534  -7.881  0.00  0.00    +0.047 C 
ATOM      3  C   UNL     1       5.136   5.300  -8.070  0.00  0.00    +0.074 C 
ATOM      4  N   UNL     1       4.806   4.711  -9.365  0.00  0.00    -0.272 NA
ATOM      5  C   UNL     1       3.355   4.684  -9.469  0.00  0.00    +0.074 C 
ATOM      6  C   UNL     1       2.701   4.703  -8.090  0.00  0.00    +0.047 C 
ENDROOT
BRANCH   1   8
ATOM      7  C   UNL     1       1.236   6.013  -5.723  0.00  0.00    +0.230 C 
ATOM      8  N   UNL     1       2.570   6.247  -6.178  0.00  0.00    -0.252 N 
ATOM      9  O   UNL     1       0.627   6.954  -5.177  0.00  0.00    -0.275 OA
BRANCH   8  10
ATOM     10  C   UNL     1       3.592   6.117  -5.181  0.00  0.00    +0.054 A 
ATOM     11  C   UNL     1       4.067   7.283  -4.592  0.00  0.00    +0.015 A 
ATOM     12  C   UNL     1       4.422   7.329  -3.250  0.00  0.00    +0.001 A 
ATOM     13  C   UNL     1       4.411   6.180  -2.490  0.00  0.00    +0.000 A 
ATOM     14  C   UNL     1       4.251   4.980  -3.155  0.00  0.00    +0.001 A 
ATOM     15  C   UNL     1       3.512   5.021  -4.332  0.00  0.00    +0.015 A 
ENDBRANCH   8  10
BRANCH   7  17
ATOM     16  C   UNL     1      -0.921   5.102  -6.560  0.00  0.00    +0.010 C 
ATOM     17  C   UNL     1       0.470   4.793  -6.077  0.00  0.00    +0.086 C 
ENDBRANCH   7  17
ENDBRANCH   1   8
BRANCH   1  18
ATOM     18  C   UNL     1       1.977   7.076  -8.319  0.00  0.00    +0.334 C 
ATOM     19  O   UNL     1       2.016   8.323  -8.099  0.00  0.00    -0.248 OA
BRANCH  18  20
ATOM     20  O   UNL     1       0.915   6.541  -9.029  0.00  0.00    -0.443 OA
ATOM     21  C   UNL     1       0.704   6.867 -10.381  0.00  0.00    +0.256 C 
ENDBRANCH  18  20
ENDBRANCH   1  18
BRANCH   4  22
ATOM     22  C   UNL     1       5.377   5.539 -10.396  0.00  0.00    +0.084 C 
BRANCH  22  23
ATOM     23  C   UNL     1       6.865   5.706 -10.278  0.00  0.00    +0.127 C 
BRANCH  23  24
ATOM     24  C   UNL     1       7.593   5.307 -11.514  0.00  0.00    +0.319 C 
ATOM     25  O   UNL     1       8.675   5.886 -11.829  0.00  0.00    -0.250 OA
BRANCH  24  26
ATOM     26  O   UNL     1       6.790   4.929 -12.595  0.00  0.00    -0.444 OA
ATOM     27  C   UNL     1       6.887   5.535 -13.866  0.00  0.00    +0.256 C 
ENDBRANCH  24  26
ENDBRANCH  23  24
ENDBRANCH  22  23
ENDBRANCH   4  22
TORSDOF 9
ENDMDL
MODEL 4
REMARK VINA RESULT:      -7.0      2.840      7.295
REMARK  Name = 
REMARK  9 active torsions:
REMARK  status: ('A' for Active; 'I' for Inactive)
REMARK    1  A    between atoms: C_2  and  C_3
REMARK    2  A    between atoms: N_5  and  C_6
REMARK    3  A    between atoms: N_5  and  C_12
REMARK    4  A    between atoms: C_12  and  C_13
REMARK    5  A    between atoms: C_13  and  O_15
REMARK    6  A    between atoms: N_19  and  C_20
REMARK    7  A    between atoms: C_20  and  C_21
REMARK    8  A    between atoms: C_21  and  C_22
REMARK    9  A    between atoms: C_22  and  O_24
REMARK                            x       y       z     vdW  Elec       q    Type
REMARK                         _______ _______ _______ _____ _____    ______ ____
ROOT
ATOM      1  C   UNL     1       3.049   5.908  -6.251  0.00  0.00    +0.156 C 
ATOM      2  C   UNL     1       2.784   4.740  -5.319  0.00  0.00    +0.047 C 
ATOM      3  C   UNL     1       4.006   4.471  -4.471  0.00  0.00    +0.074 C 
ATOM      4  N   UNL     1       4.106   5.527  -3.465  0.00  0.00    -0.272 NA
ATOM      5  C   UNL     1       3.890   6.793  -4.148  0.00  0.00    +0.074 C 
ATOM      6  C   UNL     1       4.210   6.681  -5.636  0.00  0.00    +0.047 C 
ENDROOT
BRANCH   1   8
ATOM      7  C   UNL     1       2.362   4.662  -8.264  0.00  0.00    +0.230 C 
ATOM      8  N   UNL     1       3.340   5.447  -7.580  0.00  0.00    -0.252 N 
ATOM      9  O   UNL     1       2.662   3.494  -8.580  0.00  0.00    -0.275 OA
BRANCH   8  10
ATOM     10  C   UNL     1       4.307   6.093  -8.418  0.00  0.00    +0.054 A 
ATOM     11  C   UNL     1       5.537   5.467  -8.580  0.00  0.00    +0.015 A 
ATOM     12  C   UNL     1       6.219   5.501  -9.790  0.00  0.00    +0.001 A 
ATOM     13  C   UNL     1       5.734   6.254 -10.837  0.00  0.00    +0.000 A 
ATOM     14  C   UNL     1       4.695   7.122 -10.568  0.00  0.00    +0.001 A 
ATOM     15  C   UNL     1       3.830   6.751  -9.545  0.00  0.00    +0.015 A 
ENDBRANCH   8  10
BRANCH   7  17
ATOM     16  C   UNL     1       0.491   5.111  -9.839  0.00  0.00    +0.010 C 
ATOM     17  C   UNL     1       0.948   5.086  -8.405  0.00  0.00    +0.086 C 
ENDBRANCH   7  17
ENDBRANCH   1   8
BRANCH   1  18
ATOM     18  C   UNL     1       1.807   6.717  -6.292  0.00  0.00    +0.334 C 
ATOM     19  O   UNL     1       1.771   7.845  -6.868  0.00  0.00    -0.248 OA
BRANCH  18  20
ATOM     20  O   UNL     1       0.780   6.355  -5.438  0.00  0.00    -0.443 OA
ATOM     21  C   UNL     1      -0.292   7.227  -5.175  0.00  0.00    +0.256 C 
ENDBRANCH  18  20
ENDBRANCH   1  18
BRANCH   4  22
ATOM     22  C   UNL     1       3.087   5.301  -2.472  0.00  0.00    +0.084 C 
BRANCH  22  23
ATOM     23  C   UNL     1       2.305   6.535  -2.123  0.00  0.00    +0.127 C 
BRANCH  23  24
ATOM     24  C   UNL     1       1.415   6.342  -0.945  0.00  0.00    +0.319 C 
ATOM     25  O   UNL     1       1.874   6.480   0.228  0.00  0.00    -0.250 OA
BRANCH  24  26
ATOM     26  O   UNL     1       0.433   5.355  -1.082  0.00  0.00    -0.444 OA
ATOM     27  C   UNL     1      -0.761   5.562  -1.803  0.00  0.00    +0.256 C 
ENDBRANCH  24  26
ENDBRANCH  23  24
ENDBRANCH  22  23
ENDBRANCH   4  22
TORSDOF 9
ENDMDL
MODEL 5
REMARK VINA RESULT:      -7.0      2.685      7.779
REMARK  Name = 
REMARK  9 active torsions:
REMARK  status: ('A' for Active; 'I' for Inactive)
REMARK    1  A    between atoms: C_2  and  C_3
REMARK    2  A    between atoms: N_5  and  C_6
REMARK    3  A    between atoms: N_5  and  C_12
REMARK    4  A    between atoms: C_12  and  C_13
REMARK    5  A    between atoms: C_13  and  O_15
REMARK    6  A    between atoms: N_19  and  C_20
REMARK    7  A    between atoms: C_20  and  C_21
REMARK    8  A    between atoms: C_21  and  C_22
REMARK    9  A    between atoms: C_22  and  O_24
REMARK                            x       y       z     vdW  Elec       q    Type
REMARK                         _______ _______ _______ _____ _____    ______ ____
ROOT
ATOM      1  C   UNL     1       2.502   5.493  -6.527  0.00  0.00    +0.156 C 
ATOM      2  C   UNL     1       1.569   6.681  -6.675  0.00  0.00    +0.047 C 
ATOM      3  C   UNL     1       0.134   6.207  -6.711  0.00  0.00    +0.074 C 
ATOM      4  N   UNL     1      -0.248   5.804  -5.360  0.00  0.00    -0.272 NA
ATOM      5  C   UNL     1       0.834   4.985  -4.833  0.00  0.00    +0.074 C 
ATOM      6  C   UNL     1       1.654   4.362  -5.958  0.00  0.00    +0.047 C 
ENDROOT
BRANCH   1   8
ATOM      7  C   UNL     1       2.369   4.314  -8.688  0.00  0.00    +0.230 C 
ATOM      8  N   UNL     1       3.098   5.150  -7.789  0.00  0.00    -0.252 N 
ATOM      9  O   UNL     1       2.855   3.206  -8.987  0.00  0.00    -0.275 OA
BRANCH   8  10
ATOM     10  C   UNL     1       4.130   5.945  -8.387  0.00  0.00    +0.054 A 
ATOM     11  C   UNL     1       5.424   5.439  -8.366  0.00  0.00    +0.015 A 
ATOM     12  C   UNL     1       6.301   5.636  -9.426  0.00  0.00    +0.001 A 
ATOM     13  C   UNL     1       5.937   6.437 -10.486  0.00  0.00    +0.000 A 
ATOM     14  C   UNL     1       4.788   7.190 -10.349  0.00  0.00    +0.001 A 
ATOM     15  C   UNL     1       3.797   6.660  -9.531  0.00  0.00    +0.015 A 
ENDBRANCH   8  10
BRANCH   7  17
ATOM     16  C   UNL     1       0.816   4.740 -10.583  0.00  0.00    +0.010 C 
ATOM     17  C   UNL     1       0.970   4.598  -9.093  0.00  0.00    +0.086 C 
ENDBRANCH   7  17
ENDBRANCH   1   8
BRANCH   1  18
ATOM     18  C   UNL     1       3.577   5.902  -5.591  0.00  0.00    +0.334 C 
ATOM     19  O   UNL     1       4.338   5.049  -5.044  0.00  0.00    -0.248 OA
BRANCH  18  20
ATOM     20  O   UNL     1       3.538   7.195  -5.099  0.00  0.00    -0.443 OA
ATOM     21  C   UNL     1       3.614   7.452  -3.718  0.00  0.00    +0.256 C 
ENDBRANCH  18  20
ENDBRANCH   1  18
BRANCH   4  22
ATOM     22  C   UNL     1      -0.422   6.993  -4.567  0.00  0.00    +0.084 C 
BRANCH  22  23
ATOM     23  C   UNL     1      -1.761   7.073  -3.890  0.00  0.00    +0.127 C 
BRANCH  23  24
ATOM     24  C   UNL     1      -1.765   6.449  -2.538  0.00  0.00    +0.319 C 
ATOM     25  O   UNL     1      -1.928   5.198  -2.416  0.00  0.00    -0.250 OA
BRANCH  24  26
ATOM     26  O   UNL     1      -2.329   7.220  -1.516  0.00  0.00    -0.444 OA
ATOM     27  C   UNL     1      -1.604   7.621  -0.374  0.00  0.00    +0.256 C 
ENDBRANCH  24  26
ENDBRANCH  23  24
ENDBRANCH  22  23
ENDBRANCH   4  22
TORSDOF 9
ENDMDL
MODEL 6
REMARK VINA RESULT:      -7.0      2.556      7.118
REMARK  Name = 
REMARK  9 active torsions:
REMARK  status: ('A' for Active; 'I' for Inactive)
REMARK    1  A    between atoms: C_2  and  C_3
REMARK    2  A    between atoms: N_5  and  C_6
REMARK    3  A    between atoms: N_5  and  C_12
REMARK    4  A    between atoms: C_12  and  C_13
REMARK    5  A    between atoms: C_13  and  O_15
REMARK    6  A    between atoms: N_19  and  C_20
REMARK    7  A    between atoms: C_20  and  C_21
REMARK    8  A    between atoms: C_21  and  C_22
REMARK    9  A    between atoms: C_22  and  O_24
REMARK                            x       y       z     vdW  Elec       q    Type
REMARK                         _______ _______ _______ _____ _____    ______ ____
ROOT
ATOM      1  C   UNL     1       1.668   6.086  -7.764  0.00  0.00    +0.156 C 
ATOM      2  C   UNL     1       0.200   6.398  -7.536  0.00  0.00    +0.047 C 
ATOM      3  C   UNL     1      -0.553   5.128  -7.217  0.00  0.00    +0.074 C 
ATOM      4  N   UNL     1      -0.209   4.722  -5.856  0.00  0.00    -0.272 NA
ATOM      5  C   UNL     1       1.237   4.827  -5.729  0.00  0.00    +0.074 C 
ATOM      6  C   UNL     1       1.920   4.742  -7.090  0.00  0.00    +0.047 C 
ENDROOT
BRANCH   1   8
ATOM      7  C   UNL     1       3.312   5.772  -9.574  0.00  0.00    +0.230 C 
ATOM      8  N   UNL     1       1.973   6.061  -9.168  0.00  0.00    -0.252 N 
ATOM      9  O   UNL     1       3.939   6.650 -10.198  0.00  0.00    -0.275 OA
BRANCH   8  10
ATOM     10  C   UNL     1       0.967   5.844 -10.165  0.00  0.00    +0.054 A 
ATOM     11  C   UNL     1       0.756   6.854 -11.096  0.00  0.00    +0.015 A 
ATOM     12  C   UNL     1       0.444   6.571 -12.420  0.00  0.00    +0.001 A 
ATOM     13  C   UNL     1       0.231   5.270 -12.819  0.00  0.00    +0.000 A 
ATOM     14  C   UNL     1       0.125   4.312 -11.831  0.00  0.00    +0.001 A 
ATOM     15  C   UNL     1       0.833   4.552 -10.659  0.00  0.00    +0.015 A 
ENDBRANCH   8  10
BRANCH   7  17
ATOM     16  C   UNL     1       5.412   4.939  -8.537  0.00  0.00    +0.010 C 
ATOM     17  C   UNL     1       4.059   4.585  -9.091  0.00  0.00    +0.086 C 
ENDBRANCH   7  17
ENDBRANCH   1   8
BRANCH   1  18
ATOM     18  C   UNL     1       2.445   7.177  -7.129  0.00  0.00    +0.334 C 
ATOM     19  O   UNL     1       2.283   8.387  -7.468  0.00  0.00    -0.248 OA
BRANCH  18  20
ATOM     20  O   UNL     1       3.554   6.821  -6.381  0.00  0.00    -0.443 OA
ATOM     21  C   UNL     1       3.731   7.294  -5.069  0.00  0.00    +0.256 C 
ENDBRANCH  18  20
ENDBRANCH   1  18
BRANCH   4  22
ATOM     22  C   UNL     1      -0.870   5.613  -4.938  0.00  0.00    +0.084 C 
BRANCH  22  23
ATOM     23  C   UNL     1      -0.044   5.952  -3.730  0.00  0.00    +0.127 C 
BRANCH  23  24
ATOM     24  C   UNL     1      -0.573   5.347  -2.478  0.00  0.00    +0.319 C 
ATOM     25  O   UNL     1       0.156   4.572  -1.788  0.00  0.00    -0.250 OA
BRANCH  24  26
ATOM     26  O   UNL     1      -1.933   5.020  -2.489  0.00  0.00    -0.444 OA
ATOM     27  C   UNL     1      -2.947   5.964  -2.223  0.00  0.00    +0.256 C 
ENDBRANCH  24  26
ENDBRANCH  23  24
ENDBRANCH  22  23
ENDBRANCH   4  22
TORSDOF 9
ENDMDL
MODEL 7
REMARK VINA RESULT:      -6.9      1.691      2.086
REMARK  Name = 
REMARK  9 active torsions:
REMARK  status: ('A' for Active; 'I' for Inactive)
REMARK    1  A    between atoms: C_2  and  C_3
REMARK    2  A    between atoms: N_5  and  C_6
REMARK    3  A    between atoms: N_5  and  C_12
REMARK    4  A    between atoms: C_12  and  C_13
REMARK    5  A    between atoms: C_13  and  O_15
REMARK    6  A    between atoms: N_19  and  C_20
REMARK    7  A    between atoms: C_20  and  C_21
REMARK    8  A    between atoms: C_21  and  C_22
REMARK    9  A    between atoms: C_22  and  O_24
REMARK                            x       y       z     vdW  Elec       q    Type
REMARK                         _______ _______ _______ _____ _____    ______ ____
ROOT
ATOM      1  C   UNL     1       2.350   5.996  -7.438  0.00  0.00    +0.156 C 
ATOM      2  C   UNL     1       3.796   6.350  -7.142  0.00  0.00    +0.047 C 
ATOM      3  C   UNL     1       4.645   5.100  -7.153  0.00  0.00    +0.074 C 
ATOM      4  N   UNL     1       4.812   4.674  -8.541  0.00  0.00    -0.272 NA
ATOM      5  C   UNL     1       3.501   4.735  -9.170  0.00  0.00    +0.074 C 
ATOM      6  C   UNL     1       2.385   4.640  -8.134  0.00  0.00    +0.047 C 
ENDROOT
BRANCH   1   8
ATOM      7  C   UNL     1       2.248   6.047  -4.975  0.00  0.00    +0.230 C 
ATOM      8  N   UNL     1       1.571   5.973  -6.231  0.00  0.00    -0.252 N 
ATOM      9  O   UNL     1       2.145   5.082  -4.193  0.00  0.00    -0.275 OA
BRANCH   8  10
ATOM     10  C   UNL     1       0.188   6.347  -6.208  0.00  0.00    +0.054 A 
ATOM     11  C   UNL     1      -0.747   5.370  -6.529  0.00  0.00    +0.015 A 
ATOM     12  C   UNL     1      -1.980   5.304  -5.891  0.00  0.00    +0.001 A 
ATOM     13  C   UNL     1      -2.348   6.280  -4.991  0.00  0.00    +0.000 A 
ATOM     14  C   UNL     1      -1.557   7.409  -4.920  0.00  0.00    +0.001 A 
ATOM     15  C   UNL     1      -0.211   7.240  -5.221  0.00  0.00    +0.015 A 
ENDBRANCH   8  10
BRANCH   7  17
ATOM     16  C   UNL     1       4.106   6.749  -3.480  0.00  0.00    +0.010 C 
ATOM     17  C   UNL     1       3.244   7.101  -4.661  0.00  0.00    +0.086 C 
ENDBRANCH   7  17
ENDBRANCH   1   8
BRANCH   1  18
ATOM     18  C   UNL     1       1.819   7.059  -8.325  0.00  0.00    +0.334 C 
ATOM     19  O   UNL     1       2.080   8.282  -8.120  0.00  0.00    -0.248 OA
BRANCH  18  20
ATOM     20  O   UNL     1       0.797   6.716  -9.193  0.00  0.00    -0.443 OA
ATOM     21  C   UNL     1       0.942   6.863 -10.584  0.00  0.00    +0.256 C 
ENDBRANCH  18  20
ENDBRANCH   1  18
BRANCH   4  22
ATOM     22  C   UNL     1       5.731   5.577  -9.184  0.00  0.00    +0.084 C 
BRANCH  22  23
ATOM     23  C   UNL     1       5.384   5.869 -10.616  0.00  0.00    +0.127 C 
BRANCH  23  24
ATOM     24  C   UNL     1       6.451   5.451 -11.567  0.00  0.00    +0.319 C 
ATOM     25  O   UNL     1       7.579   6.031 -11.551  0.00  0.00    -0.250 OA
BRANCH  24  26
ATOM     26  O   UNL     1       6.013   5.049 -12.832  0.00  0.00    -0.444 OA
ATOM     27  C   UNL     1       4.652   5.047 -13.203  0.00  0.00    +0.256 C 
ENDBRANCH  24  26
ENDBRANCH  23  24
ENDBRANCH  22  23
ENDBRANCH   4  22
TORSDOF 9
ENDMDL
MODEL 8
REMARK VINA RESULT:      -6.7      2.238      3.504
REMARK  Name = 
REMARK  9 active torsions:
REMARK  status: ('A' for Active; 'I' for Inactive)
REMARK    1  A    between atoms: C_2  and  C_3
REMARK    2  A    between atoms: N_5  and  C_6
REMARK    3  A    between atoms: N_5  and  C_12
REMARK    4  A    between atoms: C_12  and  C_13
REMARK    5  A    between atoms: C_13  and  O_15
REMARK    6  A    between atoms: N_19  and  C_20
REMARK    7  A    between atoms: C_20  and  C_21
REMARK    8  A    between atoms: C_21  and  C_22
REMARK    9  A    between atoms: C_22  and  O_24
REMARK                            x       y       z     vdW  Elec       q    Type
REMARK                         _______ _______ _______ _____ _____    ______ ____
ROOT
ATOM      1  C   UNL     1       2.306   6.134  -6.363  0.00  0.00    +0.156 C 
ATOM      2  C   UNL     1       2.461   4.823  -7.112  0.00  0.00    +0.047 C 
ATOM      3  C   UNL     1       1.884   4.954  -8.503  0.00  0.00    +0.074 C 
ATOM      4  N   UNL     1       2.799   5.765  -9.303  0.00  0.00    -0.272 NA
ATOM      5  C   UNL     1       3.168   6.919  -8.497  0.00  0.00    +0.074 C 
ATOM      6  C   UNL     1       2.117   7.207  -7.429  0.00  0.00    +0.047 C 
ENDROOT
BRANCH   1   8
ATOM      7  C   UNL     1       1.477   5.988  -4.046  0.00  0.00    +0.230 C 
ATOM      8  N   UNL     1       1.203   6.072  -5.445  0.00  0.00    -0.252 N 
ATOM      9  O   UNL     1       1.097   4.971  -3.432  0.00  0.00    -0.275 OA
BRANCH   8  10
ATOM     10  C   UNL     1      -0.104   6.550  -5.789  0.00  0.00    +0.054 A 
ATOM     11  C   UNL     1      -0.988   5.646  -6.366  0.00  0.00    +0.015 A 
ATOM     12  C   UNL     1      -2.348   5.676  -6.085  0.00  0.00    +0.001 A 
ATOM     13  C   UNL     1      -2.872   6.681  -5.301  0.00  0.00    +0.000 A 
ATOM     14  C   UNL     1      -2.047   7.747  -5.001  0.00  0.00    +0.001 A 
ATOM     15  C   UNL     1      -0.687   7.474  -4.931  0.00  0.00    +0.015 A 
ENDBRANCH   8  10
BRANCH   7  17
ATOM     16  C   UNL     1       2.494   6.645  -1.874  0.00  0.00    +0.010 C 
ATOM     17  C   UNL     1       2.385   6.930  -3.348  0.00  0.00    +0.086 C 
ENDBRANCH   7  17
ENDBRANCH   1   8
BRANCH   1  18
ATOM     18  C   UNL     1       3.555   6.339  -5.589  0.00  0.00    +0.334 C 
ATOM     19  O   UNL     1       3.983   7.501  -5.321  0.00  0.00    -0.248 OA
BRANCH  18  20
ATOM     20  O   UNL     1       4.393   5.249  -5.427  0.00  0.00    -0.443 OA
ATOM     21  C   UNL     1       4.953   4.940  -4.175  0.00  0.00    +0.256 C 
ENDBRANCH  18  20
ENDBRANCH   1  18
BRANCH   4  22
ATOM     22  C   UNL     1       3.957   4.966  -9.613  0.00  0.00    +0.084 C 
BRANCH  22  23
ATOM     23  C   UNL     1       5.233   5.509  -9.035  0.00  0.00    +0.127 C 
BRANCH  23  24
ATOM     24  C   UNL     1       6.265   5.787 -10.071  0.00  0.00    +0.319 C 
ATOM     25  O   UNL     1       7.479   5.932  -9.735  0.00  0.00    -0.250 OA
BRANCH  24  26
ATOM     26  O   UNL     1       5.850   6.585 -11.142  0.00  0.00    -0.444 OA
ATOM     27  C   UNL     1       6.249   7.930 -11.291  0.00  0.00    +0.256 C 
ENDBRANCH  24  26
ENDBRANCH  23  24
ENDBRANCH  22  23
ENDBRANCH   4  22
TORSDOF 9
ENDMDL
MODEL 9
REMARK VINA RESULT:      -6.6      2.691      4.520
REMARK  Name = 
REMARK  9 active torsions:
REMARK  status: ('A' for Active; 'I' for Inactive)
REMARK    1  A    between atoms: C_2  and  C_3
REMARK    2  A    between atoms: N_5  and  C_6
REMARK    3  A    between atoms: N_5  and  C_12
REMARK    4  A    between atoms: C_12  and  C_13
REMARK    5  A    between atoms: C_13  and  O_15
REMARK    6  A    between atoms: N_19  and  C_20
REMARK    7  A    between atoms: C_20  and  C_21
REMARK    8  A    between atoms: C_21  and  C_22
REMARK    9  A    between atoms: C_22  and  O_24
REMARK                            x       y       z     vdW  Elec       q    Type
REMARK                         _______ _______ _______ _____ _____    ______ ____
ROOT
ATOM      1  C   UNL     1       2.299   6.406  -5.914  0.00  0.00    +0.156 C 
ATOM      2  C   UNL     1       2.336   5.024  -6.542  0.00  0.00    +0.047 C 
ATOM      3  C   UNL     1       1.640   5.049  -7.883  0.00  0.00    +0.074 C 
ATOM      4  N   UNL     1       2.509   5.738  -8.835  0.00  0.00    -0.272 NA
ATOM      5  C   UNL     1       2.992   6.945  -8.182  0.00  0.00    +0.074 C 
ATOM      6  C   UNL     1       2.054   7.381  -7.060  0.00  0.00    +0.047 C 
ENDROOT
BRANCH   1   8
ATOM      7  C   UNL     1      -0.069   6.716  -5.304  0.00  0.00    +0.230 C 
ATOM      8  N   UNL     1       1.281   6.482  -4.903  0.00  0.00    -0.252 N 
ATOM      9  O   UNL     1      -0.628   7.759  -4.909  0.00  0.00    -0.275 OA
BRANCH   8  10
ATOM     10  C   UNL     1       1.445   5.887  -3.609  0.00  0.00    +0.054 A 
ATOM     11  C   UNL     1       2.123   6.623  -2.645  0.00  0.00    +0.015 A 
ATOM     12  C   UNL     1       1.754   6.585  -1.306  0.00  0.00    +0.001 A 
ATOM     13  C   UNL     1       0.764   5.724  -0.884  0.00  0.00    +0.000 A 
ATOM     14  C   UNL     1       0.324   4.773  -1.783  0.00  0.00    +0.001 A 
ATOM     15  C   UNL     1       0.394   5.116  -3.128  0.00  0.00    +0.015 A 
ENDBRANCH   8  10
BRANCH   7  17
ATOM     16  C   UNL     1      -2.241   5.851  -6.151  0.00  0.00    +0.010 C 
ATOM     17  C   UNL     1      -0.750   5.907  -6.344  0.00  0.00    +0.086 C 
ENDBRANCH   7  17
ENDBRANCH   1   8
BRANCH   1  18
ATOM     18  C   UNL     1       3.619   6.625  -5.276  0.00  0.00    +0.334 C 
ATOM     19  O   UNL     1       4.037   7.791  -5.005  0.00  0.00    -0.248 OA
BRANCH  18  20
ATOM     20  O   UNL     1       4.505   5.562  -5.257  0.00  0.00    -0.443 OA
ATOM     21  C   UNL     1       5.022   5.065  -4.047  0.00  0.00    +0.256 C 
ENDBRANCH  18  20
ENDBRANCH   1  18
BRANCH   4  22
ATOM     22  C   UNL     1       3.602   4.861  -9.164  0.00  0.00    +0.084 C 
BRANCH  22  23
ATOM     23  C   UNL     1       4.954   5.485  -8.964  0.00  0.00    +0.127 C 
BRANCH  23  24
ATOM     24  C   UNL     1       5.606   5.878 -10.243  0.00  0.00    +0.319 C 
ATOM     25  O   UNL     1       6.748   5.417 -10.542  0.00  0.00    -0.250 OA
BRANCH  24  26
ATOM     26  O   UNL     1       5.371   7.191 -10.665  0.00  0.00    -0.444 OA
ATOM     27  C   UNL     1       6.324   7.945 -11.381  0.00  0.00    +0.256 C 
ENDBRANCH  24  26
ENDBRANCH  23  24
ENDBRANCH  22  23
ENDBRANCH   4  22
TORSDOF 9
ENDMDL
