MODEL 1
REMARK VINA RESULT:      -5.9      0.000      0.000
REMARK  Name = 
REMARK  16 active torsions:
REMARK  status: ('A' for Active; 'I' for Inactive)
REMARK    1  A    between atoms: C_2  and  C_4
REMARK    2  A    between atoms: C_4  and  N_5
REMARK    3  A    between atoms: N_5  and  C_6
REMARK    4  A    between atoms: N_5  and  C_17
REMARK    5  A    between atoms: C_6  and  C_7
REMARK    6  A    between atoms: C_7  and  N_8
REMARK    7  A    between atoms: N_8  and  C_9
REMARK    8  A    between atoms: N_8  and  C_13
REMARK    9  A    between atoms: C_9  and  C_10
REMARK   10  A    between atoms: C_13  and  C_14
REMARK   11  A    between atoms: C_17  and  C_18
REMARK   12  A    between atoms: C_18  and  N_19
REMARK   13  A    between atoms: N_19  and  C_20
REMARK   14  A    between atoms: N_19  and  C_24
REMARK   15  A    between atoms: C_20  and  C_21
REMARK   16  A    between atoms: C_24  and  C_25
REMARK                            x       y       z     vdW  Elec       q    Type
REMARK                         _______ _______ _______ _____ _____    ______ ____
ROOT
ATOM      1  N   UNL     1       3.327   5.980  -4.195  0.00  0.00    -0.261 NA
ENDROOT
BRANCH   1   2
ATOM      2  C   UNL     1       1.970   5.484  -4.296  0.00  0.00    +0.090 C 
BRANCH   2   3
ATOM      3  C   UNL     1       1.074   6.716  -4.325  0.00  0.00    +0.091 C 
BRANCH   3   4
ATOM      4  N   UNL     1      -0.288   6.244  -4.339  0.00  0.00    -0.252 NA
BRANCH   4   5
ATOM      5  C   UNL     1      -1.012   6.684  -5.530  0.00  0.00    +0.188 C 
BRANCH   5   6
ATOM      6  C   UNL     1      -1.557   5.513  -6.289  0.00  0.00    +0.381 C 
ATOM      7  O   UNL     1      -2.930   5.282  -6.270  0.00  0.00    -0.244 OA
ATOM      8  O   UNL     1      -0.974   5.267  -7.388  0.00  0.00    -0.244 OA
ENDBRANCH   5   6
ENDBRANCH   4   5
BRANCH   4   9
ATOM      9  C   UNL     1      -1.039   6.626  -3.169  0.00  0.00    +0.188 C 
BRANCH   9  10
ATOM     10  C   UNL     1      -1.472   5.403  -2.452  0.00  0.00    +0.381 C 
ATOM     11  O   UNL     1      -2.685   4.787  -2.733  0.00  0.00    -0.244 OA
ATOM     12  O   UNL     1      -0.646   4.811  -1.695  0.00  0.00    -0.244 OA
ENDBRANCH   9  10
ENDBRANCH   4   9
ENDBRANCH   3   4
ENDBRANCH   2   3
ENDBRANCH   1   2
BRANCH   1  13
ATOM     13  C   UNL     1       3.813   6.526  -5.433  0.00  0.00    +0.090 C 
BRANCH  13  14
ATOM     14  C   UNL     1       4.242   5.356  -6.310  0.00  0.00    +0.091 C 
BRANCH  14  15
ATOM     15  N   UNL     1       3.789   5.630  -7.631  0.00  0.00    -0.252 NA
BRANCH  15  16
ATOM     16  C   UNL     1       2.420   5.986  -7.771  0.00  0.00    +0.188 C 
BRANCH  16  17
ATOM     17  C   UNL     1       2.172   7.209  -8.563  0.00  0.00    +0.381 C 
ATOM     18  O   UNL     1       2.087   8.410  -7.850  0.00  0.00    -0.244 OA
ATOM     19  O   UNL     1       1.328   7.100  -9.503  0.00  0.00    -0.244 OA
ENDBRANCH  16  17
ENDBRANCH  15  16
BRANCH  15  20
ATOM     20  C   UNL     1       4.331   4.805  -8.661  0.00  0.00    +0.188 C 
BRANCH  20  21
ATOM     21  C   UNL     1       5.324   5.638  -9.412  0.00  0.00    +0.381 C 
ATOM     22  O   UNL     1       5.051   6.094 -10.706  0.00  0.00    -0.244 OA
ATOM     23  O   UNL     1       6.542   5.701  -9.067  0.00  0.00    -0.244 OA
ENDBRANCH  20  21
ENDBRANCH  15  20
ENDBRANCH  14  15
ENDBRANCH  13  14
ENDBRANCH   1  13
BRANCH   1  24
ATOM     24  C   UNL     1       4.221   5.020  -3.594  0.00  0.00    +0.188 C 
BRANCH  24  26
ATOM     25  O   UNL     1       4.331   6.417  -1.619  0.00  0.00    -0.244 OA
ATOM     26  C   UNL     1       4.190   5.266  -2.121  0.00  0.00    +0.381 C 
ATOM     27  O   UNL     1       3.857   4.262  -1.207  0.00  0.00    -0.244 OA
ENDBRANCH  24  26
ENDBRANCH   1  24
TORSDOF 16
ENDMDL
MODEL 2
REMARK VINA RESULT:      -5.8      1.936      5.232
REMARK  Name = 
REMARK  16 active torsions:
REMARK  status: ('A' for Active; 'I' for Inactive)
REMARK    1  A    between atoms: C_2  and  C_4
REMARK    2  A    between atoms: C_4  and  N_5
REMARK    3  A    between atoms: N_5  and  C_6
REMARK    4  A    between atoms: N_5  and  C_17
REMARK    5  A    between atoms: C_6  and  C_7
REMARK    6  A    between atoms: C_7  and  N_8
REMARK    7  A    between atoms: N_8  and  C_9
REMARK    8  A    between atoms: N_8  and  C_13
REMARK    9  A    between atoms: C_9  and  C_10
REMARK   10  A    between atoms: C_13  and  C_14
REMARK   11  A    between atoms: C_17  and  C_18
REMARK   12  A    between atoms: C_18  and  N_19
REMARK   13  A    between atoms: N_19  and  C_20
REMARK   14  A    between atoms: N_19  and  C_24
REMARK   15  A    between atoms: C_20  and  C_21
REMARK   16  A    between atoms: C_24  and  C_25
REMARK                            x       y       z     vdW  Elec       q    Type
REMARK                         _______ _______ _______ _____ _____    ______ ____
ROOT
ATOM      1  N   UNL     1      -0.641   5.496  -4.281  0.00  0.00    -0.261 NA
ENDROOT
BRANCH   1   2
ATOM      2  C   UNL     1       0.580   5.067  -3.632  0.00  0.00    +0.090 C 
BRANCH   2   3
ATOM      3  C   UNL     1       1.043   6.247  -2.787  0.00  0.00    +0.091 C 
BRANCH   3   4
ATOM      4  N   UNL     1       2.483   6.260  -2.837  0.00  0.00    -0.252 NA
BRANCH   4   5
ATOM      5  C   UNL     1       3.071   6.887  -1.655  0.00  0.00    +0.188 C 
BRANCH   5   6
ATOM      6  C   UNL     1       3.946   5.922  -0.915  0.00  0.00    +0.381 C 
ATOM      7  O   UNL     1       4.317   6.221   0.393  0.00  0.00    -0.244 OA
ATOM      8  O   UNL     1       3.720   4.698  -1.157  0.00  0.00    -0.244 OA
ENDBRANCH   5   6
ENDBRANCH   4   5
BRANCH   4   9
ATOM      9  C   UNL     1       3.010   6.902  -4.016  0.00  0.00    +0.188 C 
BRANCH   9  10
ATOM     10  C   UNL     1       3.991   5.997  -4.661  0.00  0.00    +0.381 C 
ATOM     11  O   UNL     1       3.911   4.617  -4.517  0.00  0.00    -0.244 OA
ATOM     12  O   UNL     1       4.810   6.479  -5.499  0.00  0.00    -0.244 OA
ENDBRANCH   9  10
ENDBRANCH   4   9
ENDBRANCH   3   4
ENDBRANCH   2   3
ENDBRANCH   1   2
BRANCH   1  13
ATOM     13  C   UNL     1      -0.415   6.033  -5.595  0.00  0.00    +0.090 C 
BRANCH  13  14
ATOM     14  C   UNL     1       0.652   5.174  -6.261  0.00  0.00    +0.091 C 
BRANCH  14  15
ATOM     15  N   UNL     1       0.882   5.714  -7.557  0.00  0.00    -0.252 NA
BRANCH  15  16
ATOM     16  C   UNL     1      -0.160   5.547  -8.508  0.00  0.00    +0.188 C 
BRANCH  16  17
ATOM     17  C   UNL     1       0.283   5.505  -9.917  0.00  0.00    +0.381 C 
ATOM     18  O   UNL     1       0.119   6.678 -10.661  0.00  0.00    -0.244 OA
ATOM     19  O   UNL     1       0.009   4.442 -10.554  0.00  0.00    -0.244 OA
ENDBRANCH  16  17
ENDBRANCH  15  16
BRANCH  15  20
ATOM     20  C   UNL     1       2.213   5.593  -8.058  0.00  0.00    +0.188 C 
BRANCH  20  21
ATOM     21  C   UNL     1       2.723   6.983  -8.285  0.00  0.00    +0.381 C 
ATOM     22  O   UNL     1       2.086   8.088  -7.711  0.00  0.00    -0.244 OA
ATOM     23  O   UNL     1       3.524   7.255  -9.230  0.00  0.00    -0.244 OA
ENDBRANCH  20  21
ENDBRANCH  15  20
ENDBRANCH  14  15
ENDBRANCH  13  14
ENDBRANCH   1  13
BRANCH   1  24
ATOM     24  C   UNL     1      -1.443   6.350  -3.437  0.00  0.00    +0.188 C 
BRANCH  24  26
ATOM     25  O   UNL     1      -3.391   4.911  -3.439  0.00  0.00    -0.244 OA
ATOM     26  C   UNL     1      -2.466   5.475  -2.789  0.00  0.00    +0.381 C 
ATOM     27  O   UNL     1      -2.382   5.105  -1.443  0.00  0.00    -0.244 OA
ENDBRANCH  24  26
ENDBRANCH   1  24
TORSDOF 16
ENDMDL
MODEL 3
REMARK VINA RESULT:      -5.7      1.228      6.357
REMARK  Name = 
REMARK  16 active torsions:
REMARK  status: ('A' for Active; 'I' for Inactive)
REMARK    1  A    between atoms: C_2  and  C_4
REMARK    2  A    between atoms: C_4  and  N_5
REMARK    3  A    between atoms: N_5  and  C_6
REMARK    4  A    between atoms: N_5  and  C_17
REMARK    5  A    between atoms: C_6  and  C_7
REMARK    6  A    between atoms: C_7  and  N_8
REMARK    7  A    between atoms: N_8  and  C_9
REMARK    8  A    between atoms: N_8  and  C_13
REMARK    9  A    between atoms: C_9  and  C_10
REMARK   10  A    between atoms: C_13  and  C_14
REMARK   11  A    between atoms: C_17  and  C_18
REMARK   12  A    between atoms: C_18  and  N_19
REMARK   13  A    between atoms: N_19  and  C_20
REMARK   14  A    between atoms: N_19  and  C_24
REMARK   15  A    between atoms: C_20  and  C_21
REMARK   16  A    between atoms: C_24  and  C_25
REMARK                            x       y       z     vdW  Elec       q    Type
REMARK                         _______ _______ _______ _____ _____    ______ ____
ROOT
ATOM      1  N   UNL     1       3.023   6.206  -3.692  0.00  0.00    -0.261 NA
ENDROOT
BRANCH   1   2
ATOM      2  C   UNL     1       3.158   5.553  -4.977  0.00  0.00    +0.090 C 
BRANCH   2   3
ATOM      3  C   UNL     1       4.186   6.364  -5.755  0.00  0.00    +0.091 C 
BRANCH   3   4
ATOM      4  N   UNL     1       3.829   6.270  -7.148  0.00  0.00    -0.252 NA
BRANCH   4   5
ATOM      5  C   UNL     1       2.412   5.965  -7.335  0.00  0.00    +0.188 C 
BRANCH   5   6
ATOM      6  C   UNL     1       1.706   7.094  -8.020  0.00  0.00    +0.381 C 
ATOM      7  O   UNL     1       2.187   8.388  -7.848  0.00  0.00    -0.244 OA
ATOM      8  O   UNL     1       1.256   6.824  -9.175  0.00  0.00    -0.244 OA
ENDBRANCH   5   6
ENDBRANCH   4   5
BRANCH   4   9
ATOM      9  C   UNL     1       4.614   5.305  -7.876  0.00  0.00    +0.188 C 
BRANCH   9  10
ATOM     10  C   UNL     1       4.503   5.589  -9.327  0.00  0.00    +0.381 C 
ATOM     11  O   UNL     1       5.015   6.756  -9.880  0.00  0.00    -0.244 OA
ATOM     12  O   UNL     1       4.091   4.674 -10.101  0.00  0.00    -0.244 OA
ENDBRANCH   9  10
ENDBRANCH   4   9
ENDBRANCH   3   4
ENDBRANCH   2   3
ENDBRANCH   1   2
BRANCH   1  13
ATOM     13  C   UNL     1       1.679   6.167  -3.186  0.00  0.00    +0.090 C 
BRANCH  13  14
ATOM     14  C   UNL     1       0.861   5.293  -4.128  0.00  0.00    +0.091 C 
BRANCH  14  15
ATOM     15  N   UNL     1      -0.488   5.736  -4.052  0.00  0.00    -0.252 NA
BRANCH  15  16
ATOM     16  C   UNL     1      -0.987   6.445  -5.179  0.00  0.00    +0.188 C 
BRANCH  16  17
ATOM     17  C   UNL     1      -1.735   5.621  -6.151  0.00  0.00    +0.381 C 
ATOM     18  O   UNL     1      -0.983   4.996  -7.152  0.00  0.00    -0.244 OA
ATOM     19  O   UNL     1      -2.839   6.100  -6.552  0.00  0.00    -0.244 OA
ENDBRANCH  16  17
ENDBRANCH  15  16
BRANCH  15  20
ATOM     20  C   UNL     1      -0.922   6.203  -2.775  0.00  0.00    +0.188 C 
BRANCH  20  21
ATOM     21  C   UNL     1      -2.371   5.843  -2.647  0.00  0.00    +0.381 C 
ATOM     22  O   UNL     1      -3.318   6.793  -2.250  0.00  0.00    -0.244 OA
ATOM     23  O   UNL     1      -2.757   4.638  -2.575  0.00  0.00    -0.244 OA
ENDBRANCH  20  21
ENDBRANCH  15  20
ENDBRANCH  14  15
ENDBRANCH  13  14
ENDBRANCH   1  13
BRANCH   1  24
ATOM     24  C   UNL     1       3.610   7.525  -3.680  0.00  0.00    +0.188 C 
BRANCH  24  26
ATOM     25  O   UNL     1       4.710   7.019  -1.582  0.00  0.00    -0.244 OA
ATOM     26  C   UNL     1       4.000   7.810  -2.266  0.00  0.00    +0.381 C 
ATOM     27  O   UNL     1       3.728   9.037  -1.653  0.00  0.00    -0.244 OA
ENDBRANCH  24  26
ENDBRANCH   1  24
TORSDOF 16
ENDMDL
MODEL 4
REMARK VINA RESULT:      -5.7      1.457      6.519
REMARK  Name = 
REMARK  16 active torsions:
REMARK  status: ('A' for Active; 'I' for Inactive)
REMARK    1  A    between atoms: C_2  and  C_4
REMARK    2  A    between atoms: C_4  and  N_5
REMARK    3  A    between atoms: N_5  and  C_6
REMARK    4  A    between atoms: N_5  and  C_17
REMARK    5  A    between atoms: C_6  and  C_7
REMARK    6  A    between atoms: C_7  and  N_8
REMARK    7  A    between atoms: N_8  and  C_9
REMARK    8  A    between atoms: N_8  and  C_13
REMARK    9  A    between atoms: C_9  and  C_10
REMARK   10  A    between atoms: C_13  and  C_14
REMARK   11  A    between atoms: C_17  and  C_18
REMARK   12  A    between atoms: C_18  and  N_19
REMARK   13  A    between atoms: N_19  and  C_20
REMARK   14  A    between atoms: N_19  and  C_24
REMARK   15  A    between atoms: C_20  and  C_21
REMARK   16  A    between atoms: C_24  and  C_25
REMARK                            x       y       z     vdW  Elec       q    Type
REMARK                         _______ _______ _______ _____ _____    ______ ____
ROOT
ATOM      1  N   UNL     1       2.687   6.320  -5.289  0.00  0.00    -0.261 NA
ENDROOT
BRANCH   1   2
ATOM      2  C   UNL     1       2.245   6.223  -6.664  0.00  0.00    +0.090 C 
BRANCH   2   3
ATOM      3  C   UNL     1       2.836   4.928  -7.205  0.00  0.00    +0.091 C 
BRANCH   3   4
ATOM      4  N   UNL     1       2.874   5.051  -8.640  0.00  0.00    -0.252 NA
BRANCH   4   5
ATOM      5  C   UNL     1       1.766   4.347  -9.284  0.00  0.00    +0.188 C 
BRANCH   5   6
ATOM      6  C   UNL     1       1.063   5.235 -10.265  0.00  0.00    +0.381 C 
ATOM      7  O   UNL     1      -0.107   4.778 -10.863  0.00  0.00    -0.244 OA
ATOM      8  O   UNL     1       1.091   6.471  -9.985  0.00  0.00    -0.244 OA
ENDBRANCH   5   6
ENDBRANCH   4   5
BRANCH   4   9
ATOM      9  C   UNL     1       4.114   4.601  -9.222  0.00  0.00    +0.188 C 
BRANCH   9  10
ATOM     10  C   UNL     1       4.973   5.776  -9.498  0.00  0.00    +0.381 C 
ATOM     11  O   UNL     1       6.359   5.695  -9.431  0.00  0.00    -0.244 OA
ATOM     12  O   UNL     1       4.444   6.825  -9.972  0.00  0.00    -0.244 OA
ENDBRANCH   9  10
ENDBRANCH   4   9
ENDBRANCH   3   4
ENDBRANCH   2   3
ENDBRANCH   1   2
BRANCH   1  13
ATOM     13  C   UNL     1       1.618   6.635  -4.381  0.00  0.00    +0.090 C 
BRANCH  13  14
ATOM     14  C   UNL     1       0.713   5.413  -4.300  0.00  0.00    +0.091 C 
BRANCH  14  15
ATOM     15  N   UNL     1      -0.626   5.884  -4.200  0.00  0.00    -0.252 NA
BRANCH  15  16
ATOM     16  C   UNL     1      -1.119   6.631  -5.303  0.00  0.00    +0.188 C 
BRANCH  16  17
ATOM     17  C   UNL     1      -1.800   5.832  -6.343  0.00  0.00    +0.381 C 
ATOM     18  O   UNL     1      -2.889   5.058  -5.925  0.00  0.00    -0.244 OA
ATOM     19  O   UNL     1      -1.046   5.256  -7.185  0.00  0.00    -0.244 OA
ENDBRANCH  16  17
ENDBRANCH  15  16
BRANCH  15  20
ATOM     20  C   UNL     1      -1.037   6.327  -2.908  0.00  0.00    +0.188 C 
BRANCH  20  21
ATOM     21  C   UNL     1      -2.443   5.851  -2.709  0.00  0.00    +0.381 C 
ATOM     22  O   UNL     1      -3.444   6.721  -2.264  0.00  0.00    -0.244 OA
ATOM     23  O   UNL     1      -2.726   4.618  -2.620  0.00  0.00    -0.244 OA
ENDBRANCH  20  21
ENDBRANCH  15  20
ENDBRANCH  14  15
ENDBRANCH  13  14
ENDBRANCH   1  13
BRANCH   1  24
ATOM     24  C   UNL     1       3.843   7.172  -5.140  0.00  0.00    +0.188 C 
BRANCH  24  26
ATOM     25  O   UNL     1       5.237   7.154  -3.160  0.00  0.00    -0.244 OA
ATOM     26  C   UNL     1       4.730   6.522  -4.129  0.00  0.00    +0.381 C 
ATOM     27  O   UNL     1       4.940   5.139  -4.104  0.00  0.00    -0.244 OA
ENDBRANCH  24  26
ENDBRANCH   1  24
TORSDOF 16
ENDMDL
MODEL 5
REMARK VINA RESULT:      -5.7      2.075      6.308
REMARK  Name = 
REMARK  16 active torsions:
REMARK  status: ('A' for Active; 'I' for Inactive)
REMARK    1  A    between atoms: C_2  and  C_4
REMARK    2  A    between atoms: C_4  and  N_5
REMARK    3  A    between atoms: N_5  and  C_6
REMARK    4  A    between atoms: N_5  and  C_17
REMARK    5  A    between atoms: C_6  and  C_7
REMARK    6  A    between atoms: C_7  and  N_8
REMARK    7  A    between atoms: N_8  and  C_9
REMARK    8  A    between atoms: N_8  and  C_13
REMARK    9  A    between atoms: C_9  and  C_10
REMARK   10  A    between atoms: C_13  and  C_14
REMARK   11  A    between atoms: C_17  and  C_18
REMARK   12  A    between atoms: C_18  and  N_19
REMARK   13  A    between atoms: N_19  and  C_20
REMARK   14  A    between atoms: N_19  and  C_24
REMARK   15  A    between atoms: C_20  and  C_21
REMARK   16  A    between atoms: C_24  and  C_25
REMARK                            x       y       z     vdW  Elec       q    Type
REMARK                         _______ _______ _______ _____ _____    ______ ____
ROOT
ATOM      1  N   UNL     1      -0.298   6.310  -4.231  0.00  0.00    -0.261 NA
ENDROOT
BRANCH   1   2
ATOM      2  C   UNL     1       0.330   6.645  -5.492  0.00  0.00    +0.090 C 
BRANCH   2   3
ATOM      3  C   UNL     1       0.451   5.336  -6.261  0.00  0.00    +0.091 C 
BRANCH   3   4
ATOM      4  N   UNL     1       1.615   5.451  -7.104  0.00  0.00    -0.252 NA
BRANCH   4   5
ATOM      5  C   UNL     1       2.363   4.198  -7.186  0.00  0.00    +0.188 C 
BRANCH   5   6
ATOM      6  C   UNL     1       2.564   3.786  -8.612  0.00  0.00    +0.381 C 
ATOM      7  O   UNL     1       1.677   4.255  -9.577  0.00  0.00    -0.244 OA
ATOM      8  O   UNL     1       3.774   3.691  -8.978  0.00  0.00    -0.244 OA
ENDBRANCH   5   6
ENDBRANCH   4   5
BRANCH   4   9
ATOM      9  C   UNL     1       2.512   6.505  -6.701  0.00  0.00    +0.188 C 
BRANCH   9  10
ATOM     10  C   UNL     1       2.734   7.417  -7.848  0.00  0.00    +0.381 C 
ATOM     11  O   UNL     1       3.474   7.024  -8.956  0.00  0.00    -0.244 OA
ATOM     12  O   UNL     1       2.093   8.509  -7.895  0.00  0.00    -0.244 OA
ENDBRANCH   9  10
ENDBRANCH   4   9
ENDBRANCH   3   4
ENDBRANCH   2   3
ENDBRANCH   1   2
BRANCH   1  13
ATOM     13  C   UNL     1       0.622   5.736  -3.287  0.00  0.00    +0.090 C 
BRANCH  13  14
ATOM     14  C   UNL     1       1.681   6.788  -2.984  0.00  0.00    +0.091 C 
BRANCH  14  15
ATOM     15  N   UNL     1       2.828   6.104  -2.493  0.00  0.00    -0.252 NA
BRANCH  15  16
ATOM     16  C   UNL     1       3.341   5.060  -3.308  0.00  0.00    +0.188 C 
BRANCH  16  17
ATOM     17  C   UNL     1       4.699   5.295  -3.841  0.00  0.00    +0.381 C 
ATOM     18  O   UNL     1       5.066   6.627  -4.056  0.00  0.00    -0.244 OA
ATOM     19  O   UNL     1       5.086   4.496  -4.748  0.00  0.00    -0.244 OA
ENDBRANCH  16  17
ENDBRANCH  15  16
BRANCH  15  20
ATOM     20  C   UNL     1       2.865   5.877  -1.085  0.00  0.00    +0.188 C 
BRANCH  20  21
ATOM     21  C   UNL     1       4.041   6.634  -0.550  0.00  0.00    +0.381 C 
ATOM     22  O   UNL     1       4.656   6.260   0.649  0.00  0.00    -0.244 OA
ATOM     23  O   UNL     1       4.329   7.800  -0.959  0.00  0.00    -0.244 OA
ENDBRANCH  20  21
ENDBRANCH  15  20
ENDBRANCH  14  15
ENDBRANCH  13  14
ENDBRANCH   1  13
BRANCH   1  24
ATOM     24  C   UNL     1      -1.506   5.539  -4.404  0.00  0.00    +0.188 C 
BRANCH  24  26
ATOM     25  O   UNL     1      -2.663   4.776  -2.418  0.00  0.00    -0.244 OA
ATOM     26  C   UNL     1      -2.321   5.734  -3.168  0.00  0.00    +0.381 C 
ATOM     27  O   UNL     1      -2.638   7.005  -2.679  0.00  0.00    -0.244 OA
ENDBRANCH  24  26
ENDBRANCH   1  24
TORSDOF 16
ENDMDL
MODEL 6
REMARK VINA RESULT:      -5.7      2.171      4.957
REMARK  Name = 
REMARK  16 active torsions:
REMARK  status: ('A' for Active; 'I' for Inactive)
REMARK    1  A    between atoms: C_2  and  C_4
REMARK    2  A    between atoms: C_4  and  N_5
REMARK    3  A    between atoms: N_5  and  C_6
REMARK    4  A    between atoms: N_5  and  C_17
REMARK    5  A    between atoms: C_6  and  C_7
REMARK    6  A    between atoms: C_7  and  N_8
REMARK    7  A    between atoms: N_8  and  C_9
REMARK    8  A    between atoms: N_8  and  C_13
REMARK    9  A    between atoms: C_9  and  C_10
REMARK   10  A    between atoms: C_13  and  C_14
REMARK   11  A    between atoms: C_17  and  C_18
REMARK   12  A    between atoms: C_18  and  N_19
REMARK   13  A    between atoms: N_19  and  C_20
REMARK   14  A    between atoms: N_19  and  C_24
REMARK   15  A    between atoms: C_20  and  C_21
REMARK   16  A    between atoms: C_24  and  C_25
REMARK                            x       y       z     vdW  Elec       q    Type
REMARK                         _______ _______ _______ _____ _____    ______ ____
ROOT
ATOM      1  N   UNL     1      -0.499   5.518  -5.006  0.00  0.00    -0.261 NA
ENDROOT
BRANCH   1   2
ATOM      2  C   UNL     1       0.275   6.637  -4.509  0.00  0.00    +0.090 C 
BRANCH   2   3
ATOM      3  C   UNL     1       1.695   6.117  -4.325  0.00  0.00    +0.091 C 
BRANCH   3   4
ATOM      4  N   UNL     1       2.163   6.616  -3.057  0.00  0.00    -0.252 NA
BRANCH   4   5
ATOM      5  C   UNL     1       3.351   7.456  -3.198  0.00  0.00    +0.188 C 
BRANCH   5   6
ATOM      6  C   UNL     1       3.874   7.876  -1.859  0.00  0.00    +0.381 C 
ATOM      7  O   UNL     1       5.090   7.358  -1.422  0.00  0.00    -0.244 OA
ATOM      8  O   UNL     1       3.648   9.084  -1.549  0.00  0.00    -0.244 OA
ENDBRANCH   5   6
ENDBRANCH   4   5
BRANCH   4   9
ATOM      9  C   UNL     1       2.440   5.575  -2.098  0.00  0.00    +0.188 C 
BRANCH   9  10
ATOM     10  C   UNL     1       1.261   5.405  -1.215  0.00  0.00    +0.381 C 
ATOM     11  O   UNL     1       0.233   4.527  -1.537  0.00  0.00    -0.244 OA
ATOM     12  O   UNL     1       1.274   5.938  -0.066  0.00  0.00    -0.244 OA
ENDBRANCH   9  10
ENDBRANCH   4   9
ENDBRANCH   3   4
ENDBRANCH   2   3
ENDBRANCH   1   2
BRANCH   1  13
ATOM     13  C   UNL     1       0.082   4.915  -6.174  0.00  0.00    +0.090 C 
BRANCH  13  14
ATOM     14  C   UNL     1      -0.483   5.638  -7.390  0.00  0.00    +0.091 C 
BRANCH  14  15
ATOM     15  N   UNL     1       0.575   5.772  -8.332  0.00  0.00    -0.252 NA
BRANCH  15  16
ATOM     16  C   UNL     1       0.391   5.133  -9.587  0.00  0.00    +0.188 C 
BRANCH  16  17
ATOM     17  C   UNL     1      -0.007   6.032 -10.691  0.00  0.00    +0.381 C 
ATOM     18  O   UNL     1       0.216   5.565 -11.990  0.00  0.00    -0.244 OA
ATOM     19  O   UNL     1       0.256   7.263 -10.528  0.00  0.00    -0.244 OA
ENDBRANCH  16  17
ENDBRANCH  15  16
BRANCH  15  20
ATOM     20  C   UNL     1       1.897   5.732  -7.796  0.00  0.00    +0.188 C 
BRANCH  20  21
ATOM     21  C   UNL     1       2.548   7.037  -8.140  0.00  0.00    +0.381 C 
ATOM     22  O   UNL     1       2.020   8.249  -7.684  0.00  0.00    -0.244 OA
ATOM     23  O   UNL     1       3.383   7.138  -9.089  0.00  0.00    -0.244 OA
ENDBRANCH  20  21
ENDBRANCH  15  20
ENDBRANCH  14  15
ENDBRANCH  13  14
ENDBRANCH   1  13
BRANCH   1  24
ATOM     24  C   UNL     1      -1.898   5.839  -5.154  0.00  0.00    +0.188 C 
BRANCH  24  26
ATOM     25  O   UNL     1      -2.622   4.744  -3.119  0.00  0.00    -0.244 OA
ATOM     26  C   UNL     1      -2.494   5.810  -3.785  0.00  0.00    +0.381 C 
ATOM     27  O   UNL     1      -2.815   6.980  -3.089  0.00  0.00    -0.244 OA
ENDBRANCH  24  26
ENDBRANCH   1  24
TORSDOF 16
ENDMDL
MODEL 7
REMARK VINA RESULT:      -5.7      1.515      2.752
REMARK  Name = 
REMARK  16 active torsions:
REMARK  status: ('A' for Active; 'I' for Inactive)
REMARK    1  A    between atoms: C_2  and  C_4
REMARK    2  A    between atoms: C_4  and  N_5
REMARK    3  A    between atoms: N_5  and  C_6
REMARK    4  A    between atoms: N_5  and  C_17
REMARK    5  A    between atoms: C_6  and  C_7
REMARK    6  A    between atoms: C_7  and  N_8
REMARK    7  A    between atoms: N_8  and  C_9
REMARK    8  A    between atoms: N_8  and  C_13
REMARK    9  A    between atoms: C_9  and  C_10
REMARK   10  A    between atoms: C_13  and  C_14
REMARK   11  A    between atoms: C_17  and  C_18
REMARK   12  A    between atoms: C_18  and  N_19
REMARK   13  A    between atoms: N_19  and  C_20
REMARK   14  A    between atoms: N_19  and  C_24
REMARK   15  A    between atoms: C_20  and  C_21
REMARK   16  A    between atoms: C_24  and  C_25
REMARK                            x       y       z     vdW  Elec       q    Type
REMARK                         _______ _______ _______ _____ _____    ______ ____
ROOT
ATOM      1  N   UNL     1       2.627   6.051  -5.316  0.00  0.00    -0.261 NA
ENDROOT
BRANCH   1   2
ATOM      2  C   UNL     1       1.529   6.456  -4.462  0.00  0.00    +0.090 C 
BRANCH   2   3
ATOM      3  C   UNL     1       0.663   5.216  -4.277  0.00  0.00    +0.091 C 
BRANCH   3   4
ATOM      4  N   UNL     1      -0.703   5.668  -4.193  0.00  0.00    -0.252 NA
BRANCH   4   5
ATOM      5  C   UNL     1      -1.066   6.540  -5.308  0.00  0.00    +0.188 C 
BRANCH   5   6
ATOM      6  C   UNL     1      -1.798   5.778  -6.369  0.00  0.00    +0.381 C 
ATOM      7  O   UNL     1      -1.063   5.140  -7.364  0.00  0.00    -0.244 OA
ATOM      8  O   UNL     1      -2.833   5.163  -5.971  0.00  0.00    -0.244 OA
ENDBRANCH   5   6
ENDBRANCH   4   5
BRANCH   4   9
ATOM      9  C   UNL     1      -1.008   6.341  -2.955  0.00  0.00    +0.188 C 
BRANCH   9  10
ATOM     10  C   UNL     1      -2.385   5.982  -2.537  0.00  0.00    +0.381 C 
ATOM     11  O   UNL     1      -2.849   4.675  -2.612  0.00  0.00    -0.244 OA
ATOM     12  O   UNL     1      -3.089   6.849  -1.939  0.00  0.00    -0.244 OA
ENDBRANCH   9  10
ENDBRANCH   4   9
ENDBRANCH   3   4
ENDBRANCH   2   3
ENDBRANCH   1   2
BRANCH   1  13
ATOM     13  C   UNL     1       2.256   5.978  -6.703  0.00  0.00    +0.090 C 
BRANCH  13  14
ATOM     14  C   UNL     1       2.785   4.657  -7.247  0.00  0.00    +0.091 C 
BRANCH  14  15
ATOM     15  N   UNL     1       2.750   4.741  -8.667  0.00  0.00    -0.252 NA
BRANCH  15  16
ATOM     16  C   UNL     1       3.975   4.505  -9.347  0.00  0.00    +0.188 C 
BRANCH  16  17
ATOM     17  C   UNL     1       4.926   5.637  -9.327  0.00  0.00    +0.381 C 
ATOM     18  O   UNL     1       5.072   6.353 -10.519  0.00  0.00    -0.244 OA
ATOM     19  O   UNL     1       6.012   5.439  -8.702  0.00  0.00    -0.244 OA
ENDBRANCH  16  17
ENDBRANCH  15  16
BRANCH  15  20
ATOM     20  C   UNL     1       1.917   5.764  -9.212  0.00  0.00    +0.188 C 
BRANCH  20  21
ATOM     21  C   UNL     1       1.322   5.217 -10.474  0.00  0.00    +0.381 C 
ATOM     22  O   UNL     1       1.567   5.824 -11.709  0.00  0.00    -0.244 OA
ATOM     23  O   UNL     1       0.345   4.409 -10.457  0.00  0.00    -0.244 OA
ENDBRANCH  20  21
ENDBRANCH  15  20
ENDBRANCH  14  15
ENDBRANCH  13  14
ENDBRANCH   1  13
BRANCH   1  24
ATOM     24  C   UNL     1       3.294   4.866  -4.831  0.00  0.00    +0.188 C 
BRANCH  24  26
ATOM     25  O   UNL     1       4.329   4.773  -2.644  0.00  0.00    -0.244 OA
ATOM     26  C   UNL     1       4.260   5.314  -3.784  0.00  0.00    +0.381 C 
ATOM     27  O   UNL     1       5.251   6.266  -4.044  0.00  0.00    -0.244 OA
ENDBRANCH  24  26
ENDBRANCH   1  24
TORSDOF 16
ENDMDL
MODEL 8
REMARK VINA RESULT:      -5.7      1.459      6.575
REMARK  Name = 
REMARK  16 active torsions:
REMARK  status: ('A' for Active; 'I' for Inactive)
REMARK    1  A    between atoms: C_2  and  C_4
REMARK    2  A    between atoms: C_4  and  N_5
REMARK    3  A    between atoms: N_5  and  C_6
REMARK    4  A    between atoms: N_5  and  C_17
REMARK    5  A    between atoms: C_6  and  C_7
REMARK    6  A    between atoms: C_7  and  N_8
REMARK    7  A    between atoms: N_8  and  C_9
REMARK    8  A    between atoms: N_8  and  C_13
REMARK    9  A    between atoms: C_9  and  C_10
REMARK   10  A    between atoms: C_13  and  C_14
REMARK   11  A    between atoms: C_17  and  C_18
REMARK   12  A    between atoms: C_18  and  N_19
REMARK   13  A    between atoms: N_19  and  C_20
REMARK   14  A    between atoms: N_19  and  C_24
REMARK   15  A    between atoms: C_20  and  C_21
REMARK   16  A    between atoms: C_24  and  C_25
REMARK                            x       y       z     vdW  Elec       q    Type
REMARK                         _______ _______ _______ _____ _____    ______ ____
ROOT
ATOM      1  N   UNL     1       2.591   4.913  -5.042  0.00  0.00    -0.261 NA
ENDROOT
BRANCH   1   2
ATOM      2  C   UNL     1       2.299   4.362  -6.349  0.00  0.00    +0.090 C 
BRANCH   2   3
ATOM      3  C   UNL     1       2.418   5.521  -7.330  0.00  0.00    +0.091 C 
BRANCH   3   4
ATOM      4  N   UNL     1       2.325   4.961  -8.654  0.00  0.00    -0.252 NA
BRANCH   4   5
ATOM      5  C   UNL     1       3.529   4.219  -9.026  0.00  0.00    +0.188 C 
BRANCH   5   6
ATOM      6  C   UNL     1       4.687   5.146  -9.236  0.00  0.00    +0.381 C 
ATOM      7  O   UNL     1       5.688   5.198  -8.270  0.00  0.00    -0.244 OA
ATOM      8  O   UNL     1       5.077   5.253 -10.438  0.00  0.00    -0.244 OA
ENDBRANCH   5   6
ENDBRANCH   4   5
BRANCH   4   9
ATOM      9  C   UNL     1       2.050   5.943  -9.674  0.00  0.00    +0.188 C 
BRANCH   9  10
ATOM     10  C   UNL     1       1.258   5.309 -10.755  0.00  0.00    +0.381 C 
ATOM     11  O   UNL     1       0.487   4.177 -10.522  0.00  0.00    -0.244 OA
ATOM     12  O   UNL     1       1.146   5.908 -11.865  0.00  0.00    -0.244 OA
ENDBRANCH   9  10
ENDBRANCH   4   9
ENDBRANCH   3   4
ENDBRANCH   2   3
ENDBRANCH   1   2
BRANCH   1  13
ATOM     13  C   UNL     1       1.666   5.943  -4.654  0.00  0.00    +0.090 C 
BRANCH  13  14
ATOM     14  C   UNL     1       0.616   5.298  -3.757  0.00  0.00    +0.091 C 
BRANCH  14  15
ATOM     15  N   UNL     1      -0.652   5.802  -4.162  0.00  0.00    -0.252 NA
BRANCH  15  16
ATOM     16  C   UNL     1      -0.748   6.281  -5.495  0.00  0.00    +0.188 C 
BRANCH  16  17
ATOM     17  C   UNL     1      -1.484   5.398  -6.424  0.00  0.00    +0.381 C 
ATOM     18  O   UNL     1      -0.979   5.296  -7.724  0.00  0.00    -0.244 OA
ATOM     19  O   UNL     1      -2.750   5.455  -6.359  0.00  0.00    -0.244 OA
ENDBRANCH  16  17
ENDBRANCH  15  16
BRANCH  15  20
ATOM     20  C   UNL     1      -1.374   6.540  -3.176  0.00  0.00    +0.188 C 
BRANCH  20  21
ATOM     21  C   UNL     1      -2.193   5.552  -2.403  0.00  0.00    +0.381 C 
ATOM     22  O   UNL     1      -1.923   5.288  -1.056  0.00  0.00    -0.244 OA
ATOM     23  O   UNL     1      -2.930   4.697  -2.980  0.00  0.00    -0.244 OA
ENDBRANCH  20  21
ENDBRANCH  15  20
ENDBRANCH  14  15
ENDBRANCH  13  14
ENDBRANCH   1  13
BRANCH   1  24
ATOM     24  C   UNL     1       3.975   5.295  -4.902  0.00  0.00    +0.188 C 
BRANCH  24  26
ATOM     25  O   UNL     1       4.068   4.681  -2.561  0.00  0.00    -0.244 OA
ATOM     26  C   UNL     1       4.202   5.568  -3.451  0.00  0.00    +0.381 C 
ATOM     27  O   UNL     1       4.718   6.785  -2.995  0.00  0.00    -0.244 OA
ENDBRANCH  24  26
ENDBRANCH   1  24
TORSDOF 16
ENDMDL
MODEL 9
REMARK VINA RESULT:      -5.6      1.309      1.771
REMARK  Name = 
REMARK  16 active torsions:
REMARK  status: ('A' for Active; 'I' for Inactive)
REMARK    1  A    between atoms: C_2  and  C_4
REMARK    2  A    between atoms: C_4  and  N_5
REMARK    3  A    between atoms: N_5  and  C_6
REMARK    4  A    between atoms: N_5  and  C_17
REMARK    5  A    between atoms: C_6  and  C_7
REMARK    6  A    between atoms: C_7  and  N_8
REMARK    7  A    between atoms: N_8  and  C_9
REMARK    8  A    between atoms: N_8  and  C_13
REMARK    9  A    between atoms: C_9  and  C_10
REMARK   10  A    between atoms: C_13  and  C_14
REMARK   11  A    between atoms: C_17  and  C_18
REMARK   12  A    between atoms: C_18  and  N_19
REMARK   13  A    between atoms: N_19  and  C_20
REMARK   14  A    between atoms: N_19  and  C_24
REMARK   15  A    between atoms: C_20  and  C_21
REMARK   16  A    between atoms: C_24  and  C_25
REMARK                            x       y       z     vdW  Elec       q    Type
REMARK                         _______ _______ _______ _____ _____    ______ ____
ROOT
ATOM      1  N   UNL     1       3.136   5.746  -5.305  0.00  0.00    -0.261 NA
ENDROOT
BRANCH   1   2
ATOM      2  C   UNL     1       2.160   5.338  -4.316  0.00  0.00    +0.090 C 
BRANCH   2   3
ATOM      3  C   UNL     1       1.252   6.543  -4.101  0.00  0.00    +0.091 C 
BRANCH   3   4
ATOM      4  N   UNL     1      -0.094   6.106  -4.370  0.00  0.00    -0.252 NA
BRANCH   4   5
ATOM      5  C   UNL     1      -0.572   6.561  -5.675  0.00  0.00    +0.188 C 
BRANCH   5   6
ATOM      6  C   UNL     1      -1.303   5.467  -6.390  0.00  0.00    +0.381 C 
ATOM      7  O   UNL     1      -2.682   5.364  -6.227  0.00  0.00    -0.244 OA
ATOM      8  O   UNL     1      -0.865   5.197  -7.549  0.00  0.00    -0.244 OA
ENDBRANCH   5   6
ENDBRANCH   4   5
BRANCH   4   9
ATOM      9  C   UNL     1      -1.040   6.511  -3.360  0.00  0.00    +0.188 C 
BRANCH   9  10
ATOM     10  C   UNL     1      -1.363   5.344  -2.505  0.00  0.00    +0.381 C 
ATOM     11  O   UNL     1      -0.509   4.929  -1.490  0.00  0.00    -0.244 OA
ATOM     12  O   UNL     1      -2.515   4.823  -2.587  0.00  0.00    -0.244 OA
ENDBRANCH   9  10
ENDBRANCH   4   9
ENDBRANCH   3   4
ENDBRANCH   2   3
ENDBRANCH   1   2
BRANCH   1  13
ATOM     13  C   UNL     1       2.932   5.117  -6.581  0.00  0.00    +0.090 C 
BRANCH  13  14
ATOM     14  C   UNL     1       4.096   5.517  -7.479  0.00  0.00    +0.091 C 
BRANCH  14  15
ATOM     15  N   UNL     1       3.603   5.571  -8.812  0.00  0.00    -0.252 NA
BRANCH  15  16
ATOM     16  C   UNL     1       2.224   5.278  -8.991  0.00  0.00    +0.188 C 
BRANCH  16  17
ATOM     17  C   UNL     1       1.597   5.924 -10.163  0.00  0.00    +0.381 C 
ATOM     18  O   UNL     1       0.927   7.130  -9.930  0.00  0.00    -0.244 OA
ATOM     19  O   UNL     1       1.005   5.148 -10.974  0.00  0.00    -0.244 OA
ENDBRANCH  16  17
ENDBRANCH  15  16
BRANCH  15  20
ATOM     20  C   UNL     1       4.483   5.084  -9.824  0.00  0.00    +0.188 C 
BRANCH  20  21
ATOM     21  C   UNL     1       5.385   6.218 -10.202  0.00  0.00    +0.381 C 
ATOM     22  O   UNL     1       6.732   6.226  -9.825  0.00  0.00    -0.244 OA
ATOM     23  O   UNL     1       4.928   7.338 -10.583  0.00  0.00    -0.244 OA
ENDBRANCH  20  21
ENDBRANCH  15  20
ENDBRANCH  14  15
ENDBRANCH  13  14
ENDBRANCH   1  13
BRANCH   1  24
ATOM     24  C   UNL     1       4.491   5.641  -4.818  0.00  0.00    +0.188 C 
BRANCH  24  26
ATOM     25  O   UNL     1       4.832   8.034  -4.663  0.00  0.00    -0.244 OA
ATOM     26  C   UNL     1       4.785   6.911  -4.087  0.00  0.00    +0.381 C 
ATOM     27  O   UNL     1       4.883   6.960  -2.693  0.00  0.00    -0.244 OA
ENDBRANCH  24  26
ENDBRANCH   1  24
TORSDOF 16
ENDMDL
