MODEL 1
REMARK VINA RESULT:      -8.3      0.000      0.000
REMARK  Name = 
REMARK  7 active torsions:
REMARK  status: ('A' for Active; 'I' for Inactive)
REMARK    1  A    between atoms: N_2  and  C_3
REMARK    2  A    between atoms: N_2  and  C_20
REMARK    3  A    between atoms: C_3  and  C_4
REMARK    4  A    between atoms: C_4  and  O_5
REMARK    5  A    between atoms: O_5  and  C_6
REMARK    6  A    between atoms: C_9  and  C_10
REMARK    7  A    between atoms: C_10  and  C_11
REMARK                            x       y       z     vdW  Elec       q    Type
REMARK                         _______ _______ _______ _____ _____    ______ ____
ROOT
ATOM      1  C   UNL     1       0.248   5.758  -8.036  0.00  0.00    +0.139 A 
ATOM      2  C   UNL     1       1.164   6.100  -7.049  0.00  0.00    +0.037 A 
ATOM      3  C   UNL     1       0.639   6.815  -5.979  0.00  0.00    -0.001 A 
ATOM      4  C   UNL     1      -0.651   6.470  -5.592  0.00  0.00    -0.021 A 
ATOM      5  C   UNL     1      -1.353   5.504  -6.304  0.00  0.00    -0.001 A 
ATOM      6  C   UNL     1      -0.968   5.255  -7.612  0.00  0.00    +0.037 A 
ENDROOT
BRANCH   4   7
ATOM      7  C   UNL     1      -1.165   6.741  -4.212  0.00  0.00    +0.047 C 
BRANCH   7   8
ATOM      8  C   UNL     1      -1.015   5.397  -3.377  0.00  0.00    +0.139 C 
ATOM      9  C   UNL     1      -2.416   5.496  -2.700  0.00  0.00    +0.259 C 
ATOM     10  O   UNL     1      -3.384   5.078  -3.408  0.00  0.00    -0.272 OA
ATOM     11  N   UNL     1      -2.266   5.102  -1.352  0.00  0.00    -0.135 NA
ATOM     12  C   UNL     1      -1.426   6.071  -0.716  0.00  0.00    +0.299 C 
ATOM     13  O   UNL     1      -1.453   6.547   0.439  0.00  0.00    -0.261 OA
ATOM     14  S   UNL     1      -0.093   6.210  -1.919  0.00  0.00    -0.046 S 
ENDBRANCH   7   8
ENDBRANCH   4   7
BRANCH   1  15
ATOM     15  O   UNL     1       0.580   5.606  -9.359  0.00  0.00    -0.474 OA
BRANCH  15  16
ATOM     16  C   UNL     1       1.651   4.764  -9.736  0.00  0.00    +0.227 C 
BRANCH  16  17
ATOM     17  C   UNL     1       2.775   5.618 -10.291  0.00  0.00    +0.140 C 
BRANCH  17  19
ATOM     18  C   UNL     1       4.044   4.596  -9.101  0.00  0.00    +0.114 C 
ATOM     19  N   UNL     1       3.998   5.209  -9.598  0.00  0.00    -0.288 N 
BRANCH  19  20
ATOM     20  C   UNL     1       5.139   6.009  -9.952  0.00  0.00    +0.132 A 
ATOM     21  N   UNL     1       5.022   6.969 -10.879  0.00  0.00    -0.229 NA
ATOM     22  C   UNL     1       6.089   7.732 -11.189  0.00  0.00    +0.100 A 
ATOM     23  C   UNL     1       7.308   7.363 -10.644  0.00  0.00    +0.021 A 
ATOM     24  C   UNL     1       7.461   6.297  -9.797  0.00  0.00    +0.004 A 
ATOM     25  C   UNL     1       6.341   5.594  -9.429  0.00  0.00    +0.034 A 
ENDBRANCH  19  20
ENDBRANCH  17  19
ENDBRANCH  16  17
ENDBRANCH  15  16
ENDBRANCH   1  15
TORSDOF 7
ENDMDL
MODEL 2
REMARK VINA RESULT:      -8.2      3.647      9.025
REMARK  Name = 
REMARK  7 active torsions:
REMARK  status: ('A' for Active; 'I' for Inactive)
REMARK    1  A    between atoms: N_2  and  C_3
REMARK    2  A    between atoms: N_2  and  C_20
REMARK    3  A    between atoms: C_3  and  C_4
REMARK    4  A    between atoms: C_4  and  O_5
REMARK    5  A    between atoms: O_5  and  C_6
REMARK    6  A    between atoms: C_9  and  C_10
REMARK    7  A    between atoms: C_10  and  C_11
REMARK                            x       y       z     vdW  Elec       q    Type
REMARK                         _______ _______ _______ _____ _____    ______ ____
ROOT
ATOM      1  C   UNL     1       3.220   6.863  -6.252  0.00  0.00    +0.139 A 
ATOM      2  C   UNL     1       4.452   6.247  -6.436  0.00  0.00    +0.037 A 
ATOM      3  C   UNL     1       4.515   5.360  -7.504  0.00  0.00    -0.001 A 
ATOM      4  C   UNL     1       3.776   5.710  -8.628  0.00  0.00    -0.021 A 
ATOM      5  C   UNL     1       2.992   6.858  -8.613  0.00  0.00    -0.001 A 
ATOM      6  C   UNL     1       2.593   7.354  -7.381  0.00  0.00    +0.037 A 
ENDROOT
BRANCH   4   7
ATOM      7  C   UNL     1       4.110   5.187  -9.991  0.00  0.00    +0.047 C 
BRANCH   7   8
ATOM      8  C   UNL     1       4.705   6.398 -10.832  0.00  0.00    +0.139 C 
ATOM      9  C   UNL     1       4.432   5.750 -12.224  0.00  0.00    +0.259 C 
ATOM     10  O   UNL     1       3.246   5.889 -12.655  0.00  0.00    -0.272 OA
ATOM     11  N   UNL     1       5.550   6.016 -13.044  0.00  0.00    -0.135 NA
ATOM     12  C   UNL     1       6.670   5.327 -12.476  0.00  0.00    +0.299 C 
ATOM     13  O   UNL     1       7.633   4.743 -13.016  0.00  0.00    -0.261 OA
ATOM     14  S   UNL     1       6.511   5.790 -10.742  0.00  0.00    -0.046 S 
ENDBRANCH   7   8
ENDBRANCH   4   7
BRANCH   1  15
ATOM     15  O   UNL     1       2.752   7.272  -5.028  0.00  0.00    -0.474 OA
BRANCH  15  16
ATOM     16  C   UNL     1       2.800   6.402  -3.916  0.00  0.00    +0.227 C 
BRANCH  16  17
ATOM     17  C   UNL     1       2.019   5.143  -4.242  0.00  0.00    +0.140 C 
BRANCH  17  19
ATOM     18  C   UNL     1       0.555   5.296  -2.862  0.00  0.00    +0.114 C 
ATOM     19  N   UNL     1       0.693   5.300  -3.641  0.00  0.00    -0.288 N 
BRANCH  19  20
ATOM     20  C   UNL     1      -0.342   5.519  -4.612  0.00  0.00    +0.132 A 
ATOM     21  N   UNL     1      -1.556   5.926  -4.217  0.00  0.00    -0.229 NA
ATOM     22  C   UNL     1      -2.516   6.153  -5.136  0.00  0.00    +0.100 A 
ATOM     23  C   UNL     1      -2.239   5.787  -6.443  0.00  0.00    +0.021 A 
ATOM     24  C   UNL     1      -1.043   5.244  -6.833  0.00  0.00    +0.004 A 
ATOM     25  C   UNL     1      -0.054   5.108  -5.892  0.00  0.00    +0.034 A 
ENDBRANCH  19  20
ENDBRANCH  17  19
ENDBRANCH  16  17
ENDBRANCH  15  16
ENDBRANCH   1  15
TORSDOF 7
ENDMDL
MODEL 3
REMARK VINA RESULT:      -8.1      3.910      8.140
REMARK  Name = 
REMARK  7 active torsions:
REMARK  status: ('A' for Active; 'I' for Inactive)
REMARK    1  A    between atoms: N_2  and  C_3
REMARK    2  A    between atoms: N_2  and  C_20
REMARK    3  A    between atoms: C_3  and  C_4
REMARK    4  A    between atoms: C_4  and  O_5
REMARK    5  A    between atoms: O_5  and  C_6
REMARK    6  A    between atoms: C_9  and  C_10
REMARK    7  A    between atoms: C_10  and  C_11
REMARK                            x       y       z     vdW  Elec       q    Type
REMARK                         _______ _______ _______ _____ _____    ______ ____
ROOT
ATOM      1  C   UNL     1       1.351   6.008  -6.949  0.00  0.00    +0.139 A 
ATOM      2  C   UNL     1       1.896   6.971  -7.789  0.00  0.00    +0.037 A 
ATOM      3  C   UNL     1       3.255   6.830  -8.044  0.00  0.00    -0.001 A 
ATOM      4  C   UNL     1       3.723   5.524  -8.143  0.00  0.00    -0.021 A 
ATOM      5  C   UNL     1       2.854   4.459  -7.932  0.00  0.00    -0.001 A 
ATOM      6  C   UNL     1       1.708   4.695  -7.188  0.00  0.00    +0.037 A 
ENDROOT
BRANCH   4   7
ATOM      7  C   UNL     1       4.976   5.185  -8.890  0.00  0.00    +0.047 C 
BRANCH   7   8
ATOM      8  C   UNL     1       5.206   6.325  -9.974  0.00  0.00    +0.139 C 
ATOM      9  C   UNL     1       4.725   5.466 -11.183  0.00  0.00    +0.259 C 
ATOM     10  O   UNL     1       3.465   5.420 -11.339  0.00  0.00    -0.272 OA
ATOM     11  N   UNL     1       5.591   5.733 -12.266  0.00  0.00    -0.135 NA
ATOM     12  C   UNL     1       6.889   5.250 -11.902  0.00  0.00    +0.299 C 
ATOM     13  O   UNL     1       7.780   4.701 -12.585  0.00  0.00    -0.261 OA
ATOM     14  S   UNL     1       7.052   5.927 -10.241  0.00  0.00    -0.046 S 
ENDBRANCH   7   8
ENDBRANCH   4   7
BRANCH   1  15
ATOM     15  O   UNL     1       0.280   6.243  -6.123  0.00  0.00    -0.474 OA
BRANCH  15  16
ATOM     16  C   UNL     1       0.095   5.472  -4.953  0.00  0.00    +0.227 C 
BRANCH  16  17
ATOM     17  C   UNL     1       0.333   6.352  -3.742  0.00  0.00    +0.140 C 
BRANCH  17  19
ATOM     18  C   UNL     1       1.360   5.307  -2.355  0.00  0.00    +0.114 C 
ATOM     19  N   UNL     1       1.446   5.759  -2.999  0.00  0.00    -0.288 N 
BRANCH  19  20
ATOM     20  C   UNL     1       2.727   6.036  -3.589  0.00  0.00    +0.132 A 
ATOM     21  N   UNL     1       3.046   7.289  -3.938  0.00  0.00    -0.229 NA
ATOM     22  C   UNL     1       4.259   7.547  -4.468  0.00  0.00    +0.100 A 
ATOM     23  C   UNL     1       5.055   6.457  -4.781  0.00  0.00    +0.021 A 
ATOM     24  C   UNL     1       4.678   5.160  -4.550  0.00  0.00    +0.004 A 
ATOM     25  C   UNL     1       3.477   4.934  -3.927  0.00  0.00    +0.034 A 
ENDBRANCH  19  20
ENDBRANCH  17  19
ENDBRANCH  16  17
ENDBRANCH  15  16
ENDBRANCH   1  15
TORSDOF 7
ENDMDL
MODEL 4
REMARK VINA RESULT:      -7.9      4.026      8.389
REMARK  Name = 
REMARK  7 active torsions:
REMARK  status: ('A' for Active; 'I' for Inactive)
REMARK    1  A    between atoms: N_2  and  C_3
REMARK    2  A    between atoms: N_2  and  C_20
REMARK    3  A    between atoms: C_3  and  C_4
REMARK    4  A    between atoms: C_4  and  O_5
REMARK    5  A    between atoms: O_5  and  C_6
REMARK    6  A    between atoms: C_9  and  C_10
REMARK    7  A    between atoms: C_10  and  C_11
REMARK                            x       y       z     vdW  Elec       q    Type
REMARK                         _______ _______ _______ _____ _____    ______ ____
ROOT
ATOM      1  C   UNL     1       3.243   6.794  -6.282  0.00  0.00    +0.139 A 
ATOM      2  C   UNL     1       4.063   5.818  -6.834  0.00  0.00    +0.037 A 
ATOM      3  C   UNL     1       3.447   4.987  -7.763  0.00  0.00    -0.001 A 
ATOM      4  C   UNL     1       2.492   5.586  -8.575  0.00  0.00    -0.021 A 
ATOM      5  C   UNL     1       2.166   6.925  -8.391  0.00  0.00    -0.001 A 
ATOM      6  C   UNL     1       2.427   7.490  -7.152  0.00  0.00    +0.037 A 
ENDROOT
BRANCH   4   7
ATOM      7  C   UNL     1       2.118   5.019  -9.910  0.00  0.00    +0.047 C 
BRANCH   7   8
ATOM      8  C   UNL     1       1.784   6.242 -10.869  0.00  0.00    +0.139 C 
ATOM      9  C   UNL     1       0.802   5.443 -11.779  0.00  0.00    +0.259 C 
ATOM     10  O   UNL     1      -0.380   5.335 -11.324  0.00  0.00    -0.272 OA
ATOM     11  N   UNL     1       1.044   5.833 -13.114  0.00  0.00    -0.135 NA
ATOM     12  C   UNL     1       2.367   5.401 -13.450  0.00  0.00    +0.299 C 
ATOM     13  O   UNL     1       2.836   4.953 -14.518  0.00  0.00    -0.261 OA
ATOM     14  S   UNL     1       3.288   5.970 -12.011  0.00  0.00    -0.046 S 
ENDBRANCH   7   8
ENDBRANCH   4   7
BRANCH   1  15
ATOM     15  O   UNL     1       3.414   7.300  -5.017  0.00  0.00    -0.474 OA
BRANCH  15  16
ATOM     16  C   UNL     1       2.572   6.886  -3.960  0.00  0.00    +0.227 C 
BRANCH  16  17
ATOM     17  C   UNL     1       2.075   5.482  -4.248  0.00  0.00    +0.140 C 
BRANCH  17  19
ATOM     18  C   UNL     1       0.593   5.277  -2.894  0.00  0.00    +0.114 C 
ATOM     19  N   UNL     1       0.736   5.379  -3.665  0.00  0.00    -0.288 N 
BRANCH  19  20
ATOM     20  C   UNL     1      -0.312   5.536  -4.635  0.00  0.00    +0.132 A 
ATOM     21  N   UNL     1      -1.535   5.919  -4.244  0.00  0.00    -0.229 NA
ATOM     22  C   UNL     1      -2.508   6.089  -5.162  0.00  0.00    +0.100 A 
ATOM     23  C   UNL     1      -2.229   5.690  -6.458  0.00  0.00    +0.021 A 
ATOM     24  C   UNL     1      -1.020   5.170  -6.841  0.00  0.00    +0.004 A 
ATOM     25  C   UNL     1      -0.021   5.093  -5.904  0.00  0.00    +0.034 A 
ENDBRANCH  19  20
ENDBRANCH  17  19
ENDBRANCH  16  17
ENDBRANCH  15  16
ENDBRANCH   1  15
TORSDOF 7
ENDMDL
MODEL 5
REMARK VINA RESULT:      -7.6      1.661      2.049
REMARK  Name = 
REMARK  7 active torsions:
REMARK  status: ('A' for Active; 'I' for Inactive)
REMARK    1  A    between atoms: N_2  and  C_3
REMARK    2  A    between atoms: N_2  and  C_20
REMARK    3  A    between atoms: C_3  and  C_4
REMARK    4  A    between atoms: C_4  and  O_5
REMARK    5  A    between atoms: O_5  and  C_6
REMARK    6  A    between atoms: C_9  and  C_10
REMARK    7  A    between atoms: C_10  and  C_11
REMARK                            x       y       z     vdW  Elec       q    Type
REMARK                         _______ _______ _______ _____ _____    ______ ____
ROOT
ATOM      1  C   UNL     1       1.188   5.982  -8.719  0.00  0.00    +0.139 A 
ATOM      2  C   UNL     1      -0.043   5.557  -8.234  0.00  0.00    +0.037 A 
ATOM      3  C   UNL     1      -0.101   5.369  -6.858  0.00  0.00    -0.001 A 
ATOM      4  C   UNL     1       0.640   6.260  -6.091  0.00  0.00    -0.021 A 
ATOM      5  C   UNL     1       1.423   7.226  -6.713  0.00  0.00    -0.001 A 
ATOM      6  C   UNL     1       1.818   6.995  -8.022  0.00  0.00    +0.037 A 
ENDROOT
BRANCH   4   7
ATOM      7  C   UNL     1       0.311   6.537  -4.656  0.00  0.00    +0.047 C 
BRANCH   7   8
ATOM      8  C   UNL     1       0.404   5.157  -3.873  0.00  0.00    +0.139 C 
ATOM      9  C   UNL     1      -0.785   5.461  -2.912  0.00  0.00    +0.259 C 
ATOM     10  O   UNL     1      -1.937   5.234  -3.397  0.00  0.00    -0.272 OA
ATOM     11  N   UNL     1      -0.424   5.000  -1.627  0.00  0.00    -0.135 NA
ATOM     12  C   UNL     1       0.682   5.795  -1.185  0.00  0.00    +0.299 C 
ATOM     13  O   UNL     1       0.979   6.227  -0.051  0.00  0.00    -0.261 OA
ATOM     14  S   UNL     1       1.736   5.755  -2.645  0.00  0.00    -0.046 S 
ENDBRANCH   7   8
ENDBRANCH   4   7
BRANCH   1  15
ATOM     15  O   UNL     1       1.651   5.681  -9.975  0.00  0.00    -0.474 OA
BRANCH  15  16
ATOM     16  C   UNL     1       2.757   6.376 -10.517  0.00  0.00    +0.227 C 
BRANCH  16  17
ATOM     17  C   UNL     1       3.781   5.368 -11.002  0.00  0.00    +0.140 C 
BRANCH  17  19
ATOM     18  C   UNL     1       5.099   5.763  -9.527  0.00  0.00    +0.114 C 
ATOM     19  N   UNL     1       5.035   5.671 -10.310  0.00  0.00    -0.288 N 
BRANCH  19  20
ATOM     20  C   UNL     1       6.164   5.734 -11.195  0.00  0.00    +0.132 A 
ATOM     21  N   UNL     1       6.007   5.482 -12.502  0.00  0.00    -0.229 NA
ATOM     22  C   UNL     1       7.066   5.567 -13.331  0.00  0.00    +0.100 A 
ATOM     23  C   UNL     1       8.310   5.751 -12.750  0.00  0.00    +0.021 A 
ATOM     24  C   UNL     1       8.496   5.876 -11.398  0.00  0.00    +0.004 A 
ATOM     25  C   UNL     1       7.390   5.875 -10.587  0.00  0.00    +0.034 A 
ENDBRANCH  19  20
ENDBRANCH  17  19
ENDBRANCH  16  17
ENDBRANCH  15  16
ENDBRANCH   1  15
TORSDOF 7
ENDMDL
MODEL 6
REMARK VINA RESULT:      -7.6      4.552      9.157
REMARK  Name = 
REMARK  7 active torsions:
REMARK  status: ('A' for Active; 'I' for Inactive)
REMARK    1  A    between atoms: N_2  and  C_3
REMARK    2  A    between atoms: N_2  and  C_20
REMARK    3  A    between atoms: C_3  and  C_4
REMARK    4  A    between atoms: C_4  and  O_5
REMARK    5  A    between atoms: O_5  and  C_6
REMARK    6  A    between atoms: C_9  and  C_10
REMARK    7  A    between atoms: C_10  and  C_11
REMARK                            x       y       z     vdW  Elec       q    Type
REMARK                         _______ _______ _______ _____ _____    ______ ____
ROOT
ATOM      1  C   UNL     1       3.624   4.790  -7.680  0.00  0.00    +0.139 A 
ATOM      2  C   UNL     1       3.378   4.153  -8.890  0.00  0.00    +0.037 A 
ATOM      3  C   UNL     1       3.624   4.922 -10.022  0.00  0.00    -0.001 A 
ATOM      4  C   UNL     1       4.702   5.795  -9.941  0.00  0.00    -0.021 A 
ATOM      5  C   UNL     1       5.424   5.898  -8.758  0.00  0.00    -0.001 A 
ATOM      6  C   UNL     1       4.798   5.513  -7.582  0.00  0.00    +0.037 A 
ENDROOT
BRANCH   4   7
ATOM      7  C   UNL     1       5.409   6.297 -11.163  0.00  0.00    +0.047 C 
BRANCH   7   8
ATOM      8  C   UNL     1       5.705   5.040 -12.090  0.00  0.00    +0.139 C 
ATOM      9  C   UNL     1       7.216   5.366 -12.290  0.00  0.00    +0.259 C 
ATOM     10  O   UNL     1       7.975   4.985 -11.345  0.00  0.00    -0.272 OA
ATOM     11  N   UNL     1       7.534   5.103 -13.640  0.00  0.00    -0.135 NA
ATOM     12  C   UNL     1       6.798   6.034 -14.441  0.00  0.00    +0.299 C 
ATOM     13  O   UNL     1       7.104   6.630 -15.495  0.00  0.00    -0.261 OA
ATOM     14  S   UNL     1       5.159   5.895 -13.705  0.00  0.00    -0.046 S 
ENDBRANCH   7   8
ENDBRANCH   4   7
BRANCH   1  15
ATOM     15  O   UNL     1       2.948   4.502  -6.521  0.00  0.00    -0.474 OA
BRANCH  15  16
ATOM     16  C   UNL     1       1.537   4.554  -6.483  0.00  0.00    +0.227 C 
BRANCH  16  17
ATOM     17  C   UNL     1       1.074   5.831  -7.158  0.00  0.00    +0.140 C 
BRANCH  17  19
ATOM     18  C   UNL     1      -0.829   5.315  -7.584  0.00  0.00    +0.114 C 
ATOM     19  N   UNL     1      -0.134   5.496  -7.914  0.00  0.00    -0.288 N 
BRANCH  19  20
ATOM     20  C   UNL     1       0.052   5.580  -9.337  0.00  0.00    +0.132 A 
ATOM     21  N   UNL     1      -0.011   4.472 -10.087  0.00  0.00    -0.229 NA
ATOM     22  C   UNL     1       0.140   4.560 -11.424  0.00  0.00    +0.100 A 
ATOM     23  C   UNL     1       0.524   5.789 -11.936  0.00  0.00    +0.021 A 
ATOM     24  C   UNL     1       0.723   6.898 -11.156  0.00  0.00    +0.004 A 
ATOM     25  C   UNL     1       0.474   6.799  -9.811  0.00  0.00    +0.034 A 
ENDBRANCH  19  20
ENDBRANCH  17  19
ENDBRANCH  16  17
ENDBRANCH  15  16
ENDBRANCH   1  15
TORSDOF 7
ENDMDL
MODEL 7
REMARK VINA RESULT:      -7.6      3.702      7.895
REMARK  Name = 
REMARK  7 active torsions:
REMARK  status: ('A' for Active; 'I' for Inactive)
REMARK    1  A    between atoms: N_2  and  C_3
REMARK    2  A    between atoms: N_2  and  C_20
REMARK    3  A    between atoms: C_3  and  C_4
REMARK    4  A    between atoms: C_4  and  O_5
REMARK    5  A    between atoms: O_5  and  C_6
REMARK    6  A    between atoms: C_9  and  C_10
REMARK    7  A    between atoms: C_10  and  C_11
REMARK                            x       y       z     vdW  Elec       q    Type
REMARK                         _______ _______ _______ _____ _____    ______ ____
ROOT
ATOM      1  C   UNL     1       0.775   5.404  -5.243  0.00  0.00    +0.139 A 
ATOM      2  C   UNL     1       0.518   6.536  -6.006  0.00  0.00    +0.037 A 
ATOM      3  C   UNL     1       1.617   7.056  -6.679  0.00  0.00    -0.001 A 
ATOM      4  C   UNL     1       2.530   6.126  -7.162  0.00  0.00    -0.021 A 
ATOM      5  C   UNL     1       2.339   4.772  -6.911  0.00  0.00    -0.001 A 
ATOM      6  C   UNL     1       1.549   4.420  -5.828  0.00  0.00    +0.037 A 
ENDROOT
BRANCH   4   7
ATOM      7  C   UNL     1       3.452   6.438  -8.301  0.00  0.00    +0.047 C 
BRANCH   7   8
ATOM      8  C   UNL     1       3.643   5.099  -9.137  0.00  0.00    +0.139 C 
ATOM      9  C   UNL     1       4.860   5.620  -9.961  0.00  0.00    +0.259 C 
ATOM     10  O   UNL     1       5.980   5.541  -9.368  0.00  0.00    -0.272 OA
ATOM     11  N   UNL     1       4.696   5.175 -11.290  0.00  0.00    -0.135 NA
ATOM     12  C   UNL     1       3.530   5.819 -11.816  0.00  0.00    +0.299 C 
ATOM     13  O   UNL     1       3.282   6.258 -12.958  0.00  0.00    -0.261 OA
ATOM     14  S   UNL     1       2.360   5.554 -10.472  0.00  0.00    -0.046 S 
ENDBRANCH   7   8
ENDBRANCH   4   7
BRANCH   1  15
ATOM     15  O   UNL     1       0.077   5.082  -4.107  0.00  0.00    -0.474 OA
BRANCH  15  16
ATOM     16  C   UNL     1       0.118   5.930  -2.976  0.00  0.00    +0.227 C 
BRANCH  16  17
ATOM     17  C   UNL     1       1.028   5.313  -1.932  0.00  0.00    +0.140 C 
BRANCH  17  19
ATOM     18  C   UNL     1       2.160   6.731  -1.049  0.00  0.00    +0.114 C 
ATOM     19  N   UNL     1       2.108   6.273  -1.692  0.00  0.00    -0.288 N 
BRANCH  19  20
ATOM     20  C   UNL     1       3.106   6.266  -2.725  0.00  0.00    +0.132 A 
ATOM     21  N   UNL     1       3.796   5.147  -2.982  0.00  0.00    -0.229 NA
ATOM     22  C   UNL     1       4.714   5.140  -3.969  0.00  0.00    +0.100 A 
ATOM     23  C   UNL     1       5.015   6.356  -4.560  0.00  0.00    +0.021 A 
ATOM     24  C   UNL     1       4.408   7.533  -4.208  0.00  0.00    +0.004 A 
ATOM     25  C   UNL     1       3.414   7.493  -3.263  0.00  0.00    +0.034 A 
ENDBRANCH  19  20
ENDBRANCH  17  19
ENDBRANCH  16  17
ENDBRANCH  15  16
ENDBRANCH   1  15
TORSDOF 7
ENDMDL
MODEL 8
REMARK VINA RESULT:      -7.6      3.045      7.951
REMARK  Name = 
REMARK  7 active torsions:
REMARK  status: ('A' for Active; 'I' for Inactive)
REMARK    1  A    between atoms: N_2  and  C_3
REMARK    2  A    between atoms: N_2  and  C_20
REMARK    3  A    between atoms: C_3  and  C_4
REMARK    4  A    between atoms: C_4  and  O_5
REMARK    5  A    between atoms: O_5  and  C_6
REMARK    6  A    between atoms: C_9  and  C_10
REMARK    7  A    between atoms: C_10  and  C_11
REMARK                            x       y       z     vdW  Elec       q    Type
REMARK                         _______ _______ _______ _____ _____    ______ ____
ROOT
ATOM      1  C   UNL     1      -1.635   6.099  -4.320  0.00  0.00    +0.139 A 
ATOM      2  C   UNL     1      -0.597   6.992  -4.556  0.00  0.00    +0.037 A 
ATOM      3  C   UNL     1       0.330   6.581  -5.508  0.00  0.00    -0.001 A 
ATOM      4  C   UNL     1      -0.181   5.862  -6.581  0.00  0.00    -0.021 A 
ATOM      5  C   UNL     1      -1.534   5.547  -6.625  0.00  0.00    -0.001 A 
ATOM      6  C   UNL     1      -2.234   5.532  -5.428  0.00  0.00    +0.037 A 
ENDROOT
BRANCH   4   7
ATOM      7  C   UNL     1       0.531   5.788  -7.897  0.00  0.00    +0.047 C 
BRANCH   7   8
ATOM      8  C   UNL     1       2.091   5.836  -7.596  0.00  0.00    +0.139 C 
ATOM      9  C   UNL     1       2.372   7.070  -8.507  0.00  0.00    +0.259 C 
ATOM     10  O   UNL     1       2.123   8.196  -7.973  0.00  0.00    -0.272 OA
ATOM     11  N   UNL     1       3.585   6.830  -9.188  0.00  0.00    -0.135 NA
ATOM     12  C   UNL     1       3.372   5.712 -10.056  0.00  0.00    +0.299 C 
ATOM     13  O   UNL     1       3.806   5.471 -11.203  0.00  0.00    -0.261 OA
ATOM     14  S   UNL     1       2.556   4.561  -8.937  0.00  0.00    -0.046 S 
ENDBRANCH   7   8
ENDBRANCH   4   7
BRANCH   1  15
ATOM     15  O   UNL     1      -2.279   5.989  -3.113  0.00  0.00    -0.474 OA
BRANCH  15  16
ATOM     16  C   UNL     1      -1.708   6.538  -1.943  0.00  0.00    +0.227 C 
BRANCH  16  17
ATOM     17  C   UNL     1      -0.750   5.527  -1.342  0.00  0.00    +0.140 C 
BRANCH  17  19
ATOM     18  C   UNL     1       0.335   6.877  -0.309  0.00  0.00    +0.114 C 
ATOM     19  N   UNL     1       0.393   6.281  -0.825  0.00  0.00    -0.288 N 
BRANCH  19  20
ATOM     20  C   UNL     1       1.654   5.794  -1.312  0.00  0.00    +0.132 A 
ATOM     21  N   UNL     1       2.236   4.739  -0.726  0.00  0.00    -0.229 NA
ATOM     22  C   UNL     1       3.408   4.272  -1.202  0.00  0.00    +0.100 A 
ATOM     23  C   UNL     1       4.035   5.023  -2.182  0.00  0.00    +0.021 A 
ATOM     24  C   UNL     1       3.509   6.180  -2.694  0.00  0.00    +0.004 A 
ATOM     25  C   UNL     1       2.273   6.582  -2.254  0.00  0.00    +0.034 A 
ENDBRANCH  19  20
ENDBRANCH  17  19
ENDBRANCH  16  17
ENDBRANCH  15  16
ENDBRANCH   1  15
TORSDOF 7
ENDMDL
MODEL 9
REMARK VINA RESULT:      -7.6      4.013     10.242
REMARK  Name = 
REMARK  7 active torsions:
REMARK  status: ('A' for Active; 'I' for Inactive)
REMARK    1  A    between atoms: N_2  and  C_3
REMARK    2  A    between atoms: N_2  and  C_20
REMARK    3  A    between atoms: C_3  and  C_4
REMARK    4  A    between atoms: C_4  and  O_5
REMARK    5  A    between atoms: O_5  and  C_6
REMARK    6  A    between atoms: C_9  and  C_10
REMARK    7  A    between atoms: C_10  and  C_11
REMARK                            x       y       z     vdW  Elec       q    Type
REMARK                         _______ _______ _______ _____ _____    ______ ____
ROOT
ATOM      1  C   UNL     1       3.413   5.568  -7.627  0.00  0.00    +0.139 A 
ATOM      2  C   UNL     1       2.737   5.593  -8.840  0.00  0.00    +0.037 A 
ATOM      3  C   UNL     1       3.350   6.336  -9.842  0.00  0.00    -0.001 A 
ATOM      4  C   UNL     1       4.739   6.302  -9.860  0.00  0.00    -0.021 A 
ATOM      5  C   UNL     1       5.428   5.600  -8.877  0.00  0.00    -0.001 A 
ATOM      6  C   UNL     1       4.778   5.359  -7.677  0.00  0.00    +0.037 A 
ENDROOT
BRANCH   4   7
ATOM      7  C   UNL     1       5.524   6.591 -11.102  0.00  0.00    +0.047 C 
BRANCH   7   8
ATOM      8  C   UNL     1       5.724   5.213 -11.870  0.00  0.00    +0.139 C 
ATOM      9  C   UNL     1       7.231   5.448 -12.191  0.00  0.00    +0.259 C 
ATOM     10  O   UNL     1       8.030   5.164 -11.245  0.00  0.00    -0.272 OA
ATOM     11  N   UNL     1       7.461   4.999 -13.509  0.00  0.00    -0.135 NA
ATOM     12  C   UNL     1       6.712   5.847 -14.385  0.00  0.00    +0.299 C 
ATOM     13  O   UNL     1       6.976   6.287 -15.524  0.00  0.00    -0.261 OA
ATOM     14  S   UNL     1       5.115   5.872 -13.553  0.00  0.00    -0.046 S 
ENDBRANCH   7   8
ENDBRANCH   4   7
BRANCH   1  15
ATOM     15  O   UNL     1       2.786   5.435  -6.413  0.00  0.00    -0.474 OA
BRANCH  15  16
ATOM     16  C   UNL     1       1.487   5.955  -6.217  0.00  0.00    +0.227 C 
BRANCH  16  17
ATOM     17  C   UNL     1       0.719   5.025  -5.297  0.00  0.00    +0.140 C 
BRANCH  17  19
ATOM     18  C   UNL     1       1.289   5.896  -3.568  0.00  0.00    +0.114 C 
ATOM     19  N   UNL     1       0.654   5.681  -3.990  0.00  0.00    -0.288 N 
BRANCH  19  20
ATOM     20  C   UNL     1      -0.691   5.949  -3.561  0.00  0.00    +0.132 A 
ATOM     21  N   UNL     1      -1.242   5.214  -2.586  0.00  0.00    -0.229 NA
ATOM     22  C   UNL     1      -2.496   5.486  -2.171  0.00  0.00    +0.100 A 
ATOM     23  C   UNL     1      -3.214   6.418  -2.903  0.00  0.00    +0.021 A 
ATOM     24  C   UNL     1      -2.701   7.079  -3.988  0.00  0.00    +0.004 A 
ATOM     25  C   UNL     1      -1.393   6.846  -4.331  0.00  0.00    +0.034 A 
ENDBRANCH  19  20
ENDBRANCH  17  19
ENDBRANCH  16  17
ENDBRANCH  15  16
ENDBRANCH   1  15
TORSDOF 7
ENDMDL
