MODEL 1
REMARK VINA RESULT:      -7.5      0.000      0.000
REMARK  Name = 
REMARK  3 active torsions:
REMARK  status: ('A' for Active; 'I' for Inactive)
REMARK    1  A    between atoms: C_4  and  O_5
REMARK    2  A    between atoms: O_5  and  C_6
REMARK    3  A    between atoms: C_35  and  C_36
REMARK                            x       y       z     vdW  Elec       q    Type
REMARK                         _______ _______ _______ _____ _____    ______ ____
ROOT
ATOM      1  C   UNL     1       2.207   8.180  -0.189  0.00  0.00    +0.142 C 
ATOM      2  C   UNL     1       0.699   7.596  -0.519  0.00  0.00    +0.064 C 
ATOM      3  C   UNL     1       0.315   6.614   0.737  0.00  0.00    +0.134 C 
ATOM      4  O   UNL     1      -0.697   5.809   0.004  0.00  0.00    -0.334 OA
ATOM      5  C   UNL     1      -1.477   6.216  -0.855  0.00  0.00    +0.224 C 
ATOM      6  C   UNL     1      -1.839   7.682  -0.673  0.00  0.00    +0.093 C 
ATOM      7  C   UNL     1      -2.230   7.353   0.893  0.00  0.00    +0.170 C 
ATOM      8  O   UNL     1      -2.662   8.783   1.220  0.00  0.00    -0.222 OA
ATOM      9  O   UNL     1      -2.782   5.611  -0.713  0.00  0.00    -0.195 OA
ATOM     10  C   UNL     1      -1.257   5.836  -2.255  0.00  0.00    +0.092 C 
ATOM     11  C   UNL     1      -2.355   6.715  -3.159  0.00  0.00    +0.159 C 
ATOM     12  O   UNL     1      -1.171   7.440  -3.781  0.00  0.00    -0.223 OA
ATOM     13  C   UNL     1      -2.520   5.463  -4.150  0.00  0.00    +0.065 C 
ATOM     14  C   UNL     1      -2.457   5.739  -5.740  0.00  0.00    +0.149 C 
ATOM     15  C   UNL     1      -0.798   6.061  -5.675  0.00  0.00    +0.164 C 
ATOM     16  C   UNL     1      -0.559   5.749  -7.255  0.00  0.00    +0.012 C 
ATOM     17  C   UNL     1      -0.060   6.732  -7.952  0.00  0.00    +0.080 C 
ATOM     18  C   UNL     1       1.391   6.878  -7.828  0.00  0.00    +0.341 C 
ATOM     19  O   UNL     1       1.957   7.421  -8.765  0.00  0.00    -0.245 OA
ATOM     20  O   UNL     1       1.782   6.210  -6.655  0.00  0.00    -0.449 OA
ATOM     21  C   UNL     1       1.999   4.772  -7.154  0.00  0.00    +0.174 C 
ATOM     22  C   UNL     1       1.227   3.827  -6.044  0.00  0.00    +0.048 C 
ATOM     23  C   UNL     1       3.264   4.605  -6.109  0.00  0.00    +0.070 C 
ATOM     24  C   UNL     1       4.147   5.731  -6.097  0.00  0.00    -0.022 C 
ATOM     25  C   UNL     1       5.259   5.600  -5.459  0.00  0.00    -0.004 C 
ATOM     26  C   UNL     1       5.417   4.955  -4.150  0.00  0.00    -0.000 C 
ATOM     27  C   UNL     1       4.474   4.482  -3.517  0.00  0.00    -0.000 C 
ATOM     28  C   UNL     1       4.704   5.130  -2.180  0.00  0.00    -0.000 C 
ATOM     29  C   UNL     1       3.512   4.977  -1.804  0.00  0.00    -0.000 C 
ATOM     30  C   UNL     1       2.558   5.861  -1.157  0.00  0.00    -0.002 C 
ATOM     31  O   UNL     1      -1.902   7.302  -5.799  0.00  0.00    -0.349 OA
ATOM     32  C   UNL     1      -0.713   7.681   1.576  0.00  0.00    +0.161 C 
ATOM     33  C   UNL     1       3.067   7.030  -0.929  0.00  0.00    +0.003 C 
ENDROOT
BRANCH  32  34
ATOM     34  C   UNL     1      -0.947   6.654   2.766  0.00  0.00    +0.369 C 
ATOM     35  O   UNL     1       0.212   6.532   3.517  0.00  0.00    -0.245 OA
ATOM     36  O   UNL     1      -1.964   6.747   3.502  0.00  0.00    -0.245 OA
ENDBRANCH  32  34
BRANCH   1  37
ATOM     37  O   UNL     1       2.427   7.515   1.156  0.00  0.00    -0.327 OA
BRANCH  37  46
ATOM     38  C   UNL     1       5.683   9.588   1.364  0.00  0.00    +0.035 C 
ATOM     39  C   UNL     1       4.386  10.435   0.808  0.00  0.00    +0.150 C 
ATOM     40  C   UNL     1       3.849  10.977   2.342  0.00  0.00    +0.199 C 
ATOM     41  O   UNL     1       3.164  12.162   1.722  0.00  0.00    -0.219 OA
ATOM     42  C   UNL     1       2.390  10.135   2.345  0.00  0.00    +0.160 C 
ATOM     43  N   UNL     1       2.013  10.675   3.748  0.00  0.00    -0.127 NA
ATOM     44  C   UNL     1       2.964   8.681   3.003  0.00  0.00    +0.228 C 
ATOM     45  O   UNL     1       4.166   9.179   3.750  0.00  0.00    -0.216 OA
ATOM     46  C   UNL     1       3.775   8.149   1.559  0.00  0.00    +0.268 C 
ATOM     47  O   UNL     1       3.461   9.295   0.649  0.00  0.00    -0.328 OA
ENDBRANCH  37  46
ENDBRANCH   1  37
TORSDOF 3
ENDMDL
MODEL 2
REMARK VINA RESULT:      -5.4      3.393     10.087
REMARK  Name = 
REMARK  3 active torsions:
REMARK  status: ('A' for Active; 'I' for Inactive)
REMARK    1  A    between atoms: C_4  and  O_5
REMARK    2  A    between atoms: O_5  and  C_6
REMARK    3  A    between atoms: C_35  and  C_36
REMARK                            x       y       z     vdW  Elec       q    Type
REMARK                         _______ _______ _______ _____ _____    ______ ____
ROOT
ATOM      1  C   UNL     1       0.655   6.943  -7.098  0.00  0.00    +0.142 C 
ATOM      2  C   UNL     1       2.021   6.458  -6.309  0.00  0.00    +0.064 C 
ATOM      3  C   UNL     1       2.411   4.998  -6.948  0.00  0.00    +0.134 C 
ATOM      4  O   UNL     1       3.212   4.527  -5.788  0.00  0.00    -0.334 OA
ATOM      5  C   UNL     1       3.935   5.213  -5.068  0.00  0.00    +0.224 C 
ATOM      6  C   UNL     1       4.512   6.420  -5.791  0.00  0.00    +0.093 C 
ATOM      7  C   UNL     1       5.034   5.409  -6.982  0.00  0.00    +0.170 C 
ATOM      8  O   UNL     1       5.692   6.514  -7.810  0.00  0.00    -0.222 OA
ATOM      9  O   UNL     1       5.153   4.515  -4.724  0.00  0.00    -0.195 OA
ATOM     10  C   UNL     1       3.504   5.504  -3.695  0.00  0.00    +0.092 C 
ATOM     11  C   UNL     1       4.598   6.609  -3.082  0.00  0.00    +0.159 C 
ATOM     12  O   UNL     1       3.460   7.616  -3.031  0.00  0.00    -0.223 OA
ATOM     13  C   UNL     1       4.474   5.912  -1.642  0.00  0.00    +0.065 C 
ATOM     14  C   UNL     1       4.265   6.862  -0.353  0.00  0.00    +0.149 C 
ATOM     15  C   UNL     1       2.685   7.241  -0.820  0.00  0.00    +0.164 C 
ATOM     16  C   UNL     1       2.223   7.673   0.681  0.00  0.00    +0.012 C 
ATOM     17  C   UNL     1       1.785   8.896   0.802  0.00  0.00    +0.080 C 
ATOM     18  C   UNL     1       0.391   9.076   0.392  0.00  0.00    +0.341 C 
ATOM     19  O   UNL     1      -0.201  10.015   0.903  0.00  0.00    -0.245 OA
ATOM     20  O   UNL     1       0.052   7.991  -0.434  0.00  0.00    -0.449 OA
ATOM     21  C   UNL     1      -0.415   6.939   0.585  0.00  0.00    +0.174 C 
ATOM     22  C   UNL     1       0.345   5.549   0.124  0.00  0.00    +0.048 C 
ATOM     23  C   UNL     1      -1.561   6.421  -0.483  0.00  0.00    +0.070 C 
ATOM     24  C   UNL     1      -2.275   7.487  -1.115  0.00  0.00    -0.022 C 
ATOM     25  C   UNL     1      -3.312   7.169  -1.811  0.00  0.00    -0.004 C 
ATOM     26  C   UNL     1      -3.403   6.028  -2.729  0.00  0.00    -0.000 C 
ATOM     27  C   UNL     1      -2.466   5.259  -2.938  0.00  0.00    -0.000 C 
ATOM     28  C   UNL     1      -2.449   5.267  -4.441  0.00  0.00    -0.000 C 
ATOM     29  C   UNL     1      -1.253   4.879  -4.515  0.00  0.00    -0.000 C 
ATOM     30  C   UNL     1      -0.119   5.318  -5.311  0.00  0.00    -0.002 C 
ATOM     31  O   UNL     1       3.925   8.328  -1.055  0.00  0.00    -0.349 OA
ATOM     32  C   UNL     1       3.665   5.511  -7.979  0.00  0.00    +0.161 C 
ATOM     33  C   UNL     1      -0.434   6.302  -6.093  0.00  0.00    +0.003 C 
ENDROOT
BRANCH  32  34
ATOM     34  C   UNL     1       3.895   4.052  -8.565  0.00  0.00    +0.369 C 
ATOM     35  O   UNL     1       2.693   3.362  -8.592  0.00  0.00    -0.245 OA
ATOM     36  O   UNL     1       4.545   3.884  -9.630  0.00  0.00    -0.245 OA
ENDBRANCH  32  34
BRANCH   1  37
ATOM     37  O   UNL     1       0.505   5.773  -8.050  0.00  0.00    -0.327 OA
BRANCH  37  46
ATOM     38  C   UNL     1      -0.191   7.937 -11.176  0.00  0.00    +0.035 C 
ATOM     39  C   UNL     1       1.291   7.223 -11.175  0.00  0.00    +0.150 C 
ATOM     40  C   UNL     1       0.803   5.783 -11.964  0.00  0.00    +0.199 C 
ATOM     41  O   UNL     1       2.198   5.546 -12.470  0.00  0.00    -0.219 OA
ATOM     42  C   UNL     1       1.095   4.744 -10.671  0.00  0.00    +0.160 C 
ATOM     43  N   UNL     1       0.613   3.511 -11.476  0.00  0.00    -0.127 NA
ATOM     44  C   UNL     1      -0.412   4.897  -9.908  0.00  0.00    +0.228 C 
ATOM     45  O   UNL     1      -1.267   5.293 -11.075  0.00  0.00    -0.216 OA
ATOM     46  C   UNL     1      -0.118   6.488  -9.268  0.00  0.00    +0.268 C 
ATOM     47  O   UNL     1       1.267   6.723  -9.786  0.00  0.00    -0.328 OA
ENDBRANCH  37  46
ENDBRANCH   1  37
TORSDOF 3
ENDMDL
MODEL 3
REMARK VINA RESULT:      -5.0      4.583      7.949
REMARK  Name = 
REMARK  3 active torsions:
REMARK  status: ('A' for Active; 'I' for Inactive)
REMARK    1  A    between atoms: C_4  and  O_5
REMARK    2  A    between atoms: O_5  and  C_6
REMARK    3  A    between atoms: C_35  and  C_36
REMARK                            x       y       z     vdW  Elec       q    Type
REMARK                         _______ _______ _______ _____ _____    ______ ____
ROOT
ATOM      1  C   UNL     1       2.992   7.384  -7.186  0.00  0.00    +0.142 C 
ATOM      2  C   UNL     1       1.898   6.602  -8.143  0.00  0.00    +0.064 C 
ATOM      3  C   UNL     1       1.363   5.327  -7.260  0.00  0.00    +0.134 C 
ATOM      4  O   UNL     1       0.914   4.510  -8.417  0.00  0.00    -0.334 OA
ATOM      5  C   UNL     1       0.408   4.927  -9.457  0.00  0.00    +0.224 C 
ATOM      6  C   UNL     1      -0.357   6.226  -9.260  0.00  0.00    +0.093 C 
ATOM      7  C   UNL     1      -1.174   5.514  -8.020  0.00  0.00    +0.170 C 
ATOM      8  O   UNL     1      -2.044   6.736  -7.720  0.00  0.00    -0.222 OA
ATOM      9  O   UNL     1      -0.663   4.065  -9.905  0.00  0.00    -0.195 OA
ATOM     10  C   UNL     1       1.194   4.891 -10.696  0.00  0.00    +0.092 C 
ATOM     11  C   UNL     1       0.297   5.708 -11.846  0.00  0.00    +0.159 C 
ATOM     12  O   UNL     1       1.396   6.760 -11.869  0.00  0.00    -0.223 OA
ATOM     13  C   UNL     1       0.816   4.678 -12.962  0.00  0.00    +0.065 C 
ATOM     14  C   UNL     1       1.359   5.281 -14.359  0.00  0.00    +0.149 C 
ATOM     15  C   UNL     1       2.748   5.897 -13.617  0.00  0.00    +0.164 C 
ATOM     16  C   UNL     1       3.597   5.967 -15.005  0.00  0.00    +0.012 C 
ATOM     17  C   UNL     1       4.039   7.150 -15.332  0.00  0.00    +0.080 C 
ATOM     18  C   UNL     1       5.266   7.544 -14.637  0.00  0.00    +0.341 C 
ATOM     19  O   UNL     1       5.966   8.366 -15.210  0.00  0.00    -0.245 OA
ATOM     20  O   UNL     1       5.378   6.737 -13.492  0.00  0.00    -0.449 OA
ATOM     21  C   UNL     1       6.116   5.502 -14.032  0.00  0.00    +0.174 C 
ATOM     22  C   UNL     1       5.274   4.219 -13.429  0.00  0.00    +0.048 C 
ATOM     23  C   UNL     1       6.933   5.371 -12.605  0.00  0.00    +0.070 C 
ATOM     24  C   UNL     1       7.436   6.619 -12.119  0.00  0.00    -0.022 C 
ATOM     25  C   UNL     1       8.248   6.577 -11.119  0.00  0.00    -0.004 C 
ATOM     26  C   UNL     1       8.096   5.720  -9.937  0.00  0.00    -0.000 C 
ATOM     27  C   UNL     1       7.146   4.955  -9.781  0.00  0.00    -0.000 C 
ATOM     28  C   UNL     1       6.719   5.346  -8.393  0.00  0.00    -0.000 C 
ATOM     29  C   UNL     1       5.552   4.893  -8.531  0.00  0.00    -0.000 C 
ATOM     30  C   UNL     1       4.240   5.426  -8.206  0.00  0.00    -0.002 C 
ATOM     31  O   UNL     1       1.480   6.901 -14.013  0.00  0.00    -0.349 OA
ATOM     32  C   UNL     1      -0.130   5.981  -6.767  0.00  0.00    +0.161 C 
ATOM     33  C   UNL     1       4.320   6.599  -7.663  0.00  0.00    +0.003 C 
ENDROOT
BRANCH  32  34
ATOM     34  C   UNL     1      -0.496   4.707  -5.891  0.00  0.00    +0.369 C 
ATOM     35  O   UNL     1       0.612   4.305  -5.160  0.00  0.00    -0.245 OA
ATOM     36  O   UNL     1      -1.541   4.689  -5.190  0.00  0.00    -0.245 OA
ENDBRANCH  32  34
BRANCH   1  37
ATOM     37  O   UNL     1       2.889   6.513  -5.949  0.00  0.00    -0.327 OA
BRANCH  37  46
ATOM     38  C   UNL     1       6.074   7.795  -4.176  0.00  0.00    +0.035 C 
ATOM     39  C   UNL     1       4.681   8.115  -3.361  0.00  0.00    +0.150 C 
ATOM     40  C   UNL     1       4.662   6.664  -2.451  0.00  0.00    +0.199 C 
ATOM     41  O   UNL     1       3.834   7.309  -1.375  0.00  0.00    -0.219 OA
ATOM     42  C   UNL     1       3.266   6.022  -3.141  0.00  0.00    +0.160 C 
ATOM     43  N   UNL     1       3.358   4.739  -2.275  0.00  0.00    -0.127 NA
ATOM     44  C   UNL     1       3.997   5.245  -4.459  0.00  0.00    +0.228 C 
ATOM     45  O   UNL     1       5.380   5.036  -3.917  0.00  0.00    -0.216 OA
ATOM     46  C   UNL     1       4.304   6.699  -5.364  0.00  0.00    +0.268 C 
ATOM     47  O   UNL     1       3.736   7.714  -4.422  0.00  0.00    -0.328 OA
ENDBRANCH  37  46
ENDBRANCH   1  37
TORSDOF 3
ENDMDL
