MODEL 1
REMARK VINA RESULT:      -5.9      0.000      0.000
REMARK  Name = 
REMARK  2 active torsions:
REMARK  status: ('A' for Active; 'I' for Inactive)
REMARK    1  A    between atoms: C_7  and  C_8
REMARK    2  A    between atoms: C_9  and  C_10
REMARK                            x       y       z     vdW  Elec       q    Type
REMARK                         _______ _______ _______ _____ _____    ______ ____
ROOT
ATOM      1  C   UNL     1       3.610   4.844  -4.861  0.00  0.00    +0.254 C 
ATOM      2  N   UNL     1       2.679   4.901  -5.962  0.00  0.00    -0.187 N 
ATOM      3  C   UNL     1       3.121   5.452  -7.208  0.00  0.00    +0.319 C 
ATOM      4  N   UNL     1       2.227   5.440  -8.153  0.00  0.00    -0.065 NA
ATOM      5  C   UNL     1       0.816   5.653  -7.899  0.00  0.00    +0.267 C 
ATOM      6  C   UNL     1       0.382   5.104  -6.559  0.00  0.00    +0.109 C 
ATOM      7  C   UNL     1       1.422   4.154  -5.984  0.00  0.00    +0.207 C 
ENDROOT
BRANCH   3   8
ATOM      8  C   UNL     1       4.549   5.490  -7.556  0.00  0.00    +0.089 C 
ATOM      9  C   UNL     1       5.037   5.038  -8.684  0.00  0.00    +0.014 C 
BRANCH   9  10
ATOM     10  C   UNL     1       5.769   5.859  -9.655  0.00  0.00    +0.030 A 
ATOM     11  S   UNL     1       5.207   6.975 -10.831  0.00  0.00    -0.086 S 
ATOM     12  C   UNL     1       6.716   7.618 -11.337  0.00  0.00    +0.035 A 
ATOM     13  C   UNL     1       7.538   7.129 -10.328  0.00  0.00    +0.007 A 
ATOM     14  C   UNL     1       7.133   5.899  -9.900  0.00  0.00    +0.007 A 
ENDBRANCH   9  10
ENDBRANCH   3   8
TORSDOF 2
ENDMDL
MODEL 2
REMARK VINA RESULT:      -5.6      3.162      6.810
REMARK  Name = 
REMARK  2 active torsions:
REMARK  status: ('A' for Active; 'I' for Inactive)
REMARK    1  A    between atoms: C_7  and  C_8
REMARK    2  A    between atoms: C_9  and  C_10
REMARK                            x       y       z     vdW  Elec       q    Type
REMARK                         _______ _______ _______ _____ _____    ______ ____
ROOT
ATOM      1  C   UNL     1       1.647   5.090 -10.276  0.00  0.00    +0.254 C 
ATOM      2  N   UNL     1       2.466   5.084  -9.088  0.00  0.00    -0.187 N 
ATOM      3  C   UNL     1       1.910   5.591  -7.869  0.00  0.00    +0.319 C 
ATOM      4  N   UNL     1       2.706   5.523  -6.842  0.00  0.00    -0.065 NA
ATOM      5  C   UNL     1       4.138   5.721  -6.948  0.00  0.00    +0.267 C 
ATOM      6  C   UNL     1       4.695   5.221  -8.261  0.00  0.00    +0.109 C 
ATOM      7  C   UNL     1       3.704   4.314  -8.975  0.00  0.00    +0.207 C 
ENDROOT
BRANCH   3   8
ATOM      8  C   UNL     1       0.456   5.641  -7.661  0.00  0.00    +0.089 C 
ATOM      9  C   UNL     1      -0.151   5.124  -6.622  0.00  0.00    +0.014 C 
BRANCH   9  10
ATOM     10  C   UNL     1      -0.960   5.893  -5.671  0.00  0.00    +0.030 A 
ATOM     11  S   UNL     1      -0.561   6.570  -4.146  0.00  0.00    -0.086 S 
ATOM     12  C   UNL     1      -1.998   7.464  -3.860  0.00  0.00    +0.035 A 
ATOM     13  C   UNL     1      -2.570   7.414  -5.127  0.00  0.00    +0.007 A 
ATOM     14  C   UNL     1      -2.303   6.232  -5.753  0.00  0.00    +0.007 A 
ENDBRANCH   9  10
ENDBRANCH   3   8
TORSDOF 2
ENDMDL
MODEL 3
REMARK VINA RESULT:      -5.6      3.311      4.474
REMARK  Name = 
REMARK  2 active torsions:
REMARK  status: ('A' for Active; 'I' for Inactive)
REMARK    1  A    between atoms: C_7  and  C_8
REMARK    2  A    between atoms: C_9  and  C_10
REMARK                            x       y       z     vdW  Elec       q    Type
REMARK                         _______ _______ _______ _____ _____    ______ ____
ROOT
ATOM      1  C   UNL     1       2.037   4.095  -6.395  0.00  0.00    +0.254 C 
ATOM      2  N   UNL     1       2.785   5.139  -5.737  0.00  0.00    -0.187 N 
ATOM      3  C   UNL     1       2.842   6.433  -6.349  0.00  0.00    +0.319 C 
ATOM      4  N   UNL     1       3.514   7.321  -5.676  0.00  0.00    -0.065 NA
ATOM      5  C   UNL     1       4.704   6.991  -4.917  0.00  0.00    +0.267 C 
ATOM      6  C   UNL     1       4.642   5.604  -4.320  0.00  0.00    +0.109 C 
ATOM      7  C   UNL     1       3.225   5.051  -4.345  0.00  0.00    +0.207 C 
ENDROOT
BRANCH   3   8
ATOM      8  C   UNL     1       1.809   6.869  -7.299  0.00  0.00    +0.089 C 
ATOM      9  C   UNL     1       2.044   7.140  -8.559  0.00  0.00    +0.014 C 
BRANCH   9  10
ATOM     10  C   UNL     1       1.417   6.440  -9.686  0.00  0.00    +0.030 A 
ATOM     11  S   UNL     1       2.004   6.094 -11.260  0.00  0.00    -0.086 S 
ATOM     12  C   UNL     1       0.736   5.074 -11.805  0.00  0.00    +0.035 A 
ATOM     13  C   UNL     1       0.088   4.829 -10.599  0.00  0.00    +0.007 A 
ATOM     14  C   UNL     1       0.138   5.913  -9.772  0.00  0.00    +0.007 A 
ENDBRANCH   9  10
ENDBRANCH   3   8
TORSDOF 2
ENDMDL
MODEL 4
REMARK VINA RESULT:      -5.5      3.025      4.423
REMARK  Name = 
REMARK  2 active torsions:
REMARK  status: ('A' for Active; 'I' for Inactive)
REMARK    1  A    between atoms: C_7  and  C_8
REMARK    2  A    between atoms: C_9  and  C_10
REMARK                            x       y       z     vdW  Elec       q    Type
REMARK                         _______ _______ _______ _____ _____    ______ ____
ROOT
ATOM      1  C   UNL     1       0.192   5.201  -2.177  0.00  0.00    +0.254 C 
ATOM      2  N   UNL     1      -0.693   5.476  -3.283  0.00  0.00    -0.187 N 
ATOM      3  C   UNL     1      -0.141   5.549  -4.603  0.00  0.00    +0.319 C 
ATOM      4  N   UNL     1      -1.012   5.774  -5.543  0.00  0.00    -0.065 NA
ATOM      5  C   UNL     1      -2.163   6.634  -5.353  0.00  0.00    +0.267 C 
ATOM      6  C   UNL     1      -2.700   6.577  -3.941  0.00  0.00    +0.109 C 
ATOM      7  C   UNL     1      -2.149   5.377  -3.185  0.00  0.00    +0.207 C 
ENDROOT
BRANCH   3   8
ATOM      8  C   UNL     1       1.129   4.886  -4.931  0.00  0.00    +0.089 C 
ATOM      9  C   UNL     1       1.341   4.223  -6.041  0.00  0.00    +0.014 C 
BRANCH   9  10
ATOM     10  C   UNL     1       2.378   4.563  -7.021  0.00  0.00    +0.030 A 
ATOM     11  S   UNL     1       2.705   3.921  -8.577  0.00  0.00    -0.086 S 
ATOM     12  C   UNL     1       3.910   5.034  -9.083  0.00  0.00    +0.035 A 
ATOM     13  C   UNL     1       3.753   6.018  -8.113  0.00  0.00    +0.007 A 
ATOM     14  C   UNL     1       3.409   5.484  -6.906  0.00  0.00    +0.007 A 
ENDBRANCH   9  10
ENDBRANCH   3   8
TORSDOF 2
ENDMDL
MODEL 5
REMARK VINA RESULT:      -5.4      1.979      2.808
REMARK  Name = 
REMARK  2 active torsions:
REMARK  status: ('A' for Active; 'I' for Inactive)
REMARK    1  A    between atoms: C_7  and  C_8
REMARK    2  A    between atoms: C_9  and  C_10
REMARK                            x       y       z     vdW  Elec       q    Type
REMARK                         _______ _______ _______ _____ _____    ______ ____
ROOT
ATOM      1  C   UNL     1       5.350   5.038  -8.297  0.00  0.00    +0.254 C 
ATOM      2  N   UNL     1       4.109   5.752  -8.116  0.00  0.00    -0.187 N 
ATOM      3  C   UNL     1       3.694   6.674  -9.130  0.00  0.00    +0.319 C 
ATOM      4  N   UNL     1       2.552   7.254  -8.900  0.00  0.00    -0.065 NA
ATOM      5  C   UNL     1       2.119   7.630  -7.569  0.00  0.00    +0.267 C 
ATOM      6  C   UNL     1       2.608   6.669  -6.510  0.00  0.00    +0.109 C 
ATOM      7  C   UNL     1       3.104   5.369  -7.126  0.00  0.00    +0.207 C 
ENDROOT
BRANCH   3   8
ATOM      8  C   UNL     1       4.185   6.556 -10.510  0.00  0.00    +0.089 C 
ATOM      9  C   UNL     1       5.106   7.332 -11.026  0.00  0.00    +0.014 C 
BRANCH   9  10
ATOM     10  C   UNL     1       6.389   6.854 -11.553  0.00  0.00    +0.030 A 
ATOM     11  S   UNL     1       7.821   6.364 -10.747  0.00  0.00    -0.086 S 
ATOM     12  C   UNL     1       8.698   5.761 -12.093  0.00  0.00    +0.035 A 
ATOM     13  C   UNL     1       7.681   5.706 -13.040  0.00  0.00    +0.007 A 
ATOM     14  C   UNL     1       6.785   6.721 -12.875  0.00  0.00    +0.007 A 
ENDBRANCH   9  10
ENDBRANCH   3   8
TORSDOF 2
ENDMDL
MODEL 6
REMARK VINA RESULT:      -5.4      3.465      6.605
REMARK  Name = 
REMARK  2 active torsions:
REMARK  status: ('A' for Active; 'I' for Inactive)
REMARK    1  A    between atoms: C_7  and  C_8
REMARK    2  A    between atoms: C_9  and  C_10
REMARK                            x       y       z     vdW  Elec       q    Type
REMARK                         _______ _______ _______ _____ _____    ______ ____
ROOT
ATOM      1  C   UNL     1       4.018   4.381  -9.139  0.00  0.00    +0.254 C 
ATOM      2  N   UNL     1       3.098   5.275  -9.800  0.00  0.00    -0.187 N 
ATOM      3  C   UNL     1       1.781   5.428  -9.259  0.00  0.00    +0.319 C 
ATOM      4  N   UNL     1       1.027   6.273  -9.901  0.00  0.00    -0.065 NA
ATOM      5  C   UNL     1       1.079   6.431 -11.340  0.00  0.00    +0.267 C 
ATOM      6  C   UNL     1       2.469   6.219 -11.895  0.00  0.00    +0.109 C 
ATOM      7  C   UNL     1       3.519   6.262 -10.794  0.00  0.00    +0.207 C 
ENDROOT
BRANCH   3   8
ATOM      8  C   UNL     1       1.501   5.129  -7.848  0.00  0.00    +0.089 C 
ATOM      9  C   UNL     1       0.978   5.989  -7.009  0.00  0.00    +0.014 C 
BRANCH   9  10
ATOM     10  C   UNL     1      -0.291   5.785  -6.302  0.00  0.00    +0.030 A 
ATOM     11  S   UNL     1      -0.692   5.959  -4.643  0.00  0.00    -0.086 S 
ATOM     12  C   UNL     1      -2.393   5.751  -4.752  0.00  0.00    +0.035 A 
ATOM     13  C   UNL     1      -2.563   5.865  -6.127  0.00  0.00    +0.007 A 
ATOM     14  C   UNL     1      -1.503   5.343  -6.810  0.00  0.00    +0.007 A 
ENDBRANCH   9  10
ENDBRANCH   3   8
TORSDOF 2
ENDMDL
MODEL 7
REMARK VINA RESULT:      -5.4      2.556      3.747
REMARK  Name = 
REMARK  2 active torsions:
REMARK  status: ('A' for Active; 'I' for Inactive)
REMARK    1  A    between atoms: C_7  and  C_8
REMARK    2  A    between atoms: C_9  and  C_10
REMARK                            x       y       z     vdW  Elec       q    Type
REMARK                         _______ _______ _______ _____ _____    ______ ____
ROOT
ATOM      1  C   UNL     1       2.613   5.791 -12.869  0.00  0.00    +0.254 C 
ATOM      2  N   UNL     1       1.963   5.838 -11.581  0.00  0.00    -0.187 N 
ATOM      3  C   UNL     1       2.768   6.037 -10.413  0.00  0.00    +0.319 C 
ATOM      4  N   UNL     1       2.100   6.093  -9.298  0.00  0.00    -0.065 NA
ATOM      5  C   UNL     1       0.918   5.290  -9.053  0.00  0.00    +0.267 C 
ATOM      6  C   UNL     1       0.110   5.054 -10.308  0.00  0.00    +0.109 C 
ATOM      7  C   UNL     1       0.520   6.007 -11.421  0.00  0.00    +0.207 C 
ENDROOT
BRANCH   3   8
ATOM      8  C   UNL     1       4.090   6.672 -10.502  0.00  0.00    +0.089 C 
ATOM      9  C   UNL     1       5.201   6.107 -10.099  0.00  0.00    +0.014 C 
BRANCH   9  10
ATOM     10  C   UNL     1       6.347   5.824 -10.969  0.00  0.00    +0.030 A 
ATOM     11  S   UNL     1       6.432   5.548 -12.660  0.00  0.00    -0.086 S 
ATOM     12  C   UNL     1       8.138   5.536 -12.848  0.00  0.00    +0.035 A 
ATOM     13  C   UNL     1       8.521   6.057 -11.617  0.00  0.00    +0.007 A 
ATOM     14  C   UNL     1       7.679   5.661 -10.619  0.00  0.00    +0.007 A 
ENDBRANCH   9  10
ENDBRANCH   3   8
TORSDOF 2
ENDMDL
MODEL 8
REMARK VINA RESULT:      -5.4      3.225      5.031
REMARK  Name = 
REMARK  2 active torsions:
REMARK  status: ('A' for Active; 'I' for Inactive)
REMARK    1  A    between atoms: C_7  and  C_8
REMARK    2  A    between atoms: C_9  and  C_10
REMARK                            x       y       z     vdW  Elec       q    Type
REMARK                         _______ _______ _______ _____ _____    ______ ____
ROOT
ATOM      1  C   UNL     1       4.031   5.174 -10.101  0.00  0.00    +0.254 C 
ATOM      2  N   UNL     1       2.748   5.757 -10.410  0.00  0.00    -0.187 N 
ATOM      3  C   UNL     1       2.089   6.539  -9.406  0.00  0.00    +0.319 C 
ATOM      4  N   UNL     1       0.950   7.048  -9.778  0.00  0.00    -0.065 NA
ATOM      5  C   UNL     1       0.033   6.354 -10.660  0.00  0.00    +0.267 C 
ATOM      6  C   UNL     1       0.749   5.499 -11.680  0.00  0.00    +0.109 C 
ATOM      7  C   UNL     1       2.224   5.860 -11.771  0.00  0.00    +0.207 C 
ENDROOT
BRANCH   3   8
ATOM      8  C   UNL     1       2.847   7.168  -8.317  0.00  0.00    +0.089 C 
ATOM      9  C   UNL     1       2.427   7.234  -7.078  0.00  0.00    +0.014 C 
BRANCH   9  10
ATOM     10  C   UNL     1       3.134   6.648  -5.934  0.00  0.00    +0.030 A 
ATOM     11  S   UNL     1       3.106   5.058  -5.291  0.00  0.00    -0.086 S 
ATOM     12  C   UNL     1       4.370   5.208  -4.140  0.00  0.00    +0.035 A 
ATOM     13  C   UNL     1       4.933   6.410  -4.554  0.00  0.00    +0.007 A 
ATOM     14  C   UNL     1       3.989   7.268  -5.035  0.00  0.00    +0.007 A 
ENDBRANCH   9  10
ENDBRANCH   3   8
TORSDOF 2
ENDMDL
MODEL 9
REMARK VINA RESULT:      -5.4      2.736      3.484
REMARK  Name = 
REMARK  2 active torsions:
REMARK  status: ('A' for Active; 'I' for Inactive)
REMARK    1  A    between atoms: C_7  and  C_8
REMARK    2  A    between atoms: C_9  and  C_10
REMARK                            x       y       z     vdW  Elec       q    Type
REMARK                         _______ _______ _______ _____ _____    ______ ____
ROOT
ATOM      1  C   UNL     1       2.078   7.162  -8.161  0.00  0.00    +0.254 C 
ATOM      2  N   UNL     1       1.704   6.717  -9.482  0.00  0.00    -0.187 N 
ATOM      3  C   UNL     1       2.731   6.549 -10.466  0.00  0.00    +0.319 C 
ATOM      4  N   UNL     1       2.311   6.119 -11.620  0.00  0.00    -0.065 NA
ATOM      5  C   UNL     1       1.034   6.512 -12.183  0.00  0.00    +0.267 C 
ATOM      6  C   UNL     1      -0.022   6.729 -11.123  0.00  0.00    +0.109 C 
ATOM      7  C   UNL     1       0.399   6.132  -9.789  0.00  0.00    +0.207 C 
ENDROOT
BRANCH   3   8
ATOM      8  C   UNL     1       4.130   6.327 -10.072  0.00  0.00    +0.089 C 
ATOM      9  C   UNL     1       4.888   5.384 -10.575  0.00  0.00    +0.014 C 
BRANCH   9  10
ATOM     10  C   UNL     1       6.142   5.630 -11.296  0.00  0.00    +0.030 A 
ATOM     11  S   UNL     1       7.754   5.772 -10.729  0.00  0.00    -0.086 S 
ATOM     12  C   UNL     1       8.570   5.819 -12.239  0.00  0.00    +0.035 A 
ATOM     13  C   UNL     1       7.542   5.411 -13.082  0.00  0.00    +0.007 A 
ATOM     14  C   UNL     1       6.329   5.861 -12.651  0.00  0.00    +0.007 A 
ENDBRANCH   9  10
ENDBRANCH   3   8
TORSDOF 2
ENDMDL
