MODEL 1
REMARK VINA RESULT:      -8.6      0.000      0.000
REMARK  Name = 
REMARK  1 active torsions:
REMARK  status: ('A' for Active; 'I' for Inactive)
REMARK    1  A    between atoms: C_2  and  C_3
REMARK                            x       y       z     vdW  Elec       q    Type
REMARK                         _______ _______ _______ _____ _____    ______ ____
ROOT
ATOM      1  C   UNL     1       3.643   5.569  -8.634  0.00  0.00    +0.180 C 
ATOM      2  C   UNL     1       2.947   5.848  -7.345  0.00  0.00    +0.037 C 
ATOM      3  C   UNL     1       1.542   5.287  -7.927  0.00  0.00    +0.004 C 
ATOM      4  C   UNL     1       0.839   5.139  -6.408  0.00  0.00    +0.004 C 
ATOM      5  C   UNL     1       0.551   6.799  -6.302  0.00  0.00    +0.022 C 
ATOM      6  C   UNL     1       1.991   7.120  -5.620  0.00  0.00    +0.004 C 
ATOM      7  C   UNL     1      -0.215   6.620  -4.914  0.00  0.00    -0.026 A 
ATOM      8  C   UNL     1      -1.504   6.256  -5.305  0.00  0.00    -0.023 A 
ATOM      9  C   UNL     1      -2.342   5.748  -4.326  0.00  0.00    +0.037 A 
ATOM     10  C   UNL     1      -1.811   5.492  -3.066  0.00  0.00    +0.195 A 
ATOM     11  C   UNL     1      -0.446   5.606  -2.820  0.00  0.00    +0.042 A 
ATOM     12  O   UNL     1      -2.628   4.712  -2.239  0.00  0.00    -0.287 OA
ATOM     13  C   UNL     1      -1.613   5.826  -6.742  0.00  0.00    +0.026 C 
ATOM     14  C   UNL     1       0.389   5.956  -3.882  0.00  0.00    -0.001 A 
ATOM     15  C   UNL     1      -0.593   4.810  -7.049  0.00  0.00    +0.005 C 
ATOM     16  C   UNL     1       2.162   3.788  -7.907  0.00  0.00    +0.004 C 
ATOM     17  C   UNL     1       3.345   4.952  -6.210  0.00  0.00    +0.003 C 
ATOM     18  C   UNL     1       2.776   7.249  -6.933  0.00  0.00    +0.004 C 
ATOM     19  C   UNL     1       3.483   4.049  -8.634  0.00  0.00    +0.043 C 
ATOM     20  O   UNL     1       4.934   5.989  -8.731  0.00  0.00    -0.212 OA
ENDROOT
BRANCH   1  22
ATOM     21  C   UNL     1       2.361   6.308 -10.744  0.00  0.00    -0.012 C 
ATOM     22  C   UNL     1       2.855   6.035  -9.788  0.00  0.00    -0.049 C 
ENDBRANCH   1  22
TORSDOF 1
ENDMDL
MODEL 2
REMARK VINA RESULT:      -8.5      2.350      6.739
REMARK  Name = 
REMARK  1 active torsions:
REMARK  status: ('A' for Active; 'I' for Inactive)
REMARK    1  A    between atoms: C_2  and  C_3
REMARK                            x       y       z     vdW  Elec       q    Type
REMARK                         _______ _______ _______ _____ _____    ______ ____
ROOT
ATOM      1  C   UNL     1       1.195   5.848  -5.592  0.00  0.00    +0.180 C 
ATOM      2  C   UNL     1       1.548   6.134  -7.012  0.00  0.00    +0.037 C 
ATOM      3  C   UNL     1       2.945   5.322  -6.877  0.00  0.00    +0.004 C 
ATOM      4  C   UNL     1       3.171   5.207  -8.539  0.00  0.00    +0.004 C 
ATOM      5  C   UNL     1       3.691   6.809  -8.650  0.00  0.00    +0.022 C 
ATOM      6  C   UNL     1       2.194   7.399  -8.879  0.00  0.00    +0.004 C 
ATOM      7  C   UNL     1       4.008   6.643 -10.204  0.00  0.00    -0.026 A 
ATOM      8  C   UNL     1       5.276   6.059 -10.212  0.00  0.00    -0.023 A 
ATOM      9  C   UNL     1       5.717   5.522 -11.410  0.00  0.00    +0.037 A 
ATOM     10  C   UNL     1       4.827   5.459 -12.477  0.00  0.00    +0.195 A 
ATOM     11  C   UNL     1       3.485   5.796 -12.319  0.00  0.00    +0.042 A 
ATOM     12  O   UNL     1       5.244   4.644 -13.535  0.00  0.00    -0.287 OA
ATOM     13  C   UNL     1       5.700   5.492  -8.885  0.00  0.00    +0.026 C 
ATOM     14  C   UNL     1       3.042   6.170 -11.050  0.00  0.00    -0.001 A 
ATOM     15  C   UNL     1       4.647   4.614  -8.346  0.00  0.00    +0.005 C 
ATOM     16  C   UNL     1       2.101   3.939  -6.786  0.00  0.00    +0.004 C 
ATOM     17  C   UNL     1       0.712   5.411  -8.025  0.00  0.00    +0.003 C 
ATOM     18  C   UNL     1       1.831   7.526  -7.393  0.00  0.00    +0.004 C 
ATOM     19  C   UNL     1       1.092   4.327  -5.703  0.00  0.00    +0.043 C 
ATOM     20  O   UNL     1       0.068   6.444  -5.113  0.00  0.00    -0.212 OA
ENDROOT
BRANCH   1  22
ATOM     21  C   UNL     1       3.091   6.339  -3.918  0.00  0.00    -0.012 C 
ATOM     22  C   UNL     1       2.334   6.088  -4.689  0.00  0.00    -0.049 C 
ENDBRANCH   1  22
TORSDOF 1
ENDMDL
MODEL 3
REMARK VINA RESULT:      -8.3      1.497      6.238
REMARK  Name = 
REMARK  1 active torsions:
REMARK  status: ('A' for Active; 'I' for Inactive)
REMARK    1  A    between atoms: C_2  and  C_3
REMARK                            x       y       z     vdW  Elec       q    Type
REMARK                         _______ _______ _______ _____ _____    ______ ____
ROOT
ATOM      1  C   UNL     1      -0.115   5.713  -5.069  0.00  0.00    +0.180 C 
ATOM      2  C   UNL     1       1.156   5.342  -5.753  0.00  0.00    +0.037 C 
ATOM      3  C   UNL     1       0.766   6.225  -7.057  0.00  0.00    +0.004 C 
ATOM      4  C   UNL     1       2.333   6.230  -7.664  0.00  0.00    +0.004 C 
ATOM      5  C   UNL     1       2.192   4.650  -8.239  0.00  0.00    +0.022 C 
ATOM      6  C   UNL     1       2.715   3.979  -6.855  0.00  0.00    +0.004 C 
ATOM      7  C   UNL     1       3.639   4.719  -8.908  0.00  0.00    -0.026 A 
ATOM      8  C   UNL     1       3.399   5.358 -10.125  0.00  0.00    -0.023 A 
ATOM      9  C   UNL     1       4.500   5.827 -10.821  0.00  0.00    +0.037 A 
ATOM     10  C   UNL     1       5.746   5.773 -10.205  0.00  0.00    +0.195 A 
ATOM     11  C   UNL     1       5.879   5.389  -8.874  0.00  0.00    +0.042 A 
ATOM     12  O   UNL     1       6.740   6.529 -10.837  0.00  0.00    -0.287 OA
ATOM     13  C   UNL     1       2.060   6.037 -10.210  0.00  0.00    +0.026 C 
ATOM     14  C   UNL     1       4.721   5.087  -8.156  0.00  0.00    -0.001 A 
ATOM     15  C   UNL     1       1.851   6.902  -9.037  0.00  0.00    +0.005 C 
ATOM     16  C   UNL     1       0.984   7.571  -6.178  0.00  0.00    +0.004 C 
ATOM     17  C   UNL     1       2.390   5.953  -5.159  0.00  0.00    +0.003 C 
ATOM     18  C   UNL     1       1.349   3.942  -6.156  0.00  0.00    +0.004 C 
ATOM     19  C   UNL     1       0.138   7.216  -4.954  0.00  0.00    +0.043 C 
ATOM     20  O   UNL     1      -0.366   5.102  -3.878  0.00  0.00    -0.212 OA
ENDROOT
BRANCH   1  22
ATOM     21  C   UNL     1      -2.229   5.472  -6.523  0.00  0.00    -0.012 C 
ATOM     22  C   UNL     1      -1.274   5.589  -5.970  0.00  0.00    -0.049 C 
ENDBRANCH   1  22
TORSDOF 1
ENDMDL
MODEL 4
REMARK VINA RESULT:      -8.1      2.458      3.978
REMARK  Name = 
REMARK  1 active torsions:
REMARK  status: ('A' for Active; 'I' for Inactive)
REMARK    1  A    between atoms: C_2  and  C_3
REMARK                            x       y       z     vdW  Elec       q    Type
REMARK                         _______ _______ _______ _____ _____    ______ ____
ROOT
ATOM      1  C   UNL     1       2.202   5.533  -9.136  0.00  0.00    +0.180 C 
ATOM      2  C   UNL     1       1.977   5.340  -7.674  0.00  0.00    +0.037 C 
ATOM      3  C   UNL     1       3.236   6.294  -7.307  0.00  0.00    +0.004 C 
ATOM      4  C   UNL     1       2.764   6.494  -5.706  0.00  0.00    +0.004 C 
ATOM      5  C   UNL     1       3.329   4.964  -5.274  0.00  0.00    +0.022 C 
ATOM      6  C   UNL     1       1.922   4.224  -5.611  0.00  0.00    +0.004 C 
ATOM      7  C   UNL     1       2.978   5.221  -3.739  0.00  0.00    -0.026 A 
ATOM      8  C   UNL     1       4.081   5.940  -3.275  0.00  0.00    -0.023 A 
ATOM      9  C   UNL     1       3.956   6.566  -2.046  0.00  0.00    +0.037 A 
ATOM     10  C   UNL     1       2.710   6.571  -1.428  0.00  0.00    +0.195 A 
ATOM     11  C   UNL     1       1.579   6.085  -2.077  0.00  0.00    +0.042 A 
ATOM     12  O   UNL     1       2.596   7.466  -0.358  0.00  0.00    -0.287 OA
ATOM     13  C   UNL     1       4.954   6.500  -4.364  0.00  0.00    +0.026 C 
ATOM     14  C   UNL     1       1.718   5.618  -3.385  0.00  0.00    -0.001 A 
ATOM     15  C   UNL     1       4.137   7.237  -5.343  0.00  0.00    +0.005 C 
ATOM     16  C   UNL     1       2.386   7.572  -7.832  0.00  0.00    +0.004 C 
ATOM     17  C   UNL     1       0.746   6.005  -7.136  0.00  0.00    +0.003 C 
ATOM     18  C   UNL     1       2.199   4.003  -7.105  0.00  0.00    +0.004 C 
ATOM     19  C   UNL     1       1.935   7.037  -9.192  0.00  0.00    +0.043 C 
ATOM     20  O   UNL     1       1.418   4.800  -9.974  0.00  0.00    -0.212 OA
ENDROOT
BRANCH   1  22
ATOM     21  C   UNL     1       4.647   5.265  -9.903  0.00  0.00    -0.012 C 
ATOM     22  C   UNL     1       3.624   5.384  -9.491  0.00  0.00    -0.049 C 
ENDBRANCH   1  22
TORSDOF 1
ENDMDL
MODEL 5
REMARK VINA RESULT:      -8.0      2.652      5.478
REMARK  Name = 
REMARK  1 active torsions:
REMARK  status: ('A' for Active; 'I' for Inactive)
REMARK    1  A    between atoms: C_2  and  C_3
REMARK                            x       y       z     vdW  Elec       q    Type
REMARK                         _______ _______ _______ _____ _____    ______ ____
ROOT
ATOM      1  C   UNL     1       3.396   6.074  -3.938  0.00  0.00    +0.180 C 
ATOM      2  C   UNL     1       2.457   6.013  -5.095  0.00  0.00    +0.037 C 
ATOM      3  C   UNL     1       3.683   6.092  -6.154  0.00  0.00    +0.004 C 
ATOM      4  C   UNL     1       2.749   5.567  -7.449  0.00  0.00    +0.004 C 
ATOM      5  C   UNL     1       2.017   7.077  -7.626  0.00  0.00    +0.022 C 
ATOM      6  C   UNL     1       0.807   6.738  -6.597  0.00  0.00    +0.004 C 
ATOM      7  C   UNL     1       1.228   6.590  -8.924  0.00  0.00    -0.026 A 
ATOM      8  C   UNL     1       2.167   6.743  -9.946  0.00  0.00    -0.023 A 
ATOM      9  C   UNL     1       1.886   6.136 -11.158  0.00  0.00    +0.037 A 
ATOM     10  C   UNL     1       0.781   5.296 -11.239  0.00  0.00    +0.195 A 
ATOM     11  C   UNL     1       0.046   4.956 -10.106  0.00  0.00    +0.042 A 
ATOM     12  O   UNL     1       0.739   4.498 -12.388  0.00  0.00    -0.287 OA
ATOM     13  C   UNL     1       3.578   6.931  -9.461  0.00  0.00    +0.026 C 
ATOM     14  C   UNL     1       0.466   5.455  -8.873  0.00  0.00    -0.001 A 
ATOM     15  C   UNL     1       3.927   5.882  -8.489  0.00  0.00    +0.005 C 
ATOM     16  C   UNL     1       4.121   4.592  -5.719  0.00  0.00    +0.004 C 
ATOM     17  C   UNL     1       1.788   4.686  -5.292  0.00  0.00    +0.003 C 
ATOM     18  C   UNL     1       1.550   7.148  -5.318  0.00  0.00    +0.004 C 
ATOM     19  C   UNL     1       4.135   4.762  -4.199  0.00  0.00    +0.043 C 
ATOM     20  O   UNL     1       2.833   6.155  -2.702  0.00  0.00    -0.212 OA
ENDROOT
BRANCH   1  22
ATOM     21  C   UNL     1       5.181   7.925  -4.099  0.00  0.00    -0.012 C 
ATOM     22  C   UNL     1       4.412   7.126  -4.117  0.00  0.00    -0.049 C 
ENDBRANCH   1  22
TORSDOF 1
ENDMDL
MODEL 6
REMARK VINA RESULT:      -7.9      1.656      3.495
REMARK  Name = 
REMARK  1 active torsions:
REMARK  status: ('A' for Active; 'I' for Inactive)
REMARK    1  A    between atoms: C_2  and  C_3
REMARK                            x       y       z     vdW  Elec       q    Type
REMARK                         _______ _______ _______ _____ _____    ______ ____
ROOT
ATOM      1  C   UNL     1       4.817   5.563 -10.488  0.00  0.00    +0.180 C 
ATOM      2  C   UNL     1       3.589   5.235  -9.709  0.00  0.00    +0.037 C 
ATOM      3  C   UNL     1       3.926   6.375  -8.607  0.00  0.00    +0.004 C 
ATOM      4  C   UNL     1       2.372   6.379  -7.966  0.00  0.00    +0.004 C 
ATOM      5  C   UNL     1       2.646   4.952  -7.108  0.00  0.00    +0.022 C 
ATOM      6  C   UNL     1       2.158   3.992  -8.325  0.00  0.00    +0.004 C 
ATOM      7  C   UNL     1       1.208   5.038  -6.423  0.00  0.00    -0.026 A 
ATOM      8  C   UNL     1       1.415   5.913  -5.355  0.00  0.00    -0.023 A 
ATOM      9  C   UNL     1       0.290   6.422  -4.729  0.00  0.00    +0.037 A 
ATOM     10  C   UNL     1      -0.957   6.159  -5.287  0.00  0.00    +0.195 A 
ATOM     11  C   UNL     1      -1.077   5.519  -6.518  0.00  0.00    +0.042 A 
ATOM     12  O   UNL     1      -1.999   6.945  -4.780  0.00  0.00    -0.287 OA
ATOM     13  C   UNL     1       2.697   6.694  -5.438  0.00  0.00    +0.026 C 
ATOM     14  C   UNL     1       0.090   5.174  -7.199  0.00  0.00    -0.001 A 
ATOM     15  C   UNL     1       2.820   7.333  -6.759  0.00  0.00    +0.005 C 
ATOM     16  C   UNL     1       3.590   7.510  -9.717  0.00  0.00    +0.004 C 
ATOM     17  C   UNL     1       2.302   5.627 -10.371  0.00  0.00    +0.003 C 
ATOM     18  C   UNL     1       3.513   3.926  -9.044  0.00  0.00    +0.004 C 
ATOM     19  C   UNL     1       4.444   6.993 -10.876  0.00  0.00    +0.043 C 
ATOM     20  O   UNL     1       5.098   4.757 -11.549  0.00  0.00    -0.212 OA
ENDROOT
BRANCH   1  22
ATOM     21  C   UNL     1       6.962   5.744  -9.071  0.00  0.00    -0.012 C 
ATOM     22  C   UNL     1       5.995   5.700  -9.613  0.00  0.00    -0.049 C 
ENDBRANCH   1  22
TORSDOF 1
ENDMDL
MODEL 7
REMARK VINA RESULT:      -7.8      1.765      2.286
REMARK  Name = 
REMARK  1 active torsions:
REMARK  status: ('A' for Active; 'I' for Inactive)
REMARK    1  A    between atoms: C_2  and  C_3
REMARK                            x       y       z     vdW  Elec       q    Type
REMARK                         _______ _______ _______ _____ _____    ______ ____
ROOT
ATOM      1  C   UNL     1       2.891   5.810  -9.571  0.00  0.00    +0.180 C 
ATOM      2  C   UNL     1       3.058   6.082  -8.115  0.00  0.00    +0.037 C 
ATOM      3  C   UNL     1       1.730   5.223  -7.755  0.00  0.00    +0.004 C 
ATOM      4  C   UNL     1       2.113   5.098  -6.123  0.00  0.00    +0.004 C 
ATOM      5  C   UNL     1       1.618   6.681  -5.812  0.00  0.00    +0.022 C 
ATOM      6  C   UNL     1       3.079   7.321  -6.122  0.00  0.00    +0.004 C 
ATOM      7  C   UNL     1       1.880   6.502  -4.249  0.00  0.00    -0.026 A 
ATOM      8  C   UNL     1       0.716   5.876  -3.799  0.00  0.00    -0.023 A 
ATOM      9  C   UNL     1       0.747   5.322  -2.531  0.00  0.00    +0.037 A 
ATOM     10  C   UNL     1       1.960   5.287  -1.851  0.00  0.00    +0.195 A 
ATOM     11  C   UNL     1       3.147   5.669  -2.470  0.00  0.00    +0.042 A 
ATOM     12  O   UNL     1       1.972   4.456  -0.724  0.00  0.00    -0.287 OA
ATOM     13  C   UNL     1      -0.134   5.297  -4.896  0.00  0.00    +0.026 C 
ATOM     14  C   UNL     1       3.097   6.060  -3.808  0.00  0.00    -0.001 A 
ATOM     15  C   UNL     1       0.684   4.456  -5.787  0.00  0.00    +0.005 C 
ATOM     16  C   UNL     1       2.528   3.870  -8.159  0.00  0.00    +0.004 C 
ATOM     17  C   UNL     1       4.221   5.386  -7.475  0.00  0.00    +0.003 C 
ATOM     18  C   UNL     1       2.886   7.462  -7.638  0.00  0.00    +0.004 C 
ATOM     19  C   UNL     1       3.073   4.294  -9.524  0.00  0.00    +0.043 C 
ATOM     20  O   UNL     1       3.754   6.445 -10.411  0.00  0.00    -0.212 OA
ENDROOT
BRANCH   1  22
ATOM     21  C   UNL     1       0.509   6.232 -10.459  0.00  0.00    -0.012 C 
ATOM     22  C   UNL     1       1.498   6.014 -10.006  0.00  0.00    -0.049 C 
ENDBRANCH   1  22
TORSDOF 1
ENDMDL
MODEL 8
REMARK VINA RESULT:      -7.7      1.282      6.131
REMARK  Name = 
REMARK  1 active torsions:
REMARK  status: ('A' for Active; 'I' for Inactive)
REMARK    1  A    between atoms: C_2  and  C_3
REMARK                            x       y       z     vdW  Elec       q    Type
REMARK                         _______ _______ _______ _____ _____    ______ ____
ROOT
ATOM      1  C   UNL     1      -1.088   6.080  -4.326  0.00  0.00    +0.180 C 
ATOM      2  C   UNL     1      -0.324   5.543  -5.489  0.00  0.00    +0.037 C 
ATOM      3  C   UNL     1       0.556   6.901  -5.598  0.00  0.00    +0.004 C 
ATOM      4  C   UNL     1       1.732   6.197  -6.570  0.00  0.00    +0.004 C 
ATOM      5  C   UNL     1       0.754   6.285  -7.942  0.00  0.00    +0.022 C 
ATOM      6  C   UNL     1       0.072   4.832  -7.690  0.00  0.00    +0.004 C 
ATOM      7  C   UNL     1       1.925   5.723  -8.867  0.00  0.00    -0.026 A 
ATOM      8  C   UNL     1       2.691   6.857  -9.139  0.00  0.00    -0.023 A 
ATOM      9  C   UNL     1       3.947   6.656  -9.685  0.00  0.00    +0.037 A 
ATOM     10  C   UNL     1       4.426   5.354  -9.787  0.00  0.00    +0.195 A 
ATOM     11  C   UNL     1       3.730   4.283  -9.232  0.00  0.00    +0.042 A 
ATOM     12  O   UNL     1       5.795   5.257 -10.062  0.00  0.00    -0.287 OA
ATOM     13  C   UNL     1       2.395   8.029  -8.243  0.00  0.00    +0.026 C 
ATOM     14  C   UNL     1       2.550   4.551  -8.538  0.00  0.00    -0.001 A 
ATOM     15  C   UNL     1       2.434   7.613  -6.831  0.00  0.00    +0.005 C 
ATOM     16  C   UNL     1       1.301   6.498  -4.215  0.00  0.00    +0.004 C 
ATOM     17  C   UNL     1       0.622   4.429  -5.157  0.00  0.00    +0.003 C 
ATOM     18  C   UNL     1      -1.041   5.326  -6.754  0.00  0.00    +0.004 C 
ATOM     19  C   UNL     1       0.078   6.198  -3.345  0.00  0.00    +0.043 C 
ATOM     20  O   UNL     1      -2.119   5.317  -3.870  0.00  0.00    -0.212 OA
ENDROOT
BRANCH   1  22
ATOM     21  C   UNL     1      -1.902   8.511  -4.588  0.00  0.00    -0.012 C 
ATOM     22  C   UNL     1      -1.530   7.466  -4.560  0.00  0.00    -0.049 C 
ENDBRANCH   1  22
TORSDOF 1
ENDMDL
MODEL 9
REMARK VINA RESULT:      -7.0      2.407      6.513
REMARK  Name = 
REMARK  1 active torsions:
REMARK  status: ('A' for Active; 'I' for Inactive)
REMARK    1  A    between atoms: C_2  and  C_3
REMARK                            x       y       z     vdW  Elec       q    Type
REMARK                         _______ _______ _______ _____ _____    ______ ____
ROOT
ATOM      1  C   UNL     1       2.086   5.782  -6.071  0.00  0.00    +0.180 C 
ATOM      2  C   UNL     1       2.456   5.462  -7.480  0.00  0.00    +0.037 C 
ATOM      3  C   UNL     1       1.175   6.278  -8.050  0.00  0.00    +0.004 C 
ATOM      4  C   UNL     1       1.776   6.354  -9.618  0.00  0.00    +0.004 C 
ATOM      5  C   UNL     1       1.356   4.750  -9.932  0.00  0.00    +0.022 C 
ATOM      6  C   UNL     1       2.772   4.155  -9.402  0.00  0.00    +0.004 C 
ATOM      7  C   UNL     1       1.827   4.879 -11.451  0.00  0.00    -0.026 A 
ATOM      8  C   UNL     1       0.725   5.463 -12.079  0.00  0.00    -0.023 A 
ATOM      9  C   UNL     1       0.920   5.972 -13.352  0.00  0.00    +0.037 A 
ATOM     10  C   UNL     1       2.214   6.010 -13.861  0.00  0.00    +0.195 A 
ATOM     11  C   UNL     1       3.311   5.677 -13.071  0.00  0.00    +0.042 A 
ATOM     12  O   UNL     1       2.366   6.801 -15.006  0.00  0.00    -0.287 OA
ATOM     13  C   UNL     1      -0.278   6.061 -11.131  0.00  0.00    +0.026 C 
ATOM     14  C   UNL     1       3.085   5.333 -11.738  0.00  0.00    -0.001 A 
ATOM     15  C   UNL     1       0.396   6.951 -10.170  0.00  0.00    +0.005 C 
ATOM     16  C   UNL     1       1.887   7.662  -7.593  0.00  0.00    +0.004 C 
ATOM     17  C   UNL     1       3.684   6.162  -7.981  0.00  0.00    +0.003 C 
ATOM     18  C   UNL     1       2.375   4.063  -7.922  0.00  0.00    +0.004 C 
ATOM     19  C   UNL     1       2.247   7.299  -6.151  0.00  0.00    +0.043 C 
ATOM     20  O   UNL     1       2.837   5.197  -5.098  0.00  0.00    -0.212 OA
ENDROOT
BRANCH   1  22
ATOM     21  C   UNL     1      -0.402   5.444  -5.492  0.00  0.00    -0.012 C 
ATOM     22  C   UNL     1       0.651   5.563  -5.823  0.00  0.00    -0.049 C 
ENDBRANCH   1  22
TORSDOF 1
ENDMDL
