MODEL 1
REMARK VINA RESULT:      -8.2      0.000      0.000
REMARK  Name = 
REMARK  7 active torsions:
REMARK  status: ('A' for Active; 'I' for Inactive)
REMARK    1  A    between atoms: C_2  and  C_3
REMARK    2  A    between atoms: C_2  and  N_12
REMARK    3  A    between atoms: C_3  and  C_4
REMARK    4  A    between atoms: C_4  and  C_5
REMARK    5  A    between atoms: N_12  and  C_13
REMARK    6  A    between atoms: C_13  and  C_14
REMARK    7  A    between atoms: C_14  and  C_15
REMARK                            x       y       z     vdW  Elec       q    Type
REMARK                         _______ _______ _______ _____ _____    ______ ____
ROOT
ATOM      1  C   UNL     1       4.417   5.511  -6.300  0.00  0.00    +0.019 C 
ATOM      2  C   UNL     1       3.193   5.971  -7.306  0.00  0.00    +0.073 C 
ENDROOT
BRANCH   2   3
ATOM      3  N   UNL     1       2.284   4.759  -6.850  0.00  0.00    -0.219 NA
BRANCH   3   4
ATOM      4  C   UNL     1       0.938   5.160  -7.150  0.00  0.00    +0.093 C 
BRANCH   4   5
ATOM      5  C   UNL     1       0.476   6.383  -6.423  0.00  0.00    +0.045 C 
BRANCH   5   6
ATOM      6  C   UNL     1      -0.328   6.115  -5.225  0.00  0.00    -0.017 A 
ATOM      7  C   UNL     1       0.142   6.064  -3.942  0.00  0.00    +0.041 A 
ATOM      8  C   UNL     1      -0.598   5.381  -2.985  0.00  0.00    +0.234 A 
ATOM      9  O   UNL     1      -0.017   4.741  -1.908  0.00  0.00    -0.283 OA
ATOM     10  C   UNL     1      -1.981   5.377  -3.112  0.00  0.00    +0.234 A 
ATOM     11  O   UNL     1      -2.750   4.931  -2.042  0.00  0.00    -0.283 OA
ATOM     12  C   UNL     1      -2.512   5.650  -4.345  0.00  0.00    +0.045 A 
ATOM     13  C   UNL     1      -1.706   6.025  -5.387  0.00  0.00    -0.001 A 
ENDBRANCH   5   6
ENDBRANCH   4   5
ENDBRANCH   3   4
ENDBRANCH   2   3
BRANCH   2  14
ATOM     14  C   UNL     1       3.822   5.106  -8.563  0.00  0.00    +0.022 C 
BRANCH  14  15
ATOM     15  C   UNL     1       5.305   5.367  -8.378  0.00  0.00    +0.028 C 
BRANCH  15  16
ATOM     16  C   UNL     1       5.940   5.810  -9.659  0.00  0.00    -0.022 A 
ATOM     17  C   UNL     1       5.247   5.789 -10.863  0.00  0.00    -0.001 A 
ATOM     18  C   UNL     1       5.873   5.362 -12.017  0.00  0.00    +0.042 A 
ATOM     19  C   UNL     1       7.248   5.222 -12.090  0.00  0.00    +0.196 A 
ATOM     20  O   UNL     1       7.879   4.793 -13.262  0.00  0.00    -0.287 OA
ATOM     21  C   UNL     1       7.960   5.505 -10.936  0.00  0.00    +0.042 A 
ATOM     22  C   UNL     1       7.310   5.727  -9.753  0.00  0.00    -0.001 A 
ENDBRANCH  15  16
ENDBRANCH  14  15
ENDBRANCH   2  14
TORSDOF 7
ENDMDL
MODEL 2
REMARK VINA RESULT:      -8.1      1.235      9.621
REMARK  Name = 
REMARK  7 active torsions:
REMARK  status: ('A' for Active; 'I' for Inactive)
REMARK    1  A    between atoms: C_2  and  C_3
REMARK    2  A    between atoms: C_2  and  N_12
REMARK    3  A    between atoms: C_3  and  C_4
REMARK    4  A    between atoms: C_4  and  C_5
REMARK    5  A    between atoms: N_12  and  C_13
REMARK    6  A    between atoms: C_13  and  C_14
REMARK    7  A    between atoms: C_14  and  C_15
REMARK                            x       y       z     vdW  Elec       q    Type
REMARK                         _______ _______ _______ _____ _____    ______ ____
ROOT
ATOM      1  C   UNL     1       0.177   5.613  -9.794  0.00  0.00    +0.019 C 
ATOM      2  C   UNL     1       1.527   5.997  -8.928  0.00  0.00    +0.073 C 
ENDROOT
BRANCH   2   3
ATOM      3  N   UNL     1       2.321   4.756  -9.505  0.00  0.00    -0.219 NA
BRANCH   3   4
ATOM      4  C   UNL     1       3.519   4.672  -8.718  0.00  0.00    +0.093 C 
BRANCH   4   5
ATOM      5  C   UNL     1       4.413   5.866  -8.815  0.00  0.00    +0.045 C 
BRANCH   5   6
ATOM      6  C   UNL     1       5.410   5.800  -9.890  0.00  0.00    -0.017 A 
ATOM      7  C   UNL     1       5.143   5.844 -11.231  0.00  0.00    +0.041 A 
ATOM      8  C   UNL     1       6.084   5.335 -12.118  0.00  0.00    +0.234 A 
ATOM      9  O   UNL     1       5.737   4.764 -13.326  0.00  0.00    -0.283 OA
ATOM     10  C   UNL     1       7.425   5.440 -11.775  0.00  0.00    +0.234 A 
ATOM     11  O   UNL     1       8.386   5.179 -12.746  0.00  0.00    -0.283 OA
ATOM     12  C   UNL     1       7.736   5.625 -10.454  0.00  0.00    +0.045 A 
ATOM     13  C   UNL     1       6.750   5.815  -9.521  0.00  0.00    -0.001 A 
ENDBRANCH   5   6
ENDBRANCH   4   5
ENDBRANCH   3   4
ENDBRANCH   2   3
BRANCH   2  14
ATOM     14  C   UNL     1       1.007   5.134  -7.622  0.00  0.00    +0.022 C 
BRANCH  14  15
ATOM     15  C   UNL     1      -0.477   5.445  -7.645  0.00  0.00    +0.028 C 
BRANCH  15  16
ATOM     16  C   UNL     1      -0.953   5.911  -6.304  0.00  0.00    -0.022 A 
ATOM     17  C   UNL     1      -0.112   5.938  -5.199  0.00  0.00    -0.001 A 
ATOM     18  C   UNL     1      -0.576   5.531  -3.964  0.00  0.00    +0.042 A 
ATOM     19  C   UNL     1      -1.927   5.367  -3.711  0.00  0.00    +0.196 A 
ATOM     20  O   UNL     1      -2.393   4.960  -2.458  0.00  0.00    -0.287 OA
ATOM     21  C   UNL     1      -2.787   5.604  -4.771  0.00  0.00    +0.042 A 
ATOM     22  C   UNL     1      -2.298   5.804  -6.033  0.00  0.00    -0.001 A 
ENDBRANCH  15  16
ENDBRANCH  14  15
ENDBRANCH   2  14
TORSDOF 7
ENDMDL
MODEL 3
REMARK VINA RESULT:      -7.9      4.557      8.124
REMARK  Name = 
REMARK  7 active torsions:
REMARK  status: ('A' for Active; 'I' for Inactive)
REMARK    1  A    between atoms: C_2  and  C_3
REMARK    2  A    between atoms: C_2  and  N_12
REMARK    3  A    between atoms: C_3  and  C_4
REMARK    4  A    between atoms: C_4  and  C_5
REMARK    5  A    between atoms: N_12  and  C_13
REMARK    6  A    between atoms: C_13  and  C_14
REMARK    7  A    between atoms: C_14  and  C_15
REMARK                            x       y       z     vdW  Elec       q    Type
REMARK                         _______ _______ _______ _____ _____    ______ ____
ROOT
ATOM      1  C   UNL     1       2.087   7.619  -7.762  0.00  0.00    +0.019 C 
ATOM      2  C   UNL     1       1.647   6.101  -7.289  0.00  0.00    +0.073 C 
ENDROOT
BRANCH   2   3
ATOM      3  N   UNL     1       3.154   5.667  -7.081  0.00  0.00    -0.219 NA
BRANCH   3   4
ATOM      4  C   UNL     1       3.806   5.941  -8.330  0.00  0.00    +0.093 C 
BRANCH   4   5
ATOM      5  C   UNL     1       5.251   5.561  -8.376  0.00  0.00    +0.045 C 
BRANCH   5   6
ATOM      6  C   UNL     1       5.840   5.553  -9.720  0.00  0.00    -0.017 A 
ATOM      7  C   UNL     1       5.150   5.663 -10.896  0.00  0.00    +0.041 A 
ATOM      8  C   UNL     1       5.744   5.203 -12.065  0.00  0.00    +0.234 A 
ATOM      9  O   UNL     1       5.015   4.692 -13.120  0.00  0.00    -0.283 OA
ATOM     10  C   UNL     1       7.125   5.298 -12.175  0.00  0.00    +0.234 A 
ATOM     11  O   UNL     1       7.713   5.091 -13.419  0.00  0.00    -0.283 OA
ATOM     12  C   UNL     1       7.852   5.419 -11.021  0.00  0.00    +0.045 A 
ATOM     13  C   UNL     1       7.227   5.557  -9.809  0.00  0.00    -0.001 A 
ENDBRANCH   5   6
ENDBRANCH   4   5
ENDBRANCH   3   4
ENDBRANCH   2   3
BRANCH   2  14
ATOM     14  C   UNL     1       1.641   5.554  -8.846  0.00  0.00    +0.022 C 
BRANCH  14  15
ATOM     15  C   UNL     1       0.172   5.698  -9.196  0.00  0.00    +0.028 C 
BRANCH  15  16
ATOM     16  C   UNL     1      -0.023   5.805 -10.676  0.00  0.00    -0.022 A 
ATOM     17  C   UNL     1       0.549   4.896 -11.556  0.00  0.00    -0.001 A 
ATOM     18  C   UNL     1       1.112   5.335 -12.738  0.00  0.00    +0.042 A 
ATOM     19  C   UNL     1       0.879   6.609 -13.227  0.00  0.00    +0.196 A 
ATOM     20  O   UNL     1       1.446   7.048 -14.426  0.00  0.00    -0.287 OA
ATOM     21  C   UNL     1       0.076   7.431 -12.452  0.00  0.00    +0.042 A 
ATOM     22  C   UNL     1      -0.300   7.050 -11.193  0.00  0.00    -0.001 A 
ENDBRANCH  15  16
ENDBRANCH  14  15
ENDBRANCH   2  14
TORSDOF 7
ENDMDL
MODEL 4
REMARK VINA RESULT:      -7.9      3.809      5.020
REMARK  Name = 
REMARK  7 active torsions:
REMARK  status: ('A' for Active; 'I' for Inactive)
REMARK    1  A    between atoms: C_2  and  C_3
REMARK    2  A    between atoms: C_2  and  N_12
REMARK    3  A    between atoms: C_3  and  C_4
REMARK    4  A    between atoms: C_4  and  C_5
REMARK    5  A    between atoms: N_12  and  C_13
REMARK    6  A    between atoms: C_13  and  C_14
REMARK    7  A    between atoms: C_14  and  C_15
REMARK                            x       y       z     vdW  Elec       q    Type
REMARK                         _______ _______ _______ _____ _____    ______ ____
ROOT
ATOM      1  C   UNL     1       2.173   7.611  -7.757  0.00  0.00    +0.019 C 
ATOM      2  C   UNL     1       2.615   6.178  -8.443  0.00  0.00    +0.073 C 
ENDROOT
BRANCH   2   3
ATOM      3  N   UNL     1       1.108   5.731  -8.620  0.00  0.00    -0.219 NA
BRANCH   3   4
ATOM      4  C   UNL     1       0.656   5.384  -7.301  0.00  0.00    +0.093 C 
BRANCH   4   5
ATOM      5  C   UNL     1      -0.814   5.543  -7.085  0.00  0.00    +0.045 C 
BRANCH   5   6
ATOM      6  C   UNL     1      -1.229   5.550  -5.677  0.00  0.00    -0.017 A 
ATOM      7  C   UNL     1      -0.410   5.771  -4.603  0.00  0.00    +0.041 A 
ATOM      8  C   UNL     1      -0.811   5.320  -3.352  0.00  0.00    +0.234 A 
ATOM      9  O   UNL     1       0.086   4.920  -2.381  0.00  0.00    -0.283 OA
ATOM     10  C   UNL     1      -2.170   5.305  -3.070  0.00  0.00    +0.234 A 
ATOM     11  O   UNL     1      -2.579   5.109  -1.755  0.00  0.00    -0.283 OA
ATOM     12  C   UNL     1      -3.044   5.311  -4.125  0.00  0.00    +0.045 A 
ATOM     13  C   UNL     1      -2.589   5.443  -5.411  0.00  0.00    -0.001 A 
ENDBRANCH   5   6
ENDBRANCH   4   5
ENDBRANCH   3   4
ENDBRANCH   2   3
BRANCH   2  14
ATOM     14  C   UNL     1       2.725   5.440  -6.971  0.00  0.00    +0.022 C 
BRANCH  14  15
ATOM     15  C   UNL     1       4.148   5.791  -6.579  0.00  0.00    +0.028 C 
BRANCH  15  16
ATOM     16  C   UNL     1       4.249   6.082  -5.115  0.00  0.00    -0.022 A 
ATOM     17  C   UNL     1       3.146   5.995  -4.275  0.00  0.00    -0.001 A 
ATOM     18  C   UNL     1       2.941   6.949  -3.298  0.00  0.00    +0.042 A 
ATOM     19  C   UNL     1       3.936   7.836  -2.926  0.00  0.00    +0.196 A 
ATOM     20  O   UNL     1       3.726   8.798  -1.933  0.00  0.00    -0.287 OA
ATOM     21  C   UNL     1       5.140   7.734  -3.604  0.00  0.00    +0.042 A 
ATOM     22  C   UNL     1       5.254   6.925  -4.700  0.00  0.00    -0.001 A 
ENDBRANCH  15  16
ENDBRANCH  14  15
ENDBRANCH   2  14
TORSDOF 7
ENDMDL
MODEL 5
REMARK VINA RESULT:      -7.9      4.913      6.481
REMARK  Name = 
REMARK  7 active torsions:
REMARK  status: ('A' for Active; 'I' for Inactive)
REMARK    1  A    between atoms: C_2  and  C_3
REMARK    2  A    between atoms: C_2  and  N_12
REMARK    3  A    between atoms: C_3  and  C_4
REMARK    4  A    between atoms: C_4  and  C_5
REMARK    5  A    between atoms: N_12  and  C_13
REMARK    6  A    between atoms: C_13  and  C_14
REMARK    7  A    between atoms: C_14  and  C_15
REMARK                            x       y       z     vdW  Elec       q    Type
REMARK                         _______ _______ _______ _____ _____    ______ ____
ROOT
ATOM      1  C   UNL     1       2.769   3.863  -8.641  0.00  0.00    +0.019 C 
ATOM      2  C   UNL     1       2.703   5.068  -7.517  0.00  0.00    +0.073 C 
ENDROOT
BRANCH   2   3
ATOM      3  N   UNL     1       1.266   5.519  -7.999  0.00  0.00    -0.219 NA
BRANCH   3   4
ATOM      4  C   UNL     1       1.441   5.963  -9.354  0.00  0.00    +0.093 C 
BRANCH   4   5
ATOM      5  C   UNL     1       0.225   5.832 -10.214  0.00  0.00    +0.045 C 
BRANCH   5   6
ATOM      6  C   UNL     1       0.472   5.994 -11.651  0.00  0.00    -0.017 A 
ATOM      7  C   UNL     1       0.865   5.006 -12.511  0.00  0.00    +0.041 A 
ATOM      8  C   UNL     1       1.482   5.363 -13.704  0.00  0.00    +0.234 A 
ATOM      9  O   UNL     1       2.427   4.569 -14.322  0.00  0.00    -0.283 OA
ATOM     10  C   UNL     1       1.098   6.555 -14.304  0.00  0.00    +0.234 A 
ATOM     11  O   UNL     1       1.502   6.806 -15.611  0.00  0.00    -0.283 OA
ATOM     12  C   UNL     1       0.488   7.498 -13.521  0.00  0.00    +0.045 A 
ATOM     13  C   UNL     1       0.166   7.226 -12.218  0.00  0.00    -0.001 A 
ENDBRANCH   5   6
ENDBRANCH   4   5
ENDBRANCH   3   4
ENDBRANCH   2   3
BRANCH   2  14
ATOM     14  C   UNL     1       3.446   6.136  -8.532  0.00  0.00    +0.022 C 
BRANCH  14  15
ATOM     15  C   UNL     1       4.861   5.590  -8.538  0.00  0.00    +0.028 C 
BRANCH  15  16
ATOM     16  C   UNL     1       5.578   5.962  -9.799  0.00  0.00    -0.022 A 
ATOM     17  C   UNL     1       4.974   5.846 -11.044  0.00  0.00    -0.001 A 
ATOM     18  C   UNL     1       5.689   5.358 -12.120  0.00  0.00    +0.042 A 
ATOM     19  C   UNL     1       7.068   5.245 -12.086  0.00  0.00    +0.196 A 
ATOM     20  O   UNL     1       7.789   4.755 -13.179  0.00  0.00    -0.287 OA
ATOM     21  C   UNL     1       7.690   5.620 -10.907  0.00  0.00    +0.042 A 
ATOM     22  C   UNL     1       6.953   5.903  -9.790  0.00  0.00    -0.001 A 
ENDBRANCH  15  16
ENDBRANCH  14  15
ENDBRANCH   2  14
TORSDOF 7
ENDMDL
MODEL 6
REMARK VINA RESULT:      -7.8      3.918      8.226
REMARK  Name = 
REMARK  7 active torsions:
REMARK  status: ('A' for Active; 'I' for Inactive)
REMARK    1  A    between atoms: C_2  and  C_3
REMARK    2  A    between atoms: C_2  and  N_12
REMARK    3  A    between atoms: C_3  and  C_4
REMARK    4  A    between atoms: C_4  and  C_5
REMARK    5  A    between atoms: N_12  and  C_13
REMARK    6  A    between atoms: C_13  and  C_14
REMARK    7  A    between atoms: C_14  and  C_15
REMARK                            x       y       z     vdW  Elec       q    Type
REMARK                         _______ _______ _______ _____ _____    ______ ____
ROOT
ATOM      1  C   UNL     1       0.241   5.720  -8.250  0.00  0.00    +0.019 C 
ATOM      2  C   UNL     1       0.746   6.232  -6.766  0.00  0.00    +0.073 C 
ENDROOT
BRANCH   2   3
ATOM      3  N   UNL     1       1.972   5.233  -6.774  0.00  0.00    -0.219 NA
BRANCH   3   4
ATOM      4  C   UNL     1       3.095   6.012  -7.215  0.00  0.00    +0.093 C 
BRANCH   4   5
ATOM      5  C   UNL     1       4.398   5.641  -6.581  0.00  0.00    +0.045 C 
BRANCH   5   6
ATOM      6  C   UNL     1       4.502   5.977  -5.156  0.00  0.00    -0.017 A 
ATOM      7  C   UNL     1       4.634   5.080  -4.131  0.00  0.00    +0.041 A 
ATOM      8  C   UNL     1       4.279   5.475  -2.847  0.00  0.00    +0.234 A 
ATOM      9  O   UNL     1       3.782   4.595  -1.907  0.00  0.00    -0.283 OA
ATOM     10  C   UNL     1       4.466   6.807  -2.500  0.00  0.00    +0.234 A 
ATOM     11  O   UNL     1       4.367   7.170  -1.161  0.00  0.00    -0.283 OA
ATOM     12  C   UNL     1       4.568   7.724  -3.513  0.00  0.00    +0.045 A 
ATOM     13  C   UNL     1       4.598   7.323  -4.822  0.00  0.00    -0.001 A 
ENDBRANCH   5   6
ENDBRANCH   4   5
ENDBRANCH   3   4
ENDBRANCH   2   3
BRANCH   2  14
ATOM     14  C   UNL     1      -0.219   5.139  -5.994  0.00  0.00    +0.022 C 
BRANCH  14  15
ATOM     15  C   UNL     1      -1.594   5.623  -6.415  0.00  0.00    +0.028 C 
BRANCH  15  16
ATOM     16  C   UNL     1      -2.342   6.201  -5.254  0.00  0.00    -0.022 A 
ATOM     17  C   UNL     1      -2.163   7.519  -4.854  0.00  0.00    -0.001 A 
ATOM     18  C   UNL     1      -2.093   7.832  -3.510  0.00  0.00    +0.042 A 
ATOM     19  C   UNL     1      -2.480   6.933  -2.532  0.00  0.00    +0.196 A 
ATOM     20  O   UNL     1      -2.412   7.255  -1.173  0.00  0.00    -0.287 OA
ATOM     21  C   UNL     1      -2.913   5.692  -2.969  0.00  0.00    +0.042 A 
ATOM     22  C   UNL     1      -2.781   5.332  -4.282  0.00  0.00    -0.001 A 
ENDBRANCH  15  16
ENDBRANCH  14  15
ENDBRANCH   2  14
TORSDOF 7
ENDMDL
MODEL 7
REMARK VINA RESULT:      -7.7      4.147      7.529
REMARK  Name = 
REMARK  7 active torsions:
REMARK  status: ('A' for Active; 'I' for Inactive)
REMARK    1  A    between atoms: C_2  and  C_3
REMARK    2  A    between atoms: C_2  and  N_12
REMARK    3  A    between atoms: C_3  and  C_4
REMARK    4  A    between atoms: C_4  and  C_5
REMARK    5  A    between atoms: N_12  and  C_13
REMARK    6  A    between atoms: C_13  and  C_14
REMARK    7  A    between atoms: C_14  and  C_15
REMARK                            x       y       z     vdW  Elec       q    Type
REMARK                         _______ _______ _______ _____ _____    ______ ____
ROOT
ATOM      1  C   UNL     1       2.066   3.858  -6.655  0.00  0.00    +0.019 C 
ATOM      2  C   UNL     1       2.013   4.863  -7.961  0.00  0.00    +0.073 C 
ENDROOT
BRANCH   2   3
ATOM      3  N   UNL     1       3.459   5.428  -7.659  0.00  0.00    -0.219 NA
BRANCH   3   4
ATOM      4  C   UNL     1       3.295   6.319  -6.545  0.00  0.00    +0.093 C 
BRANCH   4   5
ATOM      5  C   UNL     1       4.468   6.383  -5.621  0.00  0.00    +0.045 C 
BRANCH   5   6
ATOM      6  C   UNL     1       4.129   6.311  -4.195  0.00  0.00    -0.017 A 
ATOM      7  C   UNL     1       3.672   7.347  -3.428  0.00  0.00    +0.041 A 
ATOM      8  C   UNL     1       3.815   7.273  -2.048  0.00  0.00    +0.234 A 
ATOM      9  O   UNL     1       3.986   8.390  -1.254  0.00  0.00    -0.283 OA
ATOM     10  C   UNL     1       3.749   6.020  -1.453  0.00  0.00    +0.234 A 
ATOM     11  O   UNL     1       3.629   5.941  -0.070  0.00  0.00    -0.283 OA
ATOM     12  C   UNL     1       3.980   4.924  -2.242  0.00  0.00    +0.045 A 
ATOM     13  C   UNL     1       4.157   5.058  -3.594  0.00  0.00    -0.001 A 
ENDBRANCH   5   6
ENDBRANCH   4   5
ENDBRANCH   3   4
ENDBRANCH   2   3
BRANCH   2  14
ATOM     14  C   UNL     1       1.295   6.062  -7.083  0.00  0.00    +0.022 C 
BRANCH  14  15
ATOM     15  C   UNL     1      -0.113   5.514  -6.947  0.00  0.00    +0.028 C 
BRANCH  15  16
ATOM     16  C   UNL     1      -0.742   5.952  -5.661  0.00  0.00    -0.022 A 
ATOM     17  C   UNL     1      -0.028   5.972  -4.469  0.00  0.00    -0.001 A 
ATOM     18  C   UNL     1      -0.621   5.539  -3.299  0.00  0.00    +0.042 A 
ATOM     19  C   UNL     1      -1.989   5.353  -3.201  0.00  0.00    +0.196 A 
ATOM     20  O   UNL     1      -2.586   4.919  -2.013  0.00  0.00    -0.287 OA
ATOM     21  C   UNL     1      -2.729   5.597  -4.346  0.00  0.00    +0.042 A 
ATOM     22  C   UNL     1      -2.106   5.824  -5.543  0.00  0.00    -0.001 A 
ENDBRANCH  15  16
ENDBRANCH  14  15
ENDBRANCH   2  14
TORSDOF 7
ENDMDL
MODEL 8
REMARK VINA RESULT:      -7.5      3.752      5.215
REMARK  Name = 
REMARK  7 active torsions:
REMARK  status: ('A' for Active; 'I' for Inactive)
REMARK    1  A    between atoms: C_2  and  C_3
REMARK    2  A    between atoms: C_2  and  N_12
REMARK    3  A    between atoms: C_3  and  C_4
REMARK    4  A    between atoms: C_4  and  C_5
REMARK    5  A    between atoms: N_12  and  C_13
REMARK    6  A    between atoms: C_13  and  C_14
REMARK    7  A    between atoms: C_14  and  C_15
REMARK                            x       y       z     vdW  Elec       q    Type
REMARK                         _______ _______ _______ _____ _____    ______ ____
ROOT
ATOM      1  C   UNL     1       2.970   3.932  -8.911  0.00  0.00    +0.019 C 
ATOM      2  C   UNL     1       2.593   4.356  -7.362  0.00  0.00    +0.073 C 
ENDROOT
BRANCH   2   3
ATOM      3  N   UNL     1       1.196   4.952  -7.804  0.00  0.00    -0.219 NA
BRANCH   3   4
ATOM      4  C   UNL     1       0.419   5.032  -6.599  0.00  0.00    +0.093 C 
BRANCH   4   5
ATOM      5  C   UNL     1      -0.264   6.345  -6.385  0.00  0.00    +0.045 C 
BRANCH   5   6
ATOM      6  C   UNL     1      -0.901   6.497  -5.071  0.00  0.00    -0.017 A 
ATOM      7  C   UNL     1      -1.021   5.518  -4.123  0.00  0.00    +0.041 A 
ATOM      8  C   UNL     1      -2.003   5.647  -3.149  0.00  0.00    +0.234 A 
ATOM      9  O   UNL     1      -2.627   4.560  -2.570  0.00  0.00    -0.283 OA
ATOM     10  C   UNL     1      -2.338   6.927  -2.728  0.00  0.00    +0.234 A 
ATOM     11  O   UNL     1      -3.118   7.073  -1.585  0.00  0.00    -0.283 OA
ATOM     12  C   UNL     1      -2.029   7.975  -3.554  0.00  0.00    +0.045 A 
ATOM     13  C   UNL     1      -1.311   7.773  -4.704  0.00  0.00    -0.001 A 
ENDBRANCH   5   6
ENDBRANCH   4   5
ENDBRANCH   3   4
ENDBRANCH   2   3
BRANCH   2  14
ATOM     14  C   UNL     1       3.337   5.820  -7.519  0.00  0.00    +0.022 C 
BRANCH  14  15
ATOM     15  C   UNL     1       4.569   5.611  -6.660  0.00  0.00    +0.028 C 
BRANCH  15  16
ATOM     16  C   UNL     1       4.327   6.055  -5.251  0.00  0.00    -0.022 A 
ATOM     17  C   UNL     1       4.712   5.279  -4.165  0.00  0.00    -0.001 A 
ATOM     18  C   UNL     1       3.878   5.155  -3.071  0.00  0.00    +0.042 A 
ATOM     19  C   UNL     1       2.797   5.998  -2.880  0.00  0.00    +0.196 A 
ATOM     20  O   UNL     1       1.958   5.873  -1.769  0.00  0.00    -0.287 OA
ATOM     21  C   UNL     1       2.579   6.955  -3.858  0.00  0.00    +0.042 A 
ATOM     22  C   UNL     1       3.288   6.929  -5.027  0.00  0.00    -0.001 A 
ENDBRANCH  15  16
ENDBRANCH  14  15
ENDBRANCH   2  14
TORSDOF 7
ENDMDL
MODEL 9
REMARK VINA RESULT:      -7.4      3.470      4.293
REMARK  Name = 
REMARK  7 active torsions:
REMARK  status: ('A' for Active; 'I' for Inactive)
REMARK    1  A    between atoms: C_2  and  C_3
REMARK    2  A    between atoms: C_2  and  N_12
REMARK    3  A    between atoms: C_3  and  C_4
REMARK    4  A    between atoms: C_4  and  C_5
REMARK    5  A    between atoms: N_12  and  C_13
REMARK    6  A    between atoms: C_13  and  C_14
REMARK    7  A    between atoms: C_14  and  C_15
REMARK                            x       y       z     vdW  Elec       q    Type
REMARK                         _______ _______ _______ _____ _____    ______ ____
ROOT
ATOM      1  C   UNL     1       4.710   5.350  -4.230  0.00  0.00    +0.019 C 
ATOM      2  C   UNL     1       4.863   6.993  -4.261  0.00  0.00    +0.073 C 
ENDROOT
BRANCH   2   3
ATOM      3  N   UNL     1       3.644   7.183  -3.270  0.00  0.00    -0.219 NA
BRANCH   3   4
ATOM      4  C   UNL     1       3.219   5.853  -2.931  0.00  0.00    +0.093 C 
BRANCH   4   5
ATOM      5  C   UNL     1       1.747   5.707  -2.715  0.00  0.00    +0.045 C 
BRANCH   5   6
ATOM      6  C   UNL     1       0.939   5.777  -3.938  0.00  0.00    -0.017 A 
ATOM      7  C   UNL     1       0.088   6.793  -4.277  0.00  0.00    +0.041 A 
ATOM      8  C   UNL     1      -0.921   6.542  -5.198  0.00  0.00    +0.234 A 
ATOM      9  O   UNL     1      -2.137   7.194  -5.169  0.00  0.00    -0.283 OA
ATOM     10  C   UNL     1      -0.669   5.617  -6.203  0.00  0.00    +0.234 A 
ATOM     11  O   UNL     1      -1.551   5.539  -7.276  0.00  0.00    -0.283 OA
ATOM     12  C   UNL     1       0.337   4.710  -6.002  0.00  0.00    +0.045 A 
ATOM     13  C   UNL     1       1.141   4.789  -4.895  0.00  0.00    -0.001 A 
ENDBRANCH   5   6
ENDBRANCH   4   5
ENDBRANCH   3   4
ENDBRANCH   2   3
BRANCH   2  14
ATOM     14  C   UNL     1       3.886   7.118  -5.585  0.00  0.00    +0.022 C 
BRANCH  14  15
ATOM     15  C   UNL     1       4.376   5.948  -6.416  0.00  0.00    +0.028 C 
BRANCH  15  16
ATOM     16  C   UNL     1       3.700   5.912  -7.751  0.00  0.00    -0.022 A 
ATOM     17  C   UNL     1       2.890   6.953  -8.187  0.00  0.00    -0.001 A 
ATOM     18  C   UNL     1       1.706   6.681  -8.844  0.00  0.00    +0.042 A 
ATOM     19  C   UNL     1       1.423   5.422  -9.345  0.00  0.00    +0.196 A 
ATOM     20  O   UNL     1       0.225   5.152 -10.014  0.00  0.00    -0.287 OA
ATOM     21  C   UNL     1       2.377   4.442  -9.127  0.00  0.00    +0.042 A 
ATOM     22  C   UNL     1       3.442   4.678  -8.302  0.00  0.00    -0.001 A 
ENDBRANCH  15  16
ENDBRANCH  14  15
ENDBRANCH   2  14
TORSDOF 7
ENDMDL
