MODEL 1
REMARK VINA RESULT:      -8.8      0.000      0.000
REMARK  Name = 
REMARK  7 active torsions:
REMARK  status: ('A' for Active; 'I' for Inactive)
REMARK    1  A    between atoms: N_2  and  C_3
REMARK    2  A    between atoms: C_3  and  C_5
REMARK    3  A    between atoms: C_10  and  O_11
REMARK    4  A    between atoms: O_11  and  C_12
REMARK    5  A    between atoms: C_18  and  O_19
REMARK    6  A    between atoms: O_19  and  C_20
REMARK    7  A    between atoms: C_26  and  N_27
REMARK                            x       y       z     vdW  Elec       q    Type
REMARK                         _______ _______ _______ _____ _____    ______ ____
ROOT
ATOM      1  C   UNL     1       2.874   5.076  -9.442  0.00  0.00    +0.168 C 
ATOM      2  C   UNL     1       3.823   5.999  -8.354  0.00  0.00    +0.209 C 
ATOM      3  O   UNL     1       2.864   6.972  -7.776  0.00  0.00    -0.218 OA
ATOM      4  C   UNL     1       3.716   4.898  -7.034  0.00  0.00    +0.168 C 
ATOM      5  C   UNL     1       2.354   4.054  -7.635  0.00  0.00    +0.123 C 
ATOM      6  N   UNL     1       1.928   3.435  -6.274  0.00  0.00    -0.130 NA
ATOM      7  C   UNL     1       1.302   5.311  -7.569  0.00  0.00    +0.043 C 
ATOM      8  C   UNL     1       1.287   5.654  -9.171  0.00  0.00    +0.123 C 
ATOM      9  N   UNL     1       1.568   7.190  -9.172  0.00  0.00    -0.130 NA
ENDROOT
BRANCH   1  10
ATOM     10  O   UNL     1       3.224   5.949 -10.594  0.00  0.00    -0.328 OA
BRANCH  10  13
ATOM     11  C   UNL     1       6.277   5.426 -12.218  0.00  0.00    +0.134 C 
ATOM     12  O   UNL     1       5.219   6.364 -11.649  0.00  0.00    -0.331 OA
ATOM     13  C   UNL     1       4.284   5.190 -11.382  0.00  0.00    +0.253 C 
ATOM     14  C   UNL     1       3.438   5.244 -12.898  0.00  0.00    +0.148 C 
ATOM     15  N   UNL     1       2.482   6.432 -12.582  0.00  0.00    -0.128 NA
ATOM     16  C   UNL     1       4.429   6.245 -13.707  0.00  0.00    +0.027 C 
ATOM     17  C   UNL     1       5.768   5.692 -13.750  0.00  0.00    +0.033 C 
BRANCH  11  18
ATOM     18  C   UNL     1       7.543   6.595 -12.203  0.00  0.00    +0.100 C 
ATOM     19  C   UNL     1       7.685   6.637 -10.581  0.00  0.00    +0.021 C 
BRANCH  18  21
ATOM     20  C   UNL     1       9.186   5.830 -12.302  0.00  0.00    +0.107 C 
ATOM     21  N   UNL     1       8.713   5.572 -12.363  0.00  0.00    -0.215 NA
ENDBRANCH  18  21
ENDBRANCH  11  18
ENDBRANCH  10  13
ENDBRANCH   1  10
BRANCH   4  22
ATOM     22  O   UNL     1       2.987   5.803  -6.075  0.00  0.00    -0.327 OA
BRANCH  22  23
ATOM     23  C   UNL     1       4.244   5.912  -5.208  0.00  0.00    +0.268 C 
ATOM     24  C   UNL     1       3.674   7.250  -4.258  0.00  0.00    +0.226 C 
ATOM     25  O   UNL     1       4.966   7.999  -4.318  0.00  0.00    -0.216 OA
ATOM     26  C   UNL     1       4.170   6.481  -2.810  0.00  0.00    +0.138 C 
ATOM     27  C   UNL     1       2.620   6.070  -2.538  0.00  0.00    +0.171 C 
ATOM     28  O   UNL     1       1.850   7.173  -2.507  0.00  0.00    -0.222 OA
ATOM     29  C   UNL     1       2.532   5.065  -1.484  0.00  0.00    +0.037 C 
ATOM     30  C   UNL     1       2.427   5.383  -3.865  0.00  0.00    +0.176 C 
ATOM     31  O   UNL     1       3.645   4.840  -4.291  0.00  0.00    -0.326 OA
BRANCH  26  32
ATOM     32  N   UNL     1       4.123   7.782  -1.946  0.00  0.00    -0.213 NA
ATOM     33  C   UNL     1       4.975   7.250  -0.877  0.00  0.00    +0.108 C 
ENDBRANCH  26  32
ENDBRANCH  22  23
ENDBRANCH   4  22
TORSDOF 7
ENDMDL
MODEL 2
REMARK VINA RESULT:      -8.2      2.361      2.878
REMARK  Name = 
REMARK  7 active torsions:
REMARK  status: ('A' for Active; 'I' for Inactive)
REMARK    1  A    between atoms: N_2  and  C_3
REMARK    2  A    between atoms: C_3  and  C_5
REMARK    3  A    between atoms: C_10  and  O_11
REMARK    4  A    between atoms: O_11  and  C_12
REMARK    5  A    between atoms: C_18  and  O_19
REMARK    6  A    between atoms: O_19  and  C_20
REMARK    7  A    between atoms: C_26  and  N_27
REMARK                            x       y       z     vdW  Elec       q    Type
REMARK                         _______ _______ _______ _____ _____    ______ ____
ROOT
ATOM      1  C   UNL     1       3.468   5.687  -8.467  0.00  0.00    +0.168 C 
ATOM      2  C   UNL     1       2.205   6.677  -7.865  0.00  0.00    +0.209 C 
ATOM      3  O   UNL     1       1.052   5.752  -7.739  0.00  0.00    -0.218 OA
ATOM      4  C   UNL     1       2.655   6.565  -6.206  0.00  0.00    +0.168 C 
ATOM      5  C   UNL     1       3.632   5.173  -6.396  0.00  0.00    +0.123 C 
ATOM      6  N   UNL     1       3.618   4.755  -4.898  0.00  0.00    -0.130 NA
ATOM      7  C   UNL     1       2.431   4.153  -6.853  0.00  0.00    +0.043 C 
ATOM      8  C   UNL     1       2.784   4.120  -8.453  0.00  0.00    +0.123 C 
ATOM      9  N   UNL     1       1.395   4.439  -9.093  0.00  0.00    -0.130 NA
ENDROOT
BRANCH   1  10
ATOM     10  O   UNL     1       3.163   6.040  -9.879  0.00  0.00    -0.328 OA
BRANCH  10  13
ATOM     11  C   UNL     1       6.062   5.488 -11.756  0.00  0.00    +0.134 C 
ATOM     12  O   UNL     1       5.041   6.436 -11.135  0.00  0.00    -0.331 OA
ATOM     13  C   UNL     1       4.161   5.260 -10.726  0.00  0.00    +0.253 C 
ATOM     14  C   UNL     1       3.176   5.225 -12.157  0.00  0.00    +0.148 C 
ATOM     15  N   UNL     1       2.229   6.411 -11.809  0.00  0.00    -0.128 NA
ATOM     16  C   UNL     1       4.066   6.202 -13.102  0.00  0.00    +0.027 C 
ATOM     17  C   UNL     1       5.407   5.669 -13.244  0.00  0.00    +0.033 C 
BRANCH  11  18
ATOM     18  C   UNL     1       7.298   6.678 -11.916  0.00  0.00    +0.100 C 
ATOM     19  C   UNL     1       7.678   6.708 -10.333  0.00  0.00    +0.021 C 
BRANCH  18  21
ATOM     20  C   UNL     1       8.922   5.935 -12.240  0.00  0.00    +0.107 C 
ATOM     21  N   UNL     1       8.447   5.675 -12.258  0.00  0.00    -0.215 NA
ENDBRANCH  18  21
ENDBRANCH  11  18
ENDBRANCH  10  13
ENDBRANCH   1  10
BRANCH   4  22
ATOM     22  O   UNL     1       1.413   5.874  -5.706  0.00  0.00    -0.327 OA
BRANCH  22  23
ATOM     23  C   UNL     1       1.050   7.108  -4.876  0.00  0.00    +0.268 C 
ATOM     24  C   UNL     1      -0.625   6.690  -4.682  0.00  0.00    +0.226 C 
ATOM     25  O   UNL     1      -1.127   8.069  -4.961  0.00  0.00    -0.216 OA
ATOM     26  C   UNL     1      -0.556   7.037  -3.006  0.00  0.00    +0.138 C 
ATOM     27  C   UNL     1      -0.476   5.438  -2.713  0.00  0.00    +0.171 C 
ATOM     28  O   UNL     1      -1.544   4.819  -3.248  0.00  0.00    -0.222 OA
ATOM     29  C   UNL     1      -0.079   5.189  -1.332  0.00  0.00    +0.037 C 
ATOM     30  C   UNL     1       0.717   5.197  -3.601  0.00  0.00    +0.176 C 
ATOM     31  O   UNL     1       1.516   6.346  -3.630  0.00  0.00    -0.326 OA
BRANCH  26  32
ATOM     32  N   UNL     1      -2.105   7.134  -2.827  0.00  0.00    -0.213 NA
ATOM     33  C   UNL     1      -2.036   7.781  -1.512  0.00  0.00    +0.108 C 
ENDBRANCH  26  32
ENDBRANCH  22  23
ENDBRANCH   4  22
TORSDOF 7
ENDMDL
MODEL 3
REMARK VINA RESULT:      -8.0      3.109      9.362
REMARK  Name = 
REMARK  7 active torsions:
REMARK  status: ('A' for Active; 'I' for Inactive)
REMARK    1  A    between atoms: N_2  and  C_3
REMARK    2  A    between atoms: C_3  and  C_5
REMARK    3  A    between atoms: C_10  and  O_11
REMARK    4  A    between atoms: O_11  and  C_12
REMARK    5  A    between atoms: C_18  and  O_19
REMARK    6  A    between atoms: O_19  and  C_20
REMARK    7  A    between atoms: C_26  and  N_27
REMARK                            x       y       z     vdW  Elec       q    Type
REMARK                         _______ _______ _______ _____ _____    ______ ____
ROOT
ATOM      1  C   UNL     1       3.099   6.105  -1.742  0.00  0.00    +0.168 C 
ATOM      2  C   UNL     1       2.107   6.230  -3.134  0.00  0.00    +0.209 C 
ATOM      3  O   UNL     1       2.719   7.333  -3.915  0.00  0.00    -0.218 OA
ATOM      4  C   UNL     1       2.883   4.980  -4.029  0.00  0.00    +0.168 C 
ATOM      5  C   UNL     1       4.315   4.973  -3.092  0.00  0.00    +0.123 C 
ATOM      6  N   UNL     1       5.204   4.265  -4.153  0.00  0.00    -0.130 NA
ATOM      7  C   UNL     1       4.802   6.493  -3.470  0.00  0.00    +0.043 C 
ATOM      8  C   UNL     1       4.368   7.208  -2.061  0.00  0.00    +0.123 C 
ATOM      9  N   UNL     1       3.531   8.426  -2.565  0.00  0.00    -0.130 NA
ENDROOT
BRANCH   1  10
ATOM     10  O   UNL     1       2.223   7.012  -0.954  0.00  0.00    -0.328 OA
BRANCH  10  13
ATOM     11  C   UNL     1      -1.079   5.891  -1.216  0.00  0.00    +0.134 C 
ATOM     12  O   UNL     1      -0.003   6.933  -1.502  0.00  0.00    -0.331 OA
ATOM     13  C   UNL     1       0.985   6.194  -0.607  0.00  0.00    +0.253 C 
ATOM     14  C   UNL     1       0.623   7.050   0.861  0.00  0.00    +0.148 C 
ATOM     15  N   UNL     1       1.433   8.349   0.571  0.00  0.00    -0.128 NA
ATOM     16  C   UNL     1      -0.745   7.790   0.393  0.00  0.00    +0.027 C 
ATOM     17  C   UNL     1      -1.725   6.805  -0.023  0.00  0.00    +0.033 C 
BRANCH  11  18
ATOM     18  C   UNL     1      -2.132   6.408  -2.479  0.00  0.00    +0.100 C 
ATOM     19  C   UNL     1      -1.124   5.992  -3.689  0.00  0.00    +0.021 C 
BRANCH  18  21
ATOM     20  C   UNL     1      -3.126   5.014  -3.083  0.00  0.00    +0.107 C 
ATOM     21  N   UNL     1      -2.936   5.072  -2.579  0.00  0.00    -0.215 NA
ENDBRANCH  18  21
ENDBRANCH  11  18
ENDBRANCH  10  13
ENDBRANCH   1  10
BRANCH   4  22
ATOM     22  O   UNL     1       3.389   5.829  -5.166  0.00  0.00    -0.327 OA
BRANCH  22  23
ATOM     23  C   UNL     1       2.768   4.861  -6.177  0.00  0.00    +0.268 C 
ATOM     24  C   UNL     1       1.639   6.007  -6.831  0.00  0.00    +0.226 C 
ATOM     25  O   UNL     1       0.491   5.051  -6.847  0.00  0.00    -0.216 OA
ATOM     26  C   UNL     1       2.054   5.558  -8.431  0.00  0.00    +0.138 C 
ATOM     27  C   UNL     1       2.960   6.906  -8.539  0.00  0.00    +0.171 C 
ATOM     28  O   UNL     1       2.201   7.990  -8.299  0.00  0.00    -0.222 OA
ATOM     29  C   UNL     1       3.835   6.845  -9.704  0.00  0.00    +0.037 C 
ATOM     30  C   UNL     1       3.784   6.612  -7.312  0.00  0.00    +0.176 C 
ATOM     31  O   UNL     1       3.898   5.226  -7.146  0.00  0.00    -0.326 OA
BRANCH  26  32
ATOM     32  N   UNL     1       0.783   6.193  -9.082  0.00  0.00    -0.213 NA
ATOM     33  C   UNL     1       0.715   5.228 -10.185  0.00  0.00    +0.108 C 
ENDBRANCH  26  32
ENDBRANCH  22  23
ENDBRANCH   4  22
TORSDOF 7
ENDMDL
MODEL 4
REMARK VINA RESULT:      -7.9      1.976      3.423
REMARK  Name = 
REMARK  7 active torsions:
REMARK  status: ('A' for Active; 'I' for Inactive)
REMARK    1  A    between atoms: N_2  and  C_3
REMARK    2  A    between atoms: C_3  and  C_5
REMARK    3  A    between atoms: C_10  and  O_11
REMARK    4  A    between atoms: O_11  and  C_12
REMARK    5  A    between atoms: C_18  and  O_19
REMARK    6  A    between atoms: O_19  and  C_20
REMARK    7  A    between atoms: C_26  and  N_27
REMARK                            x       y       z     vdW  Elec       q    Type
REMARK                         _______ _______ _______ _____ _____    ______ ____
ROOT
ATOM      1  C   UNL     1       2.476   5.728  -7.568  0.00  0.00    +0.168 C 
ATOM      2  C   UNL     1       1.460   5.998  -6.214  0.00  0.00    +0.209 C 
ATOM      3  O   UNL     1       1.678   4.807  -5.357  0.00  0.00    -0.218 OA
ATOM      4  C   UNL     1       2.563   6.997  -5.348  0.00  0.00    +0.168 C 
ATOM      5  C   UNL     1       3.949   6.506  -6.224  0.00  0.00    +0.123 C 
ATOM      6  N   UNL     1       4.988   6.964  -5.162  0.00  0.00    -0.130 NA
ATOM      7  C   UNL     1       3.930   4.934  -5.754  0.00  0.00    +0.043 C 
ATOM      8  C   UNL     1       3.330   4.308  -7.144  0.00  0.00    +0.123 C 
ATOM      9  N   UNL     1       2.143   3.440  -6.619  0.00  0.00    -0.130 NA
ENDROOT
BRANCH   1  10
ATOM     10  O   UNL     1       1.381   5.093  -8.348  0.00  0.00    -0.328 OA
BRANCH  10  13
ATOM     11  C   UNL     1       3.388   5.546 -11.176  0.00  0.00    +0.134 C 
ATOM     12  O   UNL     1       2.697   6.100  -9.935  0.00  0.00    -0.331 OA
ATOM     13  C   UNL     1       1.977   4.775  -9.714  0.00  0.00    +0.253 C 
ATOM     14  C   UNL     1       0.543   5.160 -10.617  0.00  0.00    +0.148 C 
ATOM     15  N   UNL     1      -0.168   6.041  -9.547  0.00  0.00    -0.128 NA
ATOM     16  C   UNL     1       1.072   6.495 -11.376  0.00  0.00    +0.027 C 
ATOM     17  C   UNL     1       2.250   6.186 -12.162  0.00  0.00    +0.033 C 
BRANCH  11  18
ATOM     18  C   UNL     1       4.530   6.831 -11.301  0.00  0.00    +0.100 C 
ATOM     19  C   UNL     1       5.515   6.265 -10.133  0.00  0.00    +0.021 C 
BRANCH  18  21
ATOM     20  C   UNL     1       5.841   6.462 -12.503  0.00  0.00    +0.107 C 
ATOM     21  N   UNL     1       5.378   6.185 -12.444  0.00  0.00    -0.215 NA
ENDBRANCH  18  21
ENDBRANCH  11  18
ENDBRANCH  10  13
ENDBRANCH   1  10
BRANCH   4  22
ATOM     22  O   UNL     1       2.752   6.101  -4.152  0.00  0.00    -0.327 OA
BRANCH  22  23
ATOM     23  C   UNL     1       2.009   7.108  -3.269  0.00  0.00    +0.268 C 
ATOM     24  C   UNL     1       1.571   5.959  -2.042  0.00  0.00    +0.226 C 
ATOM     25  O   UNL     1       0.166   6.452  -1.913  0.00  0.00    -0.216 OA
ATOM     26  C   UNL     1       2.077   7.032  -0.806  0.00  0.00    +0.138 C 
ATOM     27  C   UNL     1       3.441   6.159  -0.654  0.00  0.00    +0.171 C 
ATOM     28  O   UNL     1       3.138   4.878  -0.377  0.00  0.00    -0.222 OA
ATOM     29  C   UNL     1       4.429   6.884   0.137  0.00  0.00    +0.037 C 
ATOM     30  C   UNL     1       3.830   6.260  -2.106  0.00  0.00    +0.176 C 
ATOM     31  O   UNL     1       3.355   7.468  -2.633  0.00  0.00    -0.326 OA
BRANCH  26  32
ATOM     32  N   UNL     1       1.309   6.291   0.335  0.00  0.00    -0.213 NA
ATOM     33  C   UNL     1       1.018   7.510   1.099  0.00  0.00    +0.108 C 
ENDBRANCH  26  32
ENDBRANCH  22  23
ENDBRANCH   4  22
TORSDOF 7
ENDMDL
MODEL 5
REMARK VINA RESULT:      -7.8      1.585      8.328
REMARK  Name = 
REMARK  7 active torsions:
REMARK  status: ('A' for Active; 'I' for Inactive)
REMARK    1  A    between atoms: N_2  and  C_3
REMARK    2  A    between atoms: C_3  and  C_5
REMARK    3  A    between atoms: C_10  and  O_11
REMARK    4  A    between atoms: O_11  and  C_12
REMARK    5  A    between atoms: C_18  and  O_19
REMARK    6  A    between atoms: O_19  and  C_20
REMARK    7  A    between atoms: C_26  and  N_27
REMARK                            x       y       z     vdW  Elec       q    Type
REMARK                         _______ _______ _______ _____ _____    ______ ____
ROOT
ATOM      1  C   UNL     1       2.032   5.882  -8.200  0.00  0.00    +0.168 C 
ATOM      2  C   UNL     1       3.732   5.966  -8.399  0.00  0.00    +0.209 C 
ATOM      3  O   UNL     1       4.069   4.727  -9.142  0.00  0.00    -0.218 OA
ATOM      4  C   UNL     1       3.707   6.967  -9.801  0.00  0.00    +0.168 C 
ATOM      5  C   UNL     1       2.073   6.649 -10.198  0.00  0.00    +0.123 C 
ATOM      6  N   UNL     1       2.174   7.092 -11.685  0.00  0.00    -0.130 NA
ATOM      7  C   UNL     1       2.253   5.047 -10.499  0.00  0.00    +0.043 C 
ATOM      8  C   UNL     1       1.596   4.496  -9.103  0.00  0.00    +0.123 C 
ATOM      9  N   UNL     1       2.694   3.505  -8.602  0.00  0.00    -0.130 NA
ENDROOT
BRANCH   1  10
ATOM     10  O   UNL     1       2.152   5.236  -6.866  0.00  0.00    -0.328 OA
BRANCH  10  13
ATOM     11  C   UNL     1       2.577   7.175  -3.986  0.00  0.00    +0.134 C 
ATOM     12  O   UNL     1       2.852   5.906  -4.786  0.00  0.00    -0.331 OA
ATOM     13  C   UNL     1       1.843   6.328  -5.848  0.00  0.00    +0.253 C 
ATOM     14  C   UNL     1       0.463   5.529  -5.158  0.00  0.00    +0.148 C 
ATOM     15  N   UNL     1       0.777   4.081  -5.637  0.00  0.00    -0.128 NA
ATOM     16  C   UNL     1       1.074   5.185  -3.693  0.00  0.00    +0.027 C 
ATOM     17  C   UNL     1       1.495   6.405  -3.032  0.00  0.00    +0.033 C 
BRANCH  11  18
ATOM     18  C   UNL     1       3.943   7.001  -2.949  0.00  0.00    +0.100 C 
ATOM     19  C   UNL     1       5.001   7.677  -3.986  0.00  0.00    +0.021 C 
BRANCH  18  21
ATOM     20  C   UNL     1       4.071   8.357  -1.749  0.00  0.00    +0.107 C 
ATOM     21  N   UNL     1       3.727   8.336  -2.168  0.00  0.00    -0.215 NA
ENDBRANCH  18  21
ENDBRANCH  11  18
ENDBRANCH  10  13
ENDBRANCH   1  10
BRANCH   4  22
ATOM     22  O   UNL     1       4.341   5.991 -10.757  0.00  0.00    -0.327 OA
BRANCH  22  23
ATOM     23  C   UNL     1       5.704   6.655 -10.546  0.00  0.00    +0.268 C 
ATOM     24  C   UNL     1       6.634   5.318 -11.147  0.00  0.00    +0.226 C 
ATOM     25  O   UNL     1       7.650   5.375 -10.053  0.00  0.00    -0.216 OA
ATOM     26  C   UNL     1       7.589   6.366 -12.108  0.00  0.00    +0.138 C 
ATOM     27  C   UNL     1       6.725   5.906 -13.408  0.00  0.00    +0.171 C 
ATOM     28  O   UNL     1       6.797   4.572 -13.559  0.00  0.00    -0.222 OA
ATOM     29  C   UNL     1       6.971   6.803 -14.532  0.00  0.00    +0.037 C 
ATOM     30  C   UNL     1       5.386   6.253 -12.810  0.00  0.00    +0.176 C 
ATOM     31  O   UNL     1       5.536   7.321 -11.916  0.00  0.00    -0.326 OA
BRANCH  26  32
ATOM     32  N   UNL     1       8.738   5.332 -12.333  0.00  0.00    -0.213 NA
ATOM     33  C   UNL     1       9.808   6.336 -12.335  0.00  0.00    +0.108 C 
ENDBRANCH  26  32
ENDBRANCH  22  23
ENDBRANCH   4  22
TORSDOF 7
ENDMDL
MODEL 6
REMARK VINA RESULT:      -7.8      2.545      8.520
REMARK  Name = 
REMARK  7 active torsions:
REMARK  status: ('A' for Active; 'I' for Inactive)
REMARK    1  A    between atoms: N_2  and  C_3
REMARK    2  A    between atoms: C_3  and  C_5
REMARK    3  A    between atoms: C_10  and  O_11
REMARK    4  A    between atoms: O_11  and  C_12
REMARK    5  A    between atoms: C_18  and  O_19
REMARK    6  A    between atoms: O_19  and  C_20
REMARK    7  A    between atoms: C_26  and  N_27
REMARK                            x       y       z     vdW  Elec       q    Type
REMARK                         _______ _______ _______ _____ _____    ______ ____
ROOT
ATOM      1  C   UNL     1       1.333   5.831  -6.639  0.00  0.00    +0.168 C 
ATOM      2  C   UNL     1       1.582   5.734  -8.332  0.00  0.00    +0.209 C 
ATOM      3  O   UNL     1       2.216   7.030  -8.677  0.00  0.00    -0.218 OA
ATOM      4  C   UNL     1       3.068   4.868  -8.253  0.00  0.00    +0.168 C 
ATOM      5  C   UNL     1       3.393   5.251  -6.617  0.00  0.00    +0.123 C 
ATOM      6  N   UNL     1       4.916   4.947  -6.674  0.00  0.00    -0.130 NA
ATOM      7  C   UNL     1       3.550   6.871  -6.823  0.00  0.00    +0.043 C 
ATOM      8  C   UNL     1       2.093   7.302  -6.211  0.00  0.00    +0.123 C 
ATOM      9  N   UNL     1       1.530   8.222  -7.341  0.00  0.00    -0.130 NA
ENDROOT
BRANCH   1  10
ATOM     10  O   UNL     1      -0.052   6.347  -6.804  0.00  0.00    -0.328 OA
BRANCH  10  13
ATOM     11  C   UNL     1      -0.376   6.346  -3.322  0.00  0.00    +0.134 C 
ATOM     12  O   UNL     1      -0.123   5.609  -4.633  0.00  0.00    -0.331 OA
ATOM     13  C   UNL     1      -0.469   6.861  -5.431  0.00  0.00    +0.253 C 
ATOM     14  C   UNL     1      -2.161   6.524  -5.632  0.00  0.00    +0.148 C 
ATOM     15  N   UNL     1      -2.050   5.484  -6.786  0.00  0.00    -0.128 NA
ATOM     16  C   UNL     1      -2.311   5.320  -4.552  0.00  0.00    +0.027 C 
ATOM     17  C   UNL     1      -1.909   5.781  -3.236  0.00  0.00    +0.033 C 
BRANCH  11  18
ATOM     18  C   UNL     1       0.354   5.143  -2.327  0.00  0.00    +0.100 C 
ATOM     19  C   UNL     1       1.883   5.514  -2.747  0.00  0.00    +0.021 C 
BRANCH  18  21
ATOM     20  C   UNL     1       0.541   5.699  -0.609  0.00  0.00    +0.107 C 
ATOM     21  N   UNL     1       0.410   6.014  -1.031  0.00  0.00    -0.215 NA
ENDBRANCH  18  21
ENDBRANCH  11  18
ENDBRANCH  10  13
ENDBRANCH   1  10
BRANCH   4  22
ATOM     22  O   UNL     1       3.947   5.917  -8.884  0.00  0.00    -0.327 OA
BRANCH  22  23
ATOM     23  C   UNL     1       4.217   4.988 -10.071  0.00  0.00    +0.268 C 
ATOM     24  C   UNL     1       4.282   6.254 -11.259  0.00  0.00    +0.226 C 
ATOM     25  O   UNL     1       3.457   5.517 -12.264  0.00  0.00    -0.216 OA
ATOM     26  C   UNL     1       5.714   5.599 -11.933  0.00  0.00    +0.138 C 
ATOM     27  C   UNL     1       6.564   6.751 -11.159  0.00  0.00    +0.171 C 
ATOM     28  O   UNL     1       6.123   7.968 -11.521  0.00  0.00    -0.222 OA
ATOM     29  C   UNL     1       7.988   6.434 -11.171  0.00  0.00    +0.037 C 
ATOM     30  C   UNL     1       6.018   6.426  -9.792  0.00  0.00    +0.176 C 
ATOM     31  O   UNL     1       5.709   5.062  -9.725  0.00  0.00    -0.326 OA
BRANCH  26  32
ATOM     32  N   UNL     1       5.602   6.388 -13.276  0.00  0.00    -0.213 NA
ATOM     33  C   UNL     1       6.504   5.499 -14.017  0.00  0.00    +0.108 C 
ENDBRANCH  26  32
ENDBRANCH  22  23
ENDBRANCH   4  22
TORSDOF 7
ENDMDL
MODEL 7
REMARK VINA RESULT:      -7.7      2.250      8.907
REMARK  Name = 
REMARK  7 active torsions:
REMARK  status: ('A' for Active; 'I' for Inactive)
REMARK    1  A    between atoms: N_2  and  C_3
REMARK    2  A    between atoms: C_3  and  C_5
REMARK    3  A    between atoms: C_10  and  O_11
REMARK    4  A    between atoms: O_11  and  C_12
REMARK    5  A    between atoms: C_18  and  O_19
REMARK    6  A    between atoms: O_19  and  C_20
REMARK    7  A    between atoms: C_26  and  N_27
REMARK                            x       y       z     vdW  Elec       q    Type
REMARK                         _______ _______ _______ _____ _____    ______ ____
ROOT
ATOM      1  C   UNL     1       2.281   5.851  -6.742  0.00  0.00    +0.168 C 
ATOM      2  C   UNL     1       3.739   5.875  -7.641  0.00  0.00    +0.209 C 
ATOM      3  O   UNL     1       3.681   4.635  -8.454  0.00  0.00    -0.218 OA
ATOM      4  C   UNL     1       3.164   6.896  -8.903  0.00  0.00    +0.168 C 
ATOM      5  C   UNL     1       1.504   6.645  -8.571  0.00  0.00    +0.123 C 
ATOM      6  N   UNL     1       0.985   7.106  -9.963  0.00  0.00    -0.130 NA
ATOM      7  C   UNL     1       1.476   5.042  -8.917  0.00  0.00    +0.043 C 
ATOM      8  C   UNL     1       1.449   4.496  -7.373  0.00  0.00    +0.123 C 
ATOM      9  N   UNL     1       2.615   3.458  -7.380  0.00  0.00    -0.130 NA
ENDROOT
BRANCH   1  10
ATOM     10  O   UNL     1       2.927   5.182  -5.582  0.00  0.00    -0.328 OA
BRANCH  10  13
ATOM     11  C   UNL     1      -0.013   5.807  -3.793  0.00  0.00    +0.134 C 
ATOM     12  O   UNL     1       1.157   6.297  -4.639  0.00  0.00    -0.331 OA
ATOM     13  C   UNL     1       1.810   4.921  -4.578  0.00  0.00    +0.253 C 
ATOM     14  C   UNL     1       2.781   5.210  -3.167  0.00  0.00    +0.148 C 
ATOM     15  N   UNL     1       3.923   6.026  -3.841  0.00  0.00    -0.128 NA
ATOM     16  C   UNL     1       2.087   6.587  -2.657  0.00  0.00    +0.027 C 
ATOM     17  C   UNL     1       0.672   6.372  -2.419  0.00  0.00    +0.033 C 
BRANCH  11  18
ATOM     18  C   UNL     1      -1.015   7.172  -4.113  0.00  0.00    +0.100 C 
ATOM     19  C   UNL     1      -1.599   6.599  -5.521  0.00  0.00    +0.021 C 
BRANCH  18  21
ATOM     20  C   UNL     1      -2.704   6.838  -3.537  0.00  0.00    +0.107 C 
ATOM     21  N   UNL     1      -2.248   6.664  -3.299  0.00  0.00    -0.215 NA
ENDBRANCH  18  21
ENDBRANCH  11  18
ENDBRANCH  10  13
ENDBRANCH   1  10
BRANCH   4  22
ATOM     22  O   UNL     1       3.295   5.911 -10.035  0.00  0.00    -0.327 OA
BRANCH  22  23
ATOM     23  C   UNL     1       4.484   6.698 -10.594  0.00  0.00    +0.268 C 
ATOM     24  C   UNL     1       5.239   5.334 -11.360  0.00  0.00    +0.226 C 
ATOM     25  O   UNL     1       6.616   5.684 -10.897  0.00  0.00    -0.216 OA
ATOM     26  C   UNL     1       5.480   6.229 -12.800  0.00  0.00    +0.138 C 
ATOM     27  C   UNL     1       4.206   5.455 -13.453  0.00  0.00    +0.171 C 
ATOM     28  O   UNL     1       4.410   4.127 -13.422  0.00  0.00    -0.222 OA
ATOM     29  C   UNL     1       3.774   6.120 -14.678  0.00  0.00    +0.037 C 
ATOM     30  C   UNL     1       3.246   5.822 -12.351  0.00  0.00    +0.176 C 
ATOM     31  O   UNL     1       3.614   7.057 -11.804  0.00  0.00    -0.326 OA
BRANCH  26  32
ATOM     32  N   UNL     1       6.550   5.253 -13.386  0.00  0.00    -0.213 NA
ATOM     33  C   UNL     1       7.218   6.277 -14.198  0.00  0.00    +0.108 C 
ENDBRANCH  26  32
ENDBRANCH  22  23
ENDBRANCH   4  22
TORSDOF 7
ENDMDL
MODEL 8
REMARK VINA RESULT:      -7.6      2.977     10.106
REMARK  Name = 
REMARK  7 active torsions:
REMARK  status: ('A' for Active; 'I' for Inactive)
REMARK    1  A    between atoms: N_2  and  C_3
REMARK    2  A    between atoms: C_3  and  C_5
REMARK    3  A    between atoms: C_10  and  O_11
REMARK    4  A    between atoms: O_11  and  C_12
REMARK    5  A    between atoms: C_18  and  O_19
REMARK    6  A    between atoms: O_19  and  C_20
REMARK    7  A    between atoms: C_26  and  N_27
REMARK                            x       y       z     vdW  Elec       q    Type
REMARK                         _______ _______ _______ _____ _____    ______ ____
ROOT
ATOM      1  C   UNL     1       3.302   6.555  -1.848  0.00  0.00    +0.168 C 
ATOM      2  C   UNL     1       2.239   6.815  -3.167  0.00  0.00    +0.209 C 
ATOM      3  O   UNL     1       3.067   7.546  -4.158  0.00  0.00    -0.218 OA
ATOM      4  C   UNL     1       2.472   5.274  -3.900  0.00  0.00    +0.168 C 
ATOM      5  C   UNL     1       3.931   4.922  -3.079  0.00  0.00    +0.123 C 
ATOM      6  N   UNL     1       4.421   3.830  -4.072  0.00  0.00    -0.130 NA
ATOM      7  C   UNL     1       4.820   6.136  -3.732  0.00  0.00    +0.043 C 
ATOM      8  C   UNL     1       4.804   7.131  -2.430  0.00  0.00    +0.123 C 
ATOM      9  N   UNL     1       4.335   8.479  -3.064  0.00  0.00    -0.130 NA
ENDROOT
BRANCH   1  10
ATOM     10  O   UNL     1       2.854   7.793  -1.156  0.00  0.00    -0.328 OA
BRANCH  10  13
ATOM     11  C   UNL     1       0.412   7.250   1.288  0.00  0.00    +0.134 C 
ATOM     12  O   UNL     1       0.898   7.963   0.031  0.00  0.00    -0.331 OA
ATOM     13  C   UNL     1       2.280   7.337   0.180  0.00  0.00    +0.253 C 
ATOM     14  C   UNL     1       2.992   8.616   1.115  0.00  0.00    +0.148 C 
ATOM     15  N   UNL     1       3.269   9.618  -0.045  0.00  0.00    -0.128 NA
ATOM     16  C   UNL     1       1.641   9.429   1.506  0.00  0.00    +0.027 C 
ATOM     17  C   UNL     1       0.726   8.558   2.219  0.00  0.00    +0.033 C 
BRANCH  11  18
ATOM     18  C   UNL     1      -1.258   7.576   1.013  0.00  0.00    +0.100 C 
ATOM     19  C   UNL     1      -1.470   6.364  -0.054  0.00  0.00    +0.021 C 
BRANCH  18  21
ATOM     20  C   UNL     1      -2.326   6.657   2.158  0.00  0.00    +0.107 C 
ATOM     21  N   UNL     1      -1.790   6.727   2.211  0.00  0.00    -0.215 NA
ENDBRANCH  18  21
ENDBRANCH  11  18
ENDBRANCH  10  13
ENDBRANCH   1  10
BRANCH   4  22
ATOM     22  O   UNL     1       3.078   5.755  -5.193  0.00  0.00    -0.327 OA
BRANCH  22  23
ATOM     23  C   UNL     1       2.008   5.000  -5.986  0.00  0.00    +0.268 C 
ATOM     24  C   UNL     1       1.607   6.329  -7.029  0.00  0.00    +0.226 C 
ATOM     25  O   UNL     1       0.130   6.122  -6.926  0.00  0.00    -0.216 OA
ATOM     26  C   UNL     1       1.668   5.315  -8.408  0.00  0.00    +0.138 C 
ATOM     27  C   UNL     1       3.133   5.931  -8.754  0.00  0.00    +0.171 C 
ATOM     28  O   UNL     1       3.051   7.267  -8.882  0.00  0.00    -0.222 OA
ATOM     29  C   UNL     1       3.805   5.120  -9.764  0.00  0.00    +0.037 C 
ATOM     30  C   UNL     1       3.736   5.610  -7.411  0.00  0.00    +0.176 C 
ATOM     31  O   UNL     1       3.126   4.464  -6.888  0.00  0.00    -0.326 OA
BRANCH  26  32
ATOM     32  N   UNL     1       0.881   6.298  -9.332  0.00  0.00    -0.213 NA
ATOM     33  C   UNL     1       0.276   5.241 -10.150  0.00  0.00    +0.108 C 
ENDBRANCH  26  32
ENDBRANCH  22  23
ENDBRANCH   4  22
TORSDOF 7
ENDMDL
MODEL 9
REMARK VINA RESULT:      -7.3      3.352     10.178
REMARK  Name = 
REMARK  7 active torsions:
REMARK  status: ('A' for Active; 'I' for Inactive)
REMARK    1  A    between atoms: N_2  and  C_3
REMARK    2  A    between atoms: C_3  and  C_5
REMARK    3  A    between atoms: C_10  and  O_11
REMARK    4  A    between atoms: O_11  and  C_12
REMARK    5  A    between atoms: C_18  and  O_19
REMARK    6  A    between atoms: O_19  and  C_20
REMARK    7  A    between atoms: C_26  and  N_27
REMARK                            x       y       z     vdW  Elec       q    Type
REMARK                         _______ _______ _______ _____ _____    ______ ____
ROOT
ATOM      1  C   UNL     1       1.626   6.798  -1.411  0.00  0.00    +0.168 C 
ATOM      2  C   UNL     1       2.415   7.091  -2.904  0.00  0.00    +0.209 C 
ATOM      3  O   UNL     1       3.030   5.786  -3.248  0.00  0.00    -0.218 OA
ATOM      4  C   UNL     1       1.027   6.857  -3.898  0.00  0.00    +0.168 C 
ATOM      5  C   UNL     1       0.121   6.014  -2.716  0.00  0.00    +0.123 C 
ATOM      6  N   UNL     1      -0.875   5.354  -3.711  0.00  0.00    -0.130 NA
ATOM      7  C   UNL     1       1.113   4.712  -2.603  0.00  0.00    +0.043 C 
ATOM      8  C   UNL     1       1.824   5.115  -1.182  0.00  0.00    +0.123 C 
ATOM      9  N   UNL     1       3.340   4.983  -1.535  0.00  0.00    -0.130 NA
ENDROOT
BRANCH   1  10
ATOM     10  O   UNL     1       2.799   7.259  -0.623  0.00  0.00    -0.328 OA
BRANCH  10  13
ATOM     11  C   UNL     1       0.464   8.479   1.678  0.00  0.00    +0.134 C 
ATOM     12  O   UNL     1       0.972   8.340   0.247  0.00  0.00    -0.331 OA
ATOM     13  C   UNL     1       2.249   7.669   0.738  0.00  0.00    +0.253 C 
ATOM     14  C   UNL     1       3.206   9.112   0.879  0.00  0.00    +0.148 C 
ATOM     15  N   UNL     1       3.556   9.300  -0.627  0.00  0.00    -0.128 NA
ATOM     16  C   UNL     1       2.022  10.216   0.749  0.00  0.00    +0.027 C 
ATOM     17  C   UNL     1       1.033  10.009   1.790  0.00  0.00    +0.033 C 
BRANCH  11  18
ATOM     18  C   UNL     1      -1.151   8.880   1.230  0.00  0.00    +0.100 C 
ATOM     19  C   UNL     1      -1.563   7.365   0.796  0.00  0.00    +0.021 C 
BRANCH  18  21
ATOM     20  C   UNL     1      -2.297   8.799   2.635  0.00  0.00    +0.107 C 
ATOM     21  N   UNL     1      -1.760   8.726   2.660  0.00  0.00    -0.215 NA
ENDBRANCH  18  21
ENDBRANCH  11  18
ENDBRANCH  10  13
ENDBRANCH   1  10
BRANCH   4  22
ATOM     22  O   UNL     1       1.527   5.660  -4.663  0.00  0.00    -0.327 OA
BRANCH  22  23
ATOM     23  C   UNL     1       1.014   6.271  -5.971  0.00  0.00    +0.268 C 
ATOM     24  C   UNL     1       2.588   6.622  -6.616  0.00  0.00    +0.226 C 
ATOM     25  O   UNL     1       2.219   7.987  -7.098  0.00  0.00    -0.216 OA
ATOM     26  C   UNL     1       2.156   5.953  -8.132  0.00  0.00    +0.138 C 
ATOM     27  C   UNL     1       2.992   4.613  -7.741  0.00  0.00    +0.171 C 
ATOM     28  O   UNL     1       4.269   4.932  -7.465  0.00  0.00    -0.222 OA
ATOM     29  C   UNL     1       2.673   3.524  -8.657  0.00  0.00    +0.037 C 
ATOM     30  C   UNL     1       2.263   4.372  -6.445  0.00  0.00    +0.176 C 
ATOM     31  O   UNL     1       0.952   4.854  -6.551  0.00  0.00    -0.326 OA
BRANCH  26  32
ATOM     32  N   UNL     1       3.330   6.626  -8.914  0.00  0.00    -0.213 NA
ATOM     33  C   UNL     1       2.681   6.520 -10.226  0.00  0.00    +0.108 C 
ENDBRANCH  26  32
ENDBRANCH  22  23
ENDBRANCH   4  22
TORSDOF 7
ENDMDL
