MODEL 1
REMARK VINA RESULT:      -7.1      0.000      0.000
REMARK  Name = 
REMARK  3 active torsions:
REMARK  status: ('A' for Active; 'I' for Inactive)
REMARK    1  A    between atoms: C_4  and  C_5
REMARK    2  A    between atoms: C_12  and  C_13
REMARK    3  A    between atoms: C_13  and  C_14
REMARK                            x       y       z     vdW  Elec       q    Type
REMARK                         _______ _______ _______ _____ _____    ______ ____
ROOT
ATOM      1  C   UNL     1       4.335   5.645  -6.244  0.00  0.00    +0.031 C 
ATOM      2  C   UNL     1       4.295   6.065  -7.669  0.00  0.00    -0.026 A 
ATOM      3  C   UNL     1       3.158   6.660  -8.190  0.00  0.00    -0.018 A 
ATOM      4  C   UNL     1       2.874   6.524  -9.542  0.00  0.00    -0.026 A 
ATOM      5  C   UNL     1       1.485   6.684 -10.048  0.00  0.00    +0.031 C 
ATOM      6  C   UNL     1       3.932   6.273 -10.404  0.00  0.00    -0.009 A 
ATOM      7  C   UNL     1       5.203   6.044  -9.899  0.00  0.00    -0.023 A 
ATOM      8  C   UNL     1       5.281   5.670  -8.566  0.00  0.00    -0.009 A 
ENDROOT
BRANCH   7   9
ATOM      9  C   UNL     1       6.407   6.210 -10.737  0.00  0.00    +0.019 C 
ATOM     10  C   UNL     1       6.233   5.425 -12.023  0.00  0.00    +0.004 C 
ATOM     11  C   UNL     1       6.627   7.659 -11.122  0.00  0.00    +0.004 C 
ATOM     12  C   UNL     1       7.596   5.667  -9.980  0.00  0.00    +0.004 C 
ENDBRANCH   7   9
BRANCH   3  13
ATOM     13  C   UNL     1       2.229   7.379  -7.301  0.00  0.00    +0.146 C 
BRANCH  13  14
ATOM     14  C   UNL     1       1.353   6.415  -6.566  0.00  0.00    +0.336 C 
ATOM     15  N   UNL     1       0.930   6.487  -5.199  0.00  0.00    -0.030 NA
ATOM     16  C   UNL     1       0.975   5.139  -4.636  0.00  0.00    +0.308 C 
ATOM     17  C   UNL     1       0.888   4.324  -5.922  0.00  0.00    +0.318 C 
ATOM     18  N   UNL     1       0.854   5.297  -6.997  0.00  0.00    -0.061 NA
ENDBRANCH  13  14
ENDBRANCH   3  13
TORSDOF 3
ENDMDL
MODEL 2
REMARK VINA RESULT:      -7.0      2.447      6.901
REMARK  Name = 
REMARK  3 active torsions:
REMARK  status: ('A' for Active; 'I' for Inactive)
REMARK    1  A    between atoms: C_4  and  C_5
REMARK    2  A    between atoms: C_12  and  C_13
REMARK    3  A    between atoms: C_13  and  C_14
REMARK                            x       y       z     vdW  Elec       q    Type
REMARK                         _______ _______ _______ _____ _____    ______ ____
ROOT
ATOM      1  C   UNL     1       1.874   3.658  -6.486  0.00  0.00    +0.031 C 
ATOM      2  C   UNL     1       1.308   4.728  -5.623  0.00  0.00    -0.026 A 
ATOM      3  C   UNL     1       2.140   5.495  -4.826  0.00  0.00    -0.018 A 
ATOM      4  C   UNL     1       1.645   6.043  -3.650  0.00  0.00    -0.026 A 
ATOM      5  C   UNL     1       2.562   6.423  -2.543  0.00  0.00    +0.031 C 
ATOM      6  C   UNL     1       0.277   6.258  -3.561  0.00  0.00    -0.009 A 
ATOM      7  C   UNL     1      -0.564   5.817  -4.572  0.00  0.00    -0.023 A 
ATOM      8  C   UNL     1      -0.062   4.834  -5.410  0.00  0.00    -0.009 A 
ENDROOT
BRANCH   7   9
ATOM      9  C   UNL     1      -1.916   6.384  -4.751  0.00  0.00    +0.019 C 
ATOM     10  C   UNL     1      -2.421   6.040  -6.139  0.00  0.00    +0.004 C 
ATOM     11  C   UNL     1      -2.902   5.805  -3.757  0.00  0.00    +0.004 C 
ATOM     12  C   UNL     1      -1.828   7.885  -4.612  0.00  0.00    +0.004 C 
ENDBRANCH   7   9
BRANCH   3  13
ATOM     13  C   UNL     1       3.555   5.674  -5.195  0.00  0.00    +0.146 C 
BRANCH  13  14
ATOM     14  C   UNL     1       3.671   6.409  -6.492  0.00  0.00    +0.336 C 
ATOM     15  N   UNL     1       2.951   7.577  -6.903  0.00  0.00    -0.030 NA
ATOM     16  C   UNL     1       2.594   7.422  -8.311  0.00  0.00    +0.308 C 
ATOM     17  C   UNL     1       3.649   6.402  -8.729  0.00  0.00    +0.318 C 
ATOM     18  N   UNL     1       4.397   6.102  -7.523  0.00  0.00    -0.061 NA
ENDBRANCH  13  14
ENDBRANCH   3  13
TORSDOF 3
ENDMDL
MODEL 3
REMARK VINA RESULT:      -7.0      2.415      6.597
REMARK  Name = 
REMARK  3 active torsions:
REMARK  status: ('A' for Active; 'I' for Inactive)
REMARK    1  A    between atoms: C_4  and  C_5
REMARK    2  A    between atoms: C_12  and  C_13
REMARK    3  A    between atoms: C_13  and  C_14
REMARK                            x       y       z     vdW  Elec       q    Type
REMARK                         _______ _______ _______ _____ _____    ______ ____
ROOT
ATOM      1  C   UNL     1       0.643   5.214  -9.484  0.00  0.00    +0.031 C 
ATOM      2  C   UNL     1       0.593   5.859  -8.146  0.00  0.00    -0.026 A 
ATOM      3  C   UNL     1       1.651   6.637  -7.706  0.00  0.00    -0.018 A 
ATOM      4  C   UNL     1       1.897   6.748  -6.344  0.00  0.00    -0.026 A 
ATOM      5  C   UNL     1       3.247   7.120  -5.843  0.00  0.00    +0.031 C 
ATOM      6  C   UNL     1       0.837   6.537  -5.474  0.00  0.00    -0.009 A 
ATOM      7  C   UNL     1      -0.388   6.108  -5.961  0.00  0.00    -0.023 A 
ATOM      8  C   UNL     1      -0.384   5.520  -7.217  0.00  0.00    -0.009 A 
ENDROOT
BRANCH   7   9
ATOM      9  C   UNL     1      -1.632   6.289  -5.186  0.00  0.00    +0.019 C 
ATOM     10  C   UNL     1      -1.524   5.523  -3.882  0.00  0.00    +0.004 C 
ATOM     11  C   UNL     1      -1.867   7.744  -4.835  0.00  0.00    +0.004 C 
ATOM     12  C   UNL     1      -2.784   5.736  -5.993  0.00  0.00    +0.004 C 
ENDBRANCH   7   9
BRANCH   3  13
ATOM     13  C   UNL     1       2.541   7.290  -8.681  0.00  0.00    +0.146 C 
BRANCH  13  14
ATOM     14  C   UNL     1       3.602   6.343  -9.142  0.00  0.00    +0.336 C 
ATOM     15  N   UNL     1       4.126   5.209  -8.440  0.00  0.00    -0.030 NA
ATOM     16  C   UNL     1       5.571   5.167  -8.657  0.00  0.00    +0.308 C 
ATOM     17  C   UNL     1       5.658   5.981  -9.944  0.00  0.00    +0.318 C 
ATOM     18  N   UNL     1       4.299   6.392 -10.236  0.00  0.00    -0.061 NA
ENDBRANCH  13  14
ENDBRANCH   3  13
TORSDOF 3
ENDMDL
MODEL 4
REMARK VINA RESULT:      -6.9      1.559      2.226
REMARK  Name = 
REMARK  3 active torsions:
REMARK  status: ('A' for Active; 'I' for Inactive)
REMARK    1  A    between atoms: C_4  and  C_5
REMARK    2  A    between atoms: C_12  and  C_13
REMARK    3  A    between atoms: C_13  and  C_14
REMARK                            x       y       z     vdW  Elec       q    Type
REMARK                         _______ _______ _______ _____ _____    ______ ____
ROOT
ATOM      1  C   UNL     1       3.073   3.881  -8.661  0.00  0.00    +0.031 C 
ATOM      2  C   UNL     1       3.533   4.885  -9.655  0.00  0.00    -0.026 A 
ATOM      3  C   UNL     1       2.614   5.584 -10.419  0.00  0.00    -0.018 A 
ATOM      4  C   UNL     1       2.980   6.045 -11.677  0.00  0.00    -0.026 A 
ATOM      5  C   UNL     1       1.950   6.334 -12.710  0.00  0.00    +0.031 C 
ATOM      6  C   UNL     1       4.328   6.261 -11.921  0.00  0.00    -0.009 A 
ATOM      7  C   UNL     1       5.273   5.904 -10.971  0.00  0.00    -0.023 A 
ATOM      8  C   UNL     1       4.873   4.984 -10.014  0.00  0.00    -0.009 A 
ENDROOT
BRANCH   7   9
ATOM      9  C   UNL     1       6.629   6.492 -10.973  0.00  0.00    +0.019 C 
ATOM     10  C   UNL     1       7.437   5.877 -12.099  0.00  0.00    +0.004 C 
ATOM     11  C   UNL     1       6.591   7.987 -11.212  0.00  0.00    +0.004 C 
ATOM     12  C   UNL     1       7.291   6.172  -9.654  0.00  0.00    +0.004 C 
ENDBRANCH   7   9
BRANCH   3  13
ATOM     13  C   UNL     1       1.241   5.782  -9.922  0.00  0.00    +0.146 C 
BRANCH  13  14
ATOM     14  C   UNL     1       1.255   6.493  -8.606  0.00  0.00    +0.336 C 
ATOM     15  N   UNL     1       2.028   7.644  -8.244  0.00  0.00    -0.030 NA
ATOM     16  C   UNL     1       2.509   7.458  -6.877  0.00  0.00    +0.308 C 
ATOM     17  C   UNL     1       1.482   6.444  -6.382  0.00  0.00    +0.318 C 
ATOM     18  N   UNL     1       0.622   6.177  -7.519  0.00  0.00    -0.061 NA
ENDBRANCH  13  14
ENDBRANCH   3  13
TORSDOF 3
ENDMDL
MODEL 5
REMARK VINA RESULT:      -6.9      3.030      4.793
REMARK  Name = 
REMARK  3 active torsions:
REMARK  status: ('A' for Active; 'I' for Inactive)
REMARK    1  A    between atoms: C_4  and  C_5
REMARK    2  A    between atoms: C_12  and  C_13
REMARK    3  A    between atoms: C_13  and  C_14
REMARK                            x       y       z     vdW  Elec       q    Type
REMARK                         _______ _______ _______ _____ _____    ______ ____
ROOT
ATOM      1  C   UNL     1       1.702   6.610  -4.181  0.00  0.00    +0.031 C 
ATOM      2  C   UNL     1       1.032   6.337  -5.480  0.00  0.00    -0.026 A 
ATOM      3  C   UNL     1      -0.318   6.600  -5.639  0.00  0.00    -0.018 A 
ATOM      4  C   UNL     1      -1.056   5.858  -6.551  0.00  0.00    -0.026 A 
ATOM      5  C   UNL     1      -2.531   5.733  -6.414  0.00  0.00    +0.031 C 
ATOM      6  C   UNL     1      -0.377   5.272  -7.610  0.00  0.00    -0.009 A 
ATOM      7  C   UNL     1       1.007   5.332  -7.668  0.00  0.00    -0.023 A 
ATOM      8  C   UNL     1       1.666   5.606  -6.478  0.00  0.00    -0.009 A 
ENDROOT
BRANCH   7   9
ATOM      9  C   UNL     1       1.735   5.133  -8.937  0.00  0.00    +0.019 C 
ATOM     10  C   UNL     1       0.741   4.831 -10.041  0.00  0.00    +0.004 C 
ATOM     11  C   UNL     1       2.498   6.376  -9.347  0.00  0.00    +0.004 C 
ATOM     12  C   UNL     1       2.669   3.956  -8.774  0.00  0.00    +0.004 C 
ENDBRANCH   7   9
BRANCH   3  13
ATOM     13  C   UNL     1      -0.974   7.618  -4.801  0.00  0.00    +0.146 C 
BRANCH  13  14
ATOM     14  C   UNL     1      -1.587   6.988  -3.590  0.00  0.00    +0.336 C 
ATOM     15  N   UNL     1      -1.486   5.622  -3.171  0.00  0.00    -0.030 NA
ATOM     16  C   UNL     1      -2.792   5.201  -2.669  0.00  0.00    +0.308 C 
ATOM     17  C   UNL     1      -3.384   6.565  -2.328  0.00  0.00    +0.318 C 
ATOM     18  N   UNL     1      -2.377   7.533  -2.717  0.00  0.00    -0.061 NA
ENDBRANCH  13  14
ENDBRANCH   3  13
TORSDOF 3
ENDMDL
MODEL 6
REMARK VINA RESULT:      -6.9      2.665      7.137
REMARK  Name = 
REMARK  3 active torsions:
REMARK  status: ('A' for Active; 'I' for Inactive)
REMARK    1  A    between atoms: C_4  and  C_5
REMARK    2  A    between atoms: C_12  and  C_13
REMARK    3  A    between atoms: C_13  and  C_14
REMARK                            x       y       z     vdW  Elec       q    Type
REMARK                         _______ _______ _______ _____ _____    ______ ____
ROOT
ATOM      1  C   UNL     1       2.931   5.248  -4.124  0.00  0.00    +0.031 C 
ATOM      2  C   UNL     1       1.483   5.250  -4.458  0.00  0.00    -0.026 A 
ATOM      3  C   UNL     1       1.049   4.789  -5.689  0.00  0.00    -0.018 A 
ATOM      4  C   UNL     1      -0.124   5.296  -6.233  0.00  0.00    -0.026 A 
ATOM      5  C   UNL     1      -0.369   5.238  -7.699  0.00  0.00    +0.031 C 
ATOM      6  C   UNL     1      -1.069   5.819  -5.363  0.00  0.00    -0.009 A 
ATOM      7  C   UNL     1      -0.781   5.938  -4.012  0.00  0.00    -0.023 A 
ATOM      8  C   UNL     1       0.560   5.919  -3.661  0.00  0.00    -0.009 A 
ENDROOT
BRANCH   7   9
ATOM      9  C   UNL     1      -1.852   6.060  -3.003  0.00  0.00    +0.019 C 
ATOM     10  C   UNL     1      -2.244   7.518  -2.864  0.00  0.00    +0.004 C 
ATOM     11  C   UNL     1      -3.096   5.298  -3.411  0.00  0.00    +0.004 C 
ATOM     12  C   UNL     1      -1.323   5.560  -1.680  0.00  0.00    +0.004 C 
ENDBRANCH   7   9
BRANCH   3  13
ATOM     13  C   UNL     1       1.860   3.815  -6.439  0.00  0.00    +0.146 C 
BRANCH  13  14
ATOM     14  C   UNL     1       2.652   4.501  -7.506  0.00  0.00    +0.336 C 
ATOM     15  N   UNL     1       3.192   5.828  -7.477  0.00  0.00    -0.030 NA
ATOM     16  C   UNL     1       3.007   6.424  -8.799  0.00  0.00    +0.308 C 
ATOM     17  C   UNL     1       2.875   5.154  -9.634  0.00  0.00    +0.318 C 
ATOM     18  N   UNL     1       2.955   4.058  -8.688  0.00  0.00    -0.061 NA
ENDBRANCH  13  14
ENDBRANCH   3  13
TORSDOF 3
ENDMDL
MODEL 7
REMARK VINA RESULT:      -6.9      1.149      2.647
REMARK  Name = 
REMARK  3 active torsions:
REMARK  status: ('A' for Active; 'I' for Inactive)
REMARK    1  A    between atoms: C_4  and  C_5
REMARK    2  A    between atoms: C_12  and  C_13
REMARK    3  A    between atoms: C_13  and  C_14
REMARK                            x       y       z     vdW  Elec       q    Type
REMARK                         _______ _______ _______ _____ _____    ______ ____
ROOT
ATOM      1  C   UNL     1       1.652   5.362 -10.540  0.00  0.00    +0.031 C 
ATOM      2  C   UNL     1       3.059   5.418 -10.064  0.00  0.00    -0.026 A 
ATOM      3  C   UNL     1       3.395   4.920  -8.816  0.00  0.00    -0.018 A 
ATOM      4  C   UNL     1       4.481   5.456  -8.137  0.00  0.00    -0.026 A 
ATOM      5  C   UNL     1       4.585   5.340  -6.658  0.00  0.00    +0.031 C 
ATOM      6  C   UNL     1       5.478   6.065  -8.886  0.00  0.00    -0.009 A 
ATOM      7  C   UNL     1       5.316   6.234 -10.252  0.00  0.00    -0.023 A 
ATOM      8  C   UNL     1       4.018   6.168 -10.736  0.00  0.00    -0.009 A 
ENDROOT
BRANCH   7   9
ATOM      9  C   UNL     1       6.473   6.456 -11.144  0.00  0.00    +0.019 C 
ATOM     10  C   UNL     1       7.747   6.082 -10.411  0.00  0.00    +0.004 C 
ATOM     11  C   UNL     1       6.398   5.590 -12.385  0.00  0.00    +0.004 C 
ATOM     12  C   UNL     1       6.522   7.921 -11.510  0.00  0.00    +0.004 C 
ENDBRANCH   7   9
BRANCH   3  13
ATOM     13  C   UNL     1       2.567   3.874  -8.193  0.00  0.00    +0.146 C 
BRANCH  13  14
ATOM     14  C   UNL     1       1.653   4.466  -7.169  0.00  0.00    +0.336 C 
ATOM     15  N   UNL     1       1.036   5.759  -7.192  0.00  0.00    -0.030 NA
ATOM     16  C   UNL     1       1.079   6.310  -5.839  0.00  0.00    +0.308 C 
ATOM     17  C   UNL     1       1.224   5.016  -5.043  0.00  0.00    +0.318 C 
ATOM     18  N   UNL     1       1.286   3.957  -6.033  0.00  0.00    -0.061 NA
ENDBRANCH  13  14
ENDBRANCH   3  13
TORSDOF 3
ENDMDL
MODEL 8
REMARK VINA RESULT:      -6.8      1.308      2.669
REMARK  Name = 
REMARK  3 active torsions:
REMARK  status: ('A' for Active; 'I' for Inactive)
REMARK    1  A    between atoms: C_4  and  C_5
REMARK    2  A    between atoms: C_12  and  C_13
REMARK    3  A    between atoms: C_13  and  C_14
REMARK                            x       y       z     vdW  Elec       q    Type
REMARK                         _______ _______ _______ _____ _____    ______ ____
ROOT
ATOM      1  C   UNL     1       0.530   4.972 -11.212  0.00  0.00    +0.031 C 
ATOM      2  C   UNL     1       1.676   5.537 -10.453  0.00  0.00    -0.026 A 
ATOM      3  C   UNL     1       1.508   5.959  -9.145  0.00  0.00    -0.018 A 
ATOM      4  C   UNL     1       2.321   6.968  -8.644  0.00  0.00    -0.026 A 
ATOM      5  C   UNL     1       1.884   7.789  -7.483  0.00  0.00    +0.031 C 
ATOM      6  C   UNL     1       3.561   7.156  -9.235  0.00  0.00    -0.009 A 
ATOM      7  C   UNL     1       3.909   6.435 -10.368  0.00  0.00    -0.023 A 
ATOM      8  C   UNL     1       2.866   5.875 -11.090  0.00  0.00    -0.009 A 
ENDROOT
BRANCH   7   9
ATOM      9  C   UNL     1       5.320   6.261 -10.768  0.00  0.00    +0.019 C 
ATOM     10  C   UNL     1       5.908   7.612 -11.123  0.00  0.00    +0.004 C 
ATOM     11  C   UNL     1       6.155   5.688  -9.642  0.00  0.00    +0.004 C 
ATOM     12  C   UNL     1       5.365   5.364 -11.983  0.00  0.00    +0.004 C 
ENDBRANCH   7   9
BRANCH   3  13
ATOM     13  C   UNL     1       0.436   5.383  -8.317  0.00  0.00    +0.146 C 
BRANCH  13  14
ATOM     14  C   UNL     1       1.003   4.761  -7.081  0.00  0.00    +0.336 C 
ATOM     15  N   UNL     1       0.506   4.869  -5.741  0.00  0.00    -0.030 NA
ATOM     16  C   UNL     1       1.648   5.010  -4.841  0.00  0.00    +0.308 C 
ATOM     17  C   UNL     1       2.738   4.400  -5.716  0.00  0.00    +0.318 C 
ATOM     18  N   UNL     1       2.086   4.054  -6.964  0.00  0.00    -0.061 NA
ENDBRANCH  13  14
ENDBRANCH   3  13
TORSDOF 3
ENDMDL
MODEL 9
REMARK VINA RESULT:      -6.7      2.565      6.380
REMARK  Name = 
REMARK  3 active torsions:
REMARK  status: ('A' for Active; 'I' for Inactive)
REMARK    1  A    between atoms: C_4  and  C_5
REMARK    2  A    between atoms: C_12  and  C_13
REMARK    3  A    between atoms: C_13  and  C_14
REMARK                            x       y       z     vdW  Elec       q    Type
REMARK                         _______ _______ _______ _____ _____    ______ ____
ROOT
ATOM      1  C   UNL     1       2.824   5.599  -3.222  0.00  0.00    +0.031 C 
ATOM      2  C   UNL     1       1.890   5.923  -4.333  0.00  0.00    -0.026 A 
ATOM      3  C   UNL     1       2.378   6.180  -5.603  0.00  0.00    -0.018 A 
ATOM      4  C   UNL     1       1.663   7.013  -6.454  0.00  0.00    -0.026 A 
ATOM      5  C   UNL     1       2.340   7.713  -7.578  0.00  0.00    +0.031 C 
ATOM      6  C   UNL     1       0.298   7.137  -6.242  0.00  0.00    -0.009 A 
ATOM      7  C   UNL     1      -0.293   6.541  -5.138  0.00  0.00    -0.023 A 
ATOM      8  C   UNL     1       0.551   6.206  -4.090  0.00  0.00    -0.009 A 
ENDROOT
BRANCH   7   9
ATOM      9  C   UNL     1      -1.743   6.264  -5.095  0.00  0.00    +0.019 C 
ATOM     10  C   UNL     1      -2.058   5.446  -3.858  0.00  0.00    +0.004 C 
ATOM     11  C   UNL     1      -2.554   7.541  -5.008  0.00  0.00    +0.004 C 
ATOM     12  C   UNL     1      -2.115   5.470  -6.324  0.00  0.00    +0.004 C 
ENDBRANCH   7   9
BRANCH   3  13
ATOM     13  C   UNL     1       3.676   5.622  -6.021  0.00  0.00    +0.146 C 
BRANCH  13  14
ATOM     14  C   UNL     1       3.526   4.831  -7.281  0.00  0.00    +0.336 C 
ATOM     15  N   UNL     1       4.376   4.856  -8.434  0.00  0.00    -0.030 NA
ATOM     16  C   UNL     1       3.531   4.798  -9.626  0.00  0.00    +0.308 C 
ATOM     17  C   UNL     1       2.279   4.172  -9.018  0.00  0.00    +0.318 C 
ATOM     18  N   UNL     1       2.571   4.015  -7.606  0.00  0.00    -0.061 NA
ENDBRANCH  13  14
ENDBRANCH   3  13
TORSDOF 3
ENDMDL
