MODEL 1
REMARK VINA RESULT:      -5.7      0.000      0.000
REMARK  Name = 
REMARK  6 active torsions:
REMARK  status: ('A' for Active; 'I' for Inactive)
REMARK    1  A    between atoms: N_4  and  C_5
REMARK    2  A    between atoms: N_7  and  C_8
REMARK    3  A    between atoms: C_8  and  C_9
REMARK    4  A    between atoms: C_9  and  S_10
REMARK    5  A    between atoms: S_10  and  C_11
REMARK    6  A    between atoms: C_11  and  C_12
REMARK                            x       y       z     vdW  Elec       q    Type
REMARK                         _______ _______ _______ _____ _____    ______ ____
ROOT
ATOM      1  C   UNL     1       1.361   5.479 -11.286  0.00  0.00    +0.105 C 
ENDROOT
BRANCH   1   2
ATOM      2  C   UNL     1       2.691   6.073 -11.733  0.00  0.00    +0.232 C 
BRANCH   2   6
ATOM      3  C   UNL     1       7.226   6.284 -10.026  0.00  0.00    +0.267 C 
ATOM      4  N   UNL     1       5.962   5.594  -9.772  0.00  0.00    -0.087 NA
ATOM      5  C   UNL     1       5.003   5.621 -10.807  0.00  0.00    +0.470 C 
ATOM      6  N   UNL     1       3.619   5.878 -10.620  0.00  0.00    -0.090 NA
ATOM      7  N   UNL     1       5.404   5.281 -11.984  0.00  0.00    +0.016 NA
BRANCH   7   8
ATOM      8  C   UNL     1       6.798   5.283 -12.218  0.00  0.00    +0.296 C 
ATOM      9  N   UNL     1       7.700   4.762 -12.749  0.00  0.00    -0.151 NA
ENDBRANCH   7   8
ENDBRANCH   2   6
ENDBRANCH   1   2
BRANCH   1  10
ATOM     10  S   UNL     1       1.541   4.967  -9.569  0.00  0.00    -0.130 S 
BRANCH  10  11
ATOM     11  C   UNL     1       0.087   5.521  -8.652  0.00  0.00    +0.104 C 
BRANCH  11  12
ATOM     12  C   UNL     1       0.252   5.314  -7.186  0.00  0.00    +0.085 A 
ATOM     13  C   UNL     1      -0.731   5.498  -6.234  0.00  0.00    +0.075 A 
ATOM     14  C   UNL     1      -2.191   5.732  -6.468  0.00  0.00    +0.053 C 
ATOM     15  N   UNL     1      -0.161   5.200  -5.051  0.00  0.00    -0.227 NA
ATOM     16  C   UNL     1       1.155   5.000  -5.252  0.00  0.00    +0.198 A 
ATOM     17  N   UNL     1       1.368   4.902  -6.580  0.00  0.00    -0.226 NA
ENDBRANCH  11  12
ENDBRANCH  10  11
ENDBRANCH   1  10
TORSDOF 6
ENDMDL
MODEL 2
REMARK VINA RESULT:      -5.6      1.672      2.269
REMARK  Name = 
REMARK  6 active torsions:
REMARK  status: ('A' for Active; 'I' for Inactive)
REMARK    1  A    between atoms: N_4  and  C_5
REMARK    2  A    between atoms: N_7  and  C_8
REMARK    3  A    between atoms: C_8  and  C_9
REMARK    4  A    between atoms: C_9  and  S_10
REMARK    5  A    between atoms: S_10  and  C_11
REMARK    6  A    between atoms: C_11  and  C_12
REMARK                            x       y       z     vdW  Elec       q    Type
REMARK                         _______ _______ _______ _____ _____    ______ ____
ROOT
ATOM      1  C   UNL     1       2.720   3.813  -8.598  0.00  0.00    +0.105 C 
ENDROOT
BRANCH   1   2
ATOM      2  C   UNL     1       3.869   4.750  -8.953  0.00  0.00    +0.232 C 
BRANCH   2   6
ATOM      3  C   UNL     1       4.574   5.241 -13.726  0.00  0.00    +0.267 C 
ATOM      4  N   UNL     1       4.038   5.986 -12.588  0.00  0.00    -0.087 NA
ATOM      5  C   UNL     1       4.397   5.530 -11.301  0.00  0.00    +0.470 C 
ATOM      6  N   UNL     1       3.497   5.392 -10.212  0.00  0.00    -0.090 NA
ATOM      7  N   UNL     1       5.652   5.330 -11.082  0.00  0.00    +0.016 NA
BRANCH   7   8
ATOM      8  C   UNL     1       6.495   5.214 -12.211  0.00  0.00    +0.296 C 
ATOM      9  N   UNL     1       7.530   4.863 -12.625  0.00  0.00    -0.151 NA
ENDBRANCH   7   8
ENDBRANCH   2   6
ENDBRANCH   1   2
BRANCH   1  10
ATOM     10  S   UNL     1       2.271   4.127  -6.882  0.00  0.00    -0.130 S 
BRANCH  10  11
ATOM     11  C   UNL     1       0.929   5.335  -6.855  0.00  0.00    +0.104 C 
BRANCH  11  12
ATOM     12  C   UNL     1       0.257   5.378  -5.527  0.00  0.00    +0.085 A 
ATOM     13  C   UNL     1      -1.083   5.632  -5.313  0.00  0.00    +0.075 A 
ATOM     14  C   UNL     1      -2.169   5.711  -6.341  0.00  0.00    +0.053 C 
ATOM     15  N   UNL     1      -1.264   5.573  -3.980  0.00  0.00    -0.227 NA
ATOM     16  C   UNL     1      -0.058   5.448  -3.394  0.00  0.00    +0.198 A 
ATOM     17  N   UNL     1       0.847   5.156  -4.350  0.00  0.00    -0.226 NA
ENDBRANCH  11  12
ENDBRANCH  10  11
ENDBRANCH   1  10
TORSDOF 6
ENDMDL
MODEL 3
REMARK VINA RESULT:      -5.6      3.769      5.561
REMARK  Name = 
REMARK  6 active torsions:
REMARK  status: ('A' for Active; 'I' for Inactive)
REMARK    1  A    between atoms: N_4  and  C_5
REMARK    2  A    between atoms: N_7  and  C_8
REMARK    3  A    between atoms: C_8  and  C_9
REMARK    4  A    between atoms: C_9  and  S_10
REMARK    5  A    between atoms: S_10  and  C_11
REMARK    6  A    between atoms: C_11  and  C_12
REMARK                            x       y       z     vdW  Elec       q    Type
REMARK                         _______ _______ _______ _____ _____    ______ ____
ROOT
ATOM      1  C   UNL     1       3.164   5.140  -2.774  0.00  0.00    +0.105 C 
ENDROOT
BRANCH   1   2
ATOM      2  C   UNL     1       4.109   5.858  -3.732  0.00  0.00    +0.232 C 
BRANCH   2   6
ATOM      3  C   UNL     1       4.154   5.830  -8.581  0.00  0.00    +0.267 C 
ATOM      4  N   UNL     1       3.721   5.000  -7.458  0.00  0.00    -0.087 NA
ATOM      5  C   UNL     1       3.609   5.635  -6.203  0.00  0.00    +0.470 C 
ATOM      6  N   UNL     1       4.083   5.094  -4.978  0.00  0.00    -0.090 NA
ATOM      7  N   UNL     1       2.933   6.732  -6.161  0.00  0.00    +0.016 NA
BRANCH   7   8
ATOM      8  C   UNL     1       2.694   7.391  -7.389  0.00  0.00    +0.296 C 
ATOM      9  N   UNL     1       2.102   8.229  -7.949  0.00  0.00    -0.151 NA
ENDBRANCH   7   8
ENDBRANCH   2   6
ENDBRANCH   1   2
BRANCH   1  10
ATOM     10  S   UNL     1       1.624   6.074  -2.727  0.00  0.00    -0.130 S 
BRANCH  10  11
ATOM     11  C   UNL     1       0.499   5.382  -3.959  0.00  0.00    +0.104 C 
BRANCH  11  12
ATOM     12  C   UNL     1      -0.915   5.423  -3.494  0.00  0.00    +0.085 A 
ATOM     13  C   UNL     1      -2.016   5.659  -4.293  0.00  0.00    +0.075 A 
ATOM     14  C   UNL     1      -2.059   5.713  -5.789  0.00  0.00    +0.053 C 
ATOM     15  N   UNL     1      -3.085   5.605  -3.477  0.00  0.00    -0.227 NA
ATOM     16  C   UNL     1      -2.645   5.502  -2.208  0.00  0.00    +0.198 A 
ATOM     17  N   UNL     1      -1.327   5.218  -2.241  0.00  0.00    -0.226 NA
ENDBRANCH  11  12
ENDBRANCH  10  11
ENDBRANCH   1  10
TORSDOF 6
ENDMDL
MODEL 4
REMARK VINA RESULT:      -5.5      5.172      6.708
REMARK  Name = 
REMARK  6 active torsions:
REMARK  status: ('A' for Active; 'I' for Inactive)
REMARK    1  A    between atoms: N_4  and  C_5
REMARK    2  A    between atoms: N_7  and  C_8
REMARK    3  A    between atoms: C_8  and  C_9
REMARK    4  A    between atoms: C_9  and  S_10
REMARK    5  A    between atoms: S_10  and  C_11
REMARK    6  A    between atoms: C_11  and  C_12
REMARK                            x       y       z     vdW  Elec       q    Type
REMARK                         _______ _______ _______ _____ _____    ______ ____
ROOT
ATOM      1  C   UNL     1       1.159   4.566  -5.699  0.00  0.00    +0.105 C 
ENDROOT
BRANCH   1   2
ATOM      2  C   UNL     1       2.602   4.983  -5.960  0.00  0.00    +0.232 C 
BRANCH   2   6
ATOM      3  C   UNL     1       3.676   5.457  -1.255  0.00  0.00    +0.267 C 
ATOM      4  N   UNL     1       4.262   4.948  -2.494  0.00  0.00    -0.087 NA
ATOM      5  C   UNL     1       3.672   5.379  -3.702  0.00  0.00    +0.470 C 
ATOM      6  N   UNL     1       3.372   4.534  -4.802  0.00  0.00    -0.090 NA
ATOM      7  N   UNL     1       3.498   6.648  -3.845  0.00  0.00    +0.016 NA
BRANCH   7   8
ATOM      8  C   UNL     1       3.549   7.444  -2.678  0.00  0.00    +0.296 C 
ATOM      9  N   UNL     1       3.825   8.481  -2.214  0.00  0.00    -0.151 NA
ENDBRANCH   7   8
ENDBRANCH   2   6
ENDBRANCH   1   2
BRANCH   1  10
ATOM     10  S   UNL     1       0.102   5.954  -6.145  0.00  0.00    -0.130 S 
BRANCH  10  11
ATOM     11  C   UNL     1      -0.303   6.869  -4.642  0.00  0.00    +0.104 C 
BRANCH  11  12
ATOM     12  C   UNL     1      -1.373   6.191  -3.858  0.00  0.00    +0.085 A 
ATOM     13  C   UNL     1      -1.174   5.412  -2.736  0.00  0.00    +0.075 A 
ATOM     14  C   UNL     1       0.093   5.251  -1.954  0.00  0.00    +0.053 C 
ATOM     15  N   UNL     1      -2.396   5.001  -2.347  0.00  0.00    -0.227 NA
ATOM     16  C   UNL     1      -3.287   5.379  -3.284  0.00  0.00    +0.198 A 
ATOM     17  N   UNL     1      -2.681   6.252  -4.115  0.00  0.00    -0.226 NA
ENDBRANCH  11  12
ENDBRANCH  10  11
ENDBRANCH   1  10
TORSDOF 6
ENDMDL
MODEL 5
REMARK VINA RESULT:      -5.5      3.829      5.180
REMARK  Name = 
REMARK  6 active torsions:
REMARK  status: ('A' for Active; 'I' for Inactive)
REMARK    1  A    between atoms: N_4  and  C_5
REMARK    2  A    between atoms: N_7  and  C_8
REMARK    3  A    between atoms: C_8  and  C_9
REMARK    4  A    between atoms: C_9  and  S_10
REMARK    5  A    between atoms: S_10  and  C_11
REMARK    6  A    between atoms: C_11  and  C_12
REMARK                            x       y       z     vdW  Elec       q    Type
REMARK                         _______ _______ _______ _____ _____    ______ ____
ROOT
ATOM      1  C   UNL     1       2.899   7.121  -3.482  0.00  0.00    +0.105 C 
ENDROOT
BRANCH   1   2
ATOM      2  C   UNL     1       3.987   6.753  -4.485  0.00  0.00    +0.232 C 
BRANCH   2   6
ATOM      3  C   UNL     1       1.457   6.636  -8.621  0.00  0.00    +0.267 C 
ATOM      4  N   UNL     1       2.653   7.257  -8.054  0.00  0.00    -0.087 NA
ATOM      5  C   UNL     1       3.180   6.673  -6.882  0.00  0.00    +0.470 C 
ATOM      6  N   UNL     1       3.616   7.399  -5.743  0.00  0.00    -0.090 NA
ATOM      7  N   UNL     1       3.372   5.398  -6.901  0.00  0.00    +0.016 NA
BRANCH   7   8
ATOM      8  C   UNL     1       2.709   4.659  -7.907  0.00  0.00    +0.296 C 
ATOM      9  N   UNL     1       2.714   3.703  -8.580  0.00  0.00    -0.151 NA
ENDBRANCH   7   8
ENDBRANCH   2   6
ENDBRANCH   1   2
BRANCH   1  10
ATOM     10  S   UNL     1       1.639   5.836  -3.549  0.00  0.00    -0.130 S 
BRANCH  10  11
ATOM     11  C   UNL     1       0.222   6.474  -4.471  0.00  0.00    +0.104 C 
BRANCH  11  12
ATOM     12  C   UNL     1      -1.064   5.966  -3.918  0.00  0.00    +0.085 A 
ATOM     13  C   UNL     1      -2.202   5.694  -4.652  0.00  0.00    +0.075 A 
ATOM     14  C   UNL     1      -2.332   5.647  -6.143  0.00  0.00    +0.053 C 
ATOM     15  N   UNL     1      -3.118   5.258  -3.768  0.00  0.00    -0.227 NA
ATOM     16  C   UNL     1      -2.616   5.410  -2.527  0.00  0.00    +0.198 A 
ATOM     17  N   UNL     1      -1.300   5.680  -2.635  0.00  0.00    -0.226 NA
ENDBRANCH  11  12
ENDBRANCH  10  11
ENDBRANCH   1  10
TORSDOF 6
ENDMDL
MODEL 6
REMARK VINA RESULT:      -5.5      3.454      7.786
REMARK  Name = 
REMARK  6 active torsions:
REMARK  status: ('A' for Active; 'I' for Inactive)
REMARK    1  A    between atoms: N_4  and  C_5
REMARK    2  A    between atoms: N_7  and  C_8
REMARK    3  A    between atoms: C_8  and  C_9
REMARK    4  A    between atoms: C_9  and  S_10
REMARK    5  A    between atoms: S_10  and  C_11
REMARK    6  A    between atoms: C_11  and  C_12
REMARK                            x       y       z     vdW  Elec       q    Type
REMARK                         _______ _______ _______ _____ _____    ______ ____
ROOT
ATOM      1  C   UNL     1       3.523   6.744  -4.232  0.00  0.00    +0.105 C 
ENDROOT
BRANCH   1   2
ATOM      2  C   UNL     1       2.126   6.596  -3.641  0.00  0.00    +0.232 C 
BRANCH   2   6
ATOM      3  C   UNL     1      -2.353   6.064  -5.422  0.00  0.00    +0.267 C 
ATOM      4  N   UNL     1      -1.007   5.521  -5.591  0.00  0.00    -0.087 NA
ATOM      5  C   UNL     1      -0.085   5.767  -4.550  0.00  0.00    +0.470 C 
ATOM      6  N   UNL     1       1.259   6.181  -4.742  0.00  0.00    -0.090 NA
ATOM      7  N   UNL     1      -0.470   5.489  -3.352  0.00  0.00    +0.016 NA
BRANCH   7   8
ATOM      8  C   UNL     1      -1.859   5.334  -3.139  0.00  0.00    +0.296 C 
ATOM      9  N   UNL     1      -2.701   4.953  -2.423  0.00  0.00    -0.151 NA
ENDBRANCH   7   8
ENDBRANCH   2   6
ENDBRANCH   1   2
BRANCH   1  10
ATOM     10  S   UNL     1       3.909   5.218  -5.107  0.00  0.00    -0.130 S 
BRANCH  10  11
ATOM     11  C   UNL     1       4.455   5.640  -6.776  0.00  0.00    +0.104 C 
BRANCH  11  12
ATOM     12  C   UNL     1       3.406   5.334  -7.789  0.00  0.00    +0.085 A 
ATOM     13  C   UNL     1       2.408   6.197  -8.195  0.00  0.00    +0.075 A 
ATOM     14  C   UNL     1       2.282   7.655  -7.880  0.00  0.00    +0.053 C 
ATOM     15  N   UNL     1       1.690   5.526  -9.116  0.00  0.00    -0.227 NA
ATOM     16  C   UNL     1       2.131   4.254  -9.153  0.00  0.00    +0.198 A 
ATOM     17  N   UNL     1       3.290   4.190  -8.466  0.00  0.00    -0.226 NA
ENDBRANCH  11  12
ENDBRANCH  10  11
ENDBRANCH   1  10
TORSDOF 6
ENDMDL
MODEL 7
REMARK VINA RESULT:      -5.5      4.175      5.620
REMARK  Name = 
REMARK  6 active torsions:
REMARK  status: ('A' for Active; 'I' for Inactive)
REMARK    1  A    between atoms: N_4  and  C_5
REMARK    2  A    between atoms: N_7  and  C_8
REMARK    3  A    between atoms: C_8  and  C_9
REMARK    4  A    between atoms: C_9  and  S_10
REMARK    5  A    between atoms: S_10  and  C_11
REMARK    6  A    between atoms: C_11  and  C_12
REMARK                            x       y       z     vdW  Elec       q    Type
REMARK                         _______ _______ _______ _____ _____    ______ ____
ROOT
ATOM      1  C   UNL     1       1.032   6.121  -7.748  0.00  0.00    +0.105 C 
ENDROOT
BRANCH   1   2
ATOM      2  C   UNL     1       2.480   5.747  -7.456  0.00  0.00    +0.232 C 
BRANCH   2   6
ATOM      3  C   UNL     1       5.519   7.337  -4.028  0.00  0.00    +0.267 C 
ATOM      4  N   UNL     1       4.297   7.743  -4.719  0.00  0.00    -0.087 NA
ATOM      5  C   UNL     1       3.589   6.733  -5.406  0.00  0.00    +0.470 C 
ATOM      6  N   UNL     1       3.049   6.869  -6.712  0.00  0.00    -0.090 NA
ATOM      7  N   UNL     1       3.327   5.654  -4.750  0.00  0.00    +0.016 NA
BRANCH   7   8
ATOM      8  C   UNL     1       4.073   5.417  -3.573  0.00  0.00    +0.296 C 
ATOM      9  N   UNL     1       4.084   4.950  -2.501  0.00  0.00    -0.151 NA
ENDBRANCH   7   8
ENDBRANCH   2   6
ENDBRANCH   1   2
BRANCH   1  10
ATOM     10  S   UNL     1      -0.000   5.308  -6.516  0.00  0.00    -0.130 S 
BRANCH  10  11
ATOM     11  C   UNL     1      -0.303   6.470  -5.168  0.00  0.00    +0.104 C 
BRANCH  11  12
ATOM     12  C   UNL     1      -1.310   5.943  -4.206  0.00  0.00    +0.085 A 
ATOM     13  C   UNL     1      -1.025   5.309  -3.012  0.00  0.00    +0.075 A 
ATOM     14  C   UNL     1       0.306   5.200  -2.336  0.00  0.00    +0.053 C 
ATOM     15  N   UNL     1      -2.215   5.002  -2.462  0.00  0.00    -0.227 NA
ATOM     16  C   UNL     1      -3.182   5.290  -3.355  0.00  0.00    +0.198 A 
ATOM     17  N   UNL     1      -2.635   6.023  -4.346  0.00  0.00    -0.226 NA
ENDBRANCH  11  12
ENDBRANCH  10  11
ENDBRANCH   1  10
TORSDOF 6
ENDMDL
MODEL 8
REMARK VINA RESULT:      -5.5      1.393      1.627
REMARK  Name = 
REMARK  6 active torsions:
REMARK  status: ('A' for Active; 'I' for Inactive)
REMARK    1  A    between atoms: N_4  and  C_5
REMARK    2  A    between atoms: N_7  and  C_8
REMARK    3  A    between atoms: C_8  and  C_9
REMARK    4  A    between atoms: C_9  and  S_10
REMARK    5  A    between atoms: S_10  and  C_11
REMARK    6  A    between atoms: C_11  and  C_12
REMARK                            x       y       z     vdW  Elec       q    Type
REMARK                         _______ _______ _______ _____ _____    ______ ____
ROOT
ATOM      1  C   UNL     1       2.087   5.132  -9.171  0.00  0.00    +0.105 C 
ENDROOT
BRANCH   1   2
ATOM      2  C   UNL     1       2.954   6.019 -10.058  0.00  0.00    +0.232 C 
BRANCH   2   6
ATOM      3  C   UNL     1       7.734   6.717 -10.478  0.00  0.00    +0.267 C 
ATOM      4  N   UNL     1       6.772   6.032  -9.618  0.00  0.00    -0.087 NA
ATOM      5  C   UNL     1       5.476   5.834 -10.142  0.00  0.00    +0.470 C 
ATOM      6  N   UNL     1       4.272   6.063  -9.426  0.00  0.00    -0.090 NA
ATOM      7  N   UNL     1       5.395   5.308 -11.316  0.00  0.00    +0.016 NA
BRANCH   7   8
ATOM      8  C   UNL     1       6.562   5.325 -12.114  0.00  0.00    +0.296 C 
ATOM      9  N   UNL     1       7.119   4.877 -13.039  0.00  0.00    -0.151 NA
ENDBRANCH   7   8
ENDBRANCH   2   6
ENDBRANCH   1   2
BRANCH   1  10
ATOM     10  S   UNL     1       2.864   5.059  -7.548  0.00  0.00    -0.130 S 
BRANCH  10  11
ATOM     11  C   UNL     1       1.858   4.006  -6.480  0.00  0.00    +0.104 C 
BRANCH  11  12
ATOM     12  C   UNL     1       1.046   4.812  -5.525  0.00  0.00    +0.085 A 
ATOM     13  C   UNL     1      -0.183   5.379  -5.797  0.00  0.00    +0.075 A 
ATOM     14  C   UNL     1      -1.048   5.144  -6.997  0.00  0.00    +0.053 C 
ATOM     15  N   UNL     1      -0.559   6.009  -4.668  0.00  0.00    -0.227 NA
ATOM     16  C   UNL     1       0.469   5.967  -3.797  0.00  0.00    +0.198 A 
ATOM     17  N   UNL     1       1.379   5.087  -4.262  0.00  0.00    -0.226 NA
ENDBRANCH  11  12
ENDBRANCH  10  11
ENDBRANCH   1  10
TORSDOF 6
ENDMDL
MODEL 9
REMARK VINA RESULT:      -5.5      2.288      8.395
REMARK  Name = 
REMARK  6 active torsions:
REMARK  status: ('A' for Active; 'I' for Inactive)
REMARK    1  A    between atoms: N_4  and  C_5
REMARK    2  A    between atoms: N_7  and  C_8
REMARK    3  A    between atoms: C_8  and  C_9
REMARK    4  A    between atoms: C_9  and  S_10
REMARK    5  A    between atoms: S_10  and  C_11
REMARK    6  A    between atoms: C_11  and  C_12
REMARK                            x       y       z     vdW  Elec       q    Type
REMARK                         _______ _______ _______ _____ _____    ______ ____
ROOT
ATOM      1  C   UNL     1       1.988   3.859  -6.499  0.00  0.00    +0.105 C 
ENDROOT
BRANCH   1   2
ATOM      2  C   UNL     1       0.758   4.600  -5.988  0.00  0.00    +0.232 C 
BRANCH   2   6
ATOM      3  C   UNL     1       0.223   5.386  -1.233  0.00  0.00    +0.267 C 
ATOM      4  N   UNL     1       0.730   6.054  -2.430  0.00  0.00    -0.087 NA
ATOM      5  C   UNL     1       0.321   5.527  -3.674  0.00  0.00    +0.470 C 
ATOM      6  N   UNL     1       1.181   5.310  -4.783  0.00  0.00    -0.090 NA
ATOM      7  N   UNL     1      -0.943   5.335  -3.840  0.00  0.00    +0.016 NA
BRANCH   7   8
ATOM      8  C   UNL     1      -1.749   5.301  -2.679  0.00  0.00    +0.296 C 
ATOM      9  N   UNL     1      -2.817   5.127  -2.236  0.00  0.00    -0.151 NA
ENDBRANCH   7   8
ENDBRANCH   2   6
ENDBRANCH   1   2
BRANCH   1  10
ATOM     10  S   UNL     1       3.004   5.044  -7.398  0.00  0.00    -0.130 S 
BRANCH  10  11
ATOM     11  C   UNL     1       3.760   4.198  -8.803  0.00  0.00    +0.104 C 
BRANCH  11  12
ATOM     12  C   UNL     1       4.091   5.148  -9.901  0.00  0.00    +0.085 A 
ATOM     13  C   UNL     1       5.285   5.828 -10.041  0.00  0.00    +0.075 A 
ATOM     14  C   UNL     1       6.550   5.613  -9.270  0.00  0.00    +0.053 C 
ATOM     15  N   UNL     1       5.161   6.568 -11.159  0.00  0.00    -0.227 NA
ATOM     16  C   UNL     1       3.890   6.469 -11.594  0.00  0.00    +0.198 A 
ATOM     17  N   UNL     1       3.291   5.466 -10.921  0.00  0.00    -0.226 NA
ENDBRANCH  11  12
ENDBRANCH  10  11
ENDBRANCH   1  10
TORSDOF 6
ENDMDL
