MODEL 1
REMARK VINA RESULT:      -8.5      0.000      0.000
REMARK  Name = 
REMARK  7 active torsions:
REMARK  status: ('A' for Active; 'I' for Inactive)
REMARK    1  A    between atoms: O_2  and  C_3
REMARK    2  A    between atoms: C_8  and  C_9
REMARK    3  A    between atoms: C_9  and  C_10
REMARK    4  A    between atoms: C_20  and  C_21
REMARK    5  A    between atoms: N_25  and  C_26
REMARK    6  A    between atoms: C_26  and  C_27
REMARK    7  A    between atoms: C_26  and  C_29
REMARK                            x       y       z     vdW  Elec       q    Type
REMARK                         _______ _______ _______ _____ _____    ______ ____
ROOT
ATOM      1  C   UNL     1       1.581   5.594  -8.335  0.00  0.00    +0.136 A 
ATOM      2  C   UNL     1       2.802   5.029  -7.970  0.00  0.00    +0.016 A 
ATOM      3  C   UNL     1       3.285   5.527  -6.760  0.00  0.00    +0.004 A 
ATOM      4  C   UNL     1       2.335   5.711  -5.761  0.00  0.00    +0.055 A 
ATOM      5  C   UNL     1       2.631   5.502  -4.420  0.00  0.00    +0.205 A 
ATOM      6  C   UNL     1       1.583   5.564  -3.508  0.00  0.00    +0.136 A 
ATOM      7  C   UNL     1       0.323   5.937  -3.965  0.00  0.00    +0.086 A 
ATOM      8  N   UNL     1       0.333   6.704  -5.090  0.00  0.00    -0.325 N 
ATOM      9  O   UNL     1       3.847   5.523  -4.056  0.00  0.00    -0.286 OA
ATOM     10  C   UNL     1       1.078   6.203  -6.091  0.00  0.00    +0.066 A 
ATOM     11  C   UNL     1       0.673   6.051  -7.388  0.00  0.00    +0.054 A 
ENDROOT
BRANCH   6  12
ATOM     12  C   UNL     1       1.873   5.451  -2.073  0.00  0.00    +0.392 C 
ATOM     13  O   UNL     1       2.242   6.642  -1.440  0.00  0.00    -0.240 OA
ATOM     14  O   UNL     1       1.160   4.674  -1.368  0.00  0.00    -0.240 OA
ENDBRANCH   6  12
BRANCH   1  16
ATOM     15  C   UNL     1       0.851   6.029 -10.127  0.00  0.00    +0.252 C 
ATOM     16  O   UNL     1       1.259   5.881  -9.664  0.00  0.00    -0.472 OA
ENDBRANCH   1  16
BRANCH   2  17
ATOM     17  C   UNL     1       3.660   4.683  -9.100  0.00  0.00    +0.058 C 
BRANCH  17  18
ATOM     18  C   UNL     1       4.877   5.438  -9.285  0.00  0.00    +0.011 A 
ATOM     19  C   UNL     1       5.014   6.545 -10.099  0.00  0.00    +0.147 A 
ATOM     20  F   UNL     1       3.919   7.348 -10.176  0.00  0.00    -0.204 F 
ATOM     21  C   UNL     1       6.265   6.957 -10.523  0.00  0.00    +0.085 A 
ATOM     22 CL   UNL     1       6.273   7.947 -11.970  0.00  0.00    -0.080 Cl
ATOM     23  C   UNL     1       7.391   6.441  -9.944  0.00  0.00    +0.014 A 
ATOM     24  C   UNL     1       7.262   5.448  -8.987  0.00  0.00    +0.001 A 
ATOM     25  C   UNL     1       6.005   4.994  -8.603  0.00  0.00    -0.002 A 
ENDBRANCH  17  18
ENDBRANCH   2  17
BRANCH   8  26
ATOM     26  C   UNL     1      -1.115   7.174  -5.535  0.00  0.00    +0.118 C 
BRANCH  26  27
ATOM     27  C   UNL     1      -1.882   5.783  -5.090  0.00  0.00    +0.023 C 
ATOM     28  C   UNL     1      -2.504   5.229  -6.325  0.00  0.00    +0.002 C 
ATOM     29  C   UNL     1      -2.706   5.954  -3.919  0.00  0.00    +0.002 C 
ENDBRANCH  26  27
BRANCH  26  30
ATOM     30  C   UNL     1      -1.422   7.911  -4.085  0.00  0.00    +0.204 C 
ATOM     31  O   UNL     1      -1.854   9.173  -4.360  0.00  0.00    -0.218 OA
ENDBRANCH  26  30
ENDBRANCH   8  26
TORSDOF 7
ENDMDL
MODEL 2
REMARK VINA RESULT:      -8.5      2.342      4.920
REMARK  Name = 
REMARK  7 active torsions:
REMARK  status: ('A' for Active; 'I' for Inactive)
REMARK    1  A    between atoms: O_2  and  C_3
REMARK    2  A    between atoms: C_8  and  C_9
REMARK    3  A    between atoms: C_9  and  C_10
REMARK    4  A    between atoms: C_20  and  C_21
REMARK    5  A    between atoms: N_25  and  C_26
REMARK    6  A    between atoms: C_26  and  C_27
REMARK    7  A    between atoms: C_26  and  C_29
REMARK                            x       y       z     vdW  Elec       q    Type
REMARK                         _______ _______ _______ _____ _____    ______ ____
ROOT
ATOM      1  C   UNL     1       1.994   5.373  -8.598  0.00  0.00    +0.136 A 
ATOM      2  C   UNL     1       0.661   5.252  -8.990  0.00  0.00    +0.016 A 
ATOM      3  C   UNL     1      -0.189   4.960  -7.924  0.00  0.00    +0.004 A 
ATOM      4  C   UNL     1       0.076   5.637  -6.738  0.00  0.00    +0.055 A 
ATOM      5  C   UNL     1      -0.940   6.038  -5.879  0.00  0.00    +0.205 A 
ATOM      6  C   UNL     1      -0.594   6.837  -4.796  0.00  0.00    +0.136 A 
ATOM      7  C   UNL     1       0.752   7.102  -4.565  0.00  0.00    +0.086 A 
ATOM      8  N   UNL     1       1.606   6.161  -5.056  0.00  0.00    -0.325 N 
ATOM      9  O   UNL     1      -2.068   5.463  -5.963  0.00  0.00    -0.286 OA
ATOM     10  C   UNL     1       1.393   5.845  -6.345  0.00  0.00    +0.066 A 
ATOM     11  C   UNL     1       2.347   5.798  -7.324  0.00  0.00    +0.054 A 
ENDROOT
BRANCH   6  12
ATOM     12  C   UNL     1      -1.623   7.195  -3.811  0.00  0.00    +0.392 C 
ATOM     13  O   UNL     1      -1.462   6.629  -2.543  0.00  0.00    -0.240 OA
ATOM     14  O   UNL     1      -2.079   8.379  -3.810  0.00  0.00    -0.240 OA
ENDBRANCH   6  12
BRANCH   1  16
ATOM     15  C   UNL     1       3.657   4.770  -9.495  0.00  0.00    +0.252 C 
ATOM     16  O   UNL     1       3.051   4.929  -9.398  0.00  0.00    -0.472 OA
ENDBRANCH   1  16
BRANCH   2  17
ATOM     17  C   UNL     1       0.483   4.714 -10.336  0.00  0.00    +0.058 C 
BRANCH  17  18
ATOM     18  C   UNL     1       0.294   5.648 -11.422  0.00  0.00    +0.011 A 
ATOM     19  C   UNL     1       0.848   5.531 -12.680  0.00  0.00    +0.147 A 
ATOM     20  F   UNL     1       0.978   4.258 -13.141  0.00  0.00    -0.204 F 
ATOM     21  C   UNL     1       0.948   6.632 -13.511  0.00  0.00    +0.085 A 
ATOM     22 CL   UNL     1       2.158   6.508 -14.773  0.00  0.00    -0.080 Cl
ATOM     23  C   UNL     1       0.275   7.784 -13.209  0.00  0.00    +0.014 A 
ATOM     24  C   UNL     1      -0.440   7.855 -12.025  0.00  0.00    +0.001 A 
ATOM     25  C   UNL     1      -0.492   6.765 -11.163  0.00  0.00    -0.002 A 
ENDBRANCH  17  18
ENDBRANCH   2  17
BRANCH   8  26
ATOM     26  C   UNL     1       3.125   6.457  -4.705  0.00  0.00    +0.118 C 
BRANCH  26  27
ATOM     27  C   UNL     1       2.846   6.910  -3.144  0.00  0.00    +0.023 C 
ATOM     28  C   UNL     1       3.847   7.965  -2.824  0.00  0.00    +0.002 C 
ATOM     29  C   UNL     1       2.722   5.783  -2.253  0.00  0.00    +0.002 C 
ENDBRANCH  26  27
BRANCH  26  30
ATOM     30  C   UNL     1       3.431   4.885  -4.287  0.00  0.00    +0.204 C 
ATOM     31  O   UNL     1       4.725   4.625  -4.622  0.00  0.00    -0.218 OA
ENDBRANCH  26  30
ENDBRANCH   8  26
TORSDOF 7
ENDMDL
MODEL 3
REMARK VINA RESULT:      -8.4      3.857      7.279
REMARK  Name = 
REMARK  7 active torsions:
REMARK  status: ('A' for Active; 'I' for Inactive)
REMARK    1  A    between atoms: O_2  and  C_3
REMARK    2  A    between atoms: C_8  and  C_9
REMARK    3  A    between atoms: C_9  and  C_10
REMARK    4  A    between atoms: C_20  and  C_21
REMARK    5  A    between atoms: N_25  and  C_26
REMARK    6  A    between atoms: C_26  and  C_27
REMARK    7  A    between atoms: C_26  and  C_29
REMARK                            x       y       z     vdW  Elec       q    Type
REMARK                         _______ _______ _______ _____ _____    ______ ____
ROOT
ATOM      1  C   UNL     1       0.804   5.616  -7.970  0.00  0.00    +0.136 A 
ATOM      2  C   UNL     1       2.027   5.653  -7.301  0.00  0.00    +0.016 A 
ATOM      3  C   UNL     1       3.056   5.051  -8.025  0.00  0.00    +0.004 A 
ATOM      4  C   UNL     1       3.060   5.308  -9.392  0.00  0.00    +0.055 A 
ATOM      5  C   UNL     1       4.242   5.433 -10.112  0.00  0.00    +0.205 A 
ATOM      6  C   UNL     1       4.153   5.837 -11.439  0.00  0.00    +0.136 A 
ATOM      7  C   UNL     1       2.893   5.988 -12.007  0.00  0.00    +0.086 A 
ATOM      8  N   UNL     1       1.916   5.237 -11.425  0.00  0.00    -0.325 N 
ATOM      9  O   UNL     1       5.304   4.938  -9.625  0.00  0.00    -0.286 OA
ATOM     10  C   UNL     1       1.857   5.353 -10.087  0.00  0.00    +0.066 A 
ATOM     11  C   UNL     1       0.729   5.603  -9.356  0.00  0.00    +0.054 A 
ENDROOT
BRANCH   6  12
ATOM     12  C   UNL     1       5.371   5.882 -12.259  0.00  0.00    +0.392 C 
ATOM     13  O   UNL     1       5.435   4.938 -13.288  0.00  0.00    -0.240 OA
ATOM     14  O   UNL     1       5.873   7.012 -12.541  0.00  0.00    -0.240 OA
ENDBRANCH   6  12
BRANCH   1  16
ATOM     15  C   UNL     1      -1.036   5.342  -7.283  0.00  0.00    +0.252 C 
ATOM     16  O   UNL     1      -0.408   5.430  -7.300  0.00  0.00    -0.472 OA
ENDBRANCH   1  16
BRANCH   2  17
ATOM     17  C   UNL     1       1.913   5.576  -5.847  0.00  0.00    +0.058 C 
BRANCH  17  18
ATOM     18  C   UNL     1       3.066   5.936  -5.055  0.00  0.00    +0.011 A 
ATOM     19  C   UNL     1       3.604   5.175  -4.037  0.00  0.00    +0.147 A 
ATOM     20  F   UNL     1       3.530   3.828  -4.218  0.00  0.00    -0.204 F 
ATOM     21  C   UNL     1       4.432   5.750  -3.089  0.00  0.00    +0.085 A 
ATOM     22 CL   UNL     1       4.556   4.874  -1.576  0.00  0.00    -0.080 Cl
ATOM     23  C   UNL     1       4.934   7.006  -3.288  0.00  0.00    +0.014 A 
ATOM     24  C   UNL     1       4.540   7.720  -4.407  0.00  0.00    +0.001 A 
ATOM     25  C   UNL     1       3.662   7.162  -5.330  0.00  0.00    -0.002 A 
ENDBRANCH  17  18
ENDBRANCH   2  17
BRANCH   8  26
ATOM     26  C   UNL     1       0.511   5.375 -12.149  0.00  0.00    +0.118 C 
BRANCH  26  27
ATOM     27  C   UNL     1       0.630   6.997 -12.427  0.00  0.00    +0.023 C 
ATOM     28  C   UNL     1      -0.492   7.637 -11.685  0.00  0.00    +0.002 C 
ATOM     29  C   UNL     1       0.801   7.309 -13.824  0.00  0.00    +0.002 C 
ENDBRANCH  26  27
BRANCH  26  30
ATOM     30  C   UNL     1       1.133   4.986 -13.633  0.00  0.00    +0.204 C 
ATOM     31  O   UNL     1       0.447   3.899 -14.083  0.00  0.00    -0.218 OA
ENDBRANCH  26  30
ENDBRANCH   8  26
TORSDOF 7
ENDMDL
MODEL 4
REMARK VINA RESULT:      -8.4      3.829      7.258
REMARK  Name = 
REMARK  7 active torsions:
REMARK  status: ('A' for Active; 'I' for Inactive)
REMARK    1  A    between atoms: O_2  and  C_3
REMARK    2  A    between atoms: C_8  and  C_9
REMARK    3  A    between atoms: C_9  and  C_10
REMARK    4  A    between atoms: C_20  and  C_21
REMARK    5  A    between atoms: N_25  and  C_26
REMARK    6  A    between atoms: C_26  and  C_27
REMARK    7  A    between atoms: C_26  and  C_29
REMARK                            x       y       z     vdW  Elec       q    Type
REMARK                         _______ _______ _______ _____ _____    ______ ____
ROOT
ATOM      1  C   UNL     1       2.515   5.325  -6.810  0.00  0.00    +0.136 A 
ATOM      2  C   UNL     1       3.858   5.285  -6.439  0.00  0.00    +0.016 A 
ATOM      3  C   UNL     1       4.704   4.990  -7.508  0.00  0.00    +0.004 A 
ATOM      4  C   UNL     1       4.386   5.604  -8.715  0.00  0.00    +0.055 A 
ATOM      5  C   UNL     1       5.367   6.018  -9.608  0.00  0.00    +0.205 A 
ATOM      6  C   UNL     1       4.965   6.755 -10.716  0.00  0.00    +0.136 A 
ATOM      7  C   UNL     1       3.604   6.945 -10.932  0.00  0.00    +0.086 A 
ATOM      8  N   UNL     1       2.805   5.986 -10.388  0.00  0.00    -0.325 N 
ATOM      9  O   UNL     1       6.523   5.502  -9.522  0.00  0.00    -0.286 OA
ATOM     10  C   UNL     1       3.055   5.732  -9.092  0.00  0.00    +0.066 A 
ATOM     11  C   UNL     1       2.121   5.680  -8.094  0.00  0.00    +0.054 A 
ENDROOT
BRANCH   6  12
ATOM     12  C   UNL     1       5.959   7.121 -11.734  0.00  0.00    +0.392 C 
ATOM     13  O   UNL     1       5.722   6.612 -13.014  0.00  0.00    -0.240 OA
ATOM     14  O   UNL     1       6.451   8.290 -11.709  0.00  0.00    -0.240 OA
ENDBRANCH   6  12
BRANCH   1  16
ATOM     15  C   UNL     1       0.889   4.731  -5.844  0.00  0.00    +0.252 C 
ATOM     16  O   UNL     1       1.495   4.864  -5.974  0.00  0.00    -0.472 OA
ENDBRANCH   1  16
BRANCH   2  17
ATOM     17  C   UNL     1       4.085   4.811  -5.076  0.00  0.00    +0.058 C 
BRANCH  17  18
ATOM     18  C   UNL     1       4.249   5.796  -4.033  0.00  0.00    +0.011 A 
ATOM     19  C   UNL     1       3.787   5.672  -2.738  0.00  0.00    +0.147 A 
ATOM     20  F   UNL     1       3.810   4.409  -2.233  0.00  0.00    -0.204 F 
ATOM     21  C   UNL     1       3.632   6.788  -1.935  0.00  0.00    +0.085 A 
ATOM     22 CL   UNL     1       2.519   6.594  -0.595  0.00  0.00    -0.080 Cl
ATOM     23  C   UNL     1       4.170   7.987  -2.314  0.00  0.00    +0.014 A 
ATOM     24  C   UNL     1       4.800   8.083  -3.543  0.00  0.00    +0.001 A 
ATOM     25  C   UNL     1       4.905   6.974  -4.375  0.00  0.00    -0.002 A 
ENDBRANCH  17  18
ENDBRANCH   2  17
BRANCH   8  26
ATOM     26  C   UNL     1       1.268   6.193 -10.722  0.00  0.00    +0.118 C 
BRANCH  26  27
ATOM     27  C   UNL     1       1.494   6.538 -12.319  0.00  0.00    +0.023 C 
ATOM     28  C   UNL     1       0.410   7.485 -12.705  0.00  0.00    +0.002 C 
ATOM     29  C   UNL     1       1.694   5.355 -13.119  0.00  0.00    +0.002 C 
ENDBRANCH  26  27
BRANCH  26  30
ATOM     30  C   UNL     1       1.019   4.583 -11.014  0.00  0.00    +0.204 C 
ATOM     31  O   UNL     1      -0.203   4.267 -10.502  0.00  0.00    -0.218 OA
ENDBRANCH  26  30
ENDBRANCH   8  26
TORSDOF 7
ENDMDL
MODEL 5
REMARK VINA RESULT:      -8.4      3.518      8.484
REMARK  Name = 
REMARK  7 active torsions:
REMARK  status: ('A' for Active; 'I' for Inactive)
REMARK    1  A    between atoms: O_2  and  C_3
REMARK    2  A    between atoms: C_8  and  C_9
REMARK    3  A    between atoms: C_9  and  C_10
REMARK    4  A    between atoms: C_20  and  C_21
REMARK    5  A    between atoms: N_25  and  C_26
REMARK    6  A    between atoms: C_26  and  C_27
REMARK    7  A    between atoms: C_26  and  C_29
REMARK                            x       y       z     vdW  Elec       q    Type
REMARK                         _______ _______ _______ _____ _____    ______ ____
ROOT
ATOM      1  C   UNL     1       3.673   5.432  -7.548  0.00  0.00    +0.136 A 
ATOM      2  C   UNL     1       2.432   4.911  -7.910  0.00  0.00    +0.016 A 
ATOM      3  C   UNL     1       1.937   5.468  -9.088  0.00  0.00    +0.004 A 
ATOM      4  C   UNL     1       2.872   5.671 -10.098  0.00  0.00    +0.055 A 
ATOM      5  C   UNL     1       2.545   5.525 -11.441  0.00  0.00    +0.205 A 
ATOM      6  C   UNL     1       3.575   5.600 -12.371  0.00  0.00    +0.136 A 
ATOM      7  C   UNL     1       4.852   5.926 -11.926  0.00  0.00    +0.086 A 
ATOM      8  N   UNL     1       4.882   6.646 -10.770  0.00  0.00    -0.325 N 
ATOM      9  O   UNL     1       1.323   5.587 -11.778  0.00  0.00    -0.286 OA
ATOM     10  C   UNL     1       4.146   6.121  -9.775  0.00  0.00    +0.066 A 
ATOM     11  C   UNL     1       4.572   5.907  -8.494  0.00  0.00    +0.054 A 
ENDROOT
BRANCH   6  12
ATOM     12  C   UNL     1       3.254   5.553 -13.803  0.00  0.00    +0.392 C 
ATOM     13  O   UNL     1       4.104   6.290 -14.633  0.00  0.00    -0.240 OA
ATOM     14  O   UNL     1       2.846   4.459 -14.298  0.00  0.00    -0.240 OA
ENDBRANCH   6  12
BRANCH   1  16
ATOM     15  C   UNL     1       4.387   5.922  -5.763  0.00  0.00    +0.252 C 
ATOM     16  O   UNL     1       4.029   5.658  -6.215  0.00  0.00    -0.472 OA
ENDBRANCH   1  16
BRANCH   2  17
ATOM     17  C   UNL     1       1.590   4.538  -6.777  0.00  0.00    +0.058 C 
BRANCH  17  18
ATOM     18  C   UNL     1       0.369   5.282  -6.565  0.00  0.00    +0.011 A 
ATOM     19  C   UNL     1       0.214   6.321  -5.669  0.00  0.00    +0.147 A 
ATOM     20  F   UNL     1       1.309   7.110  -5.501  0.00  0.00    -0.204 F 
ATOM     21  C   UNL     1      -1.046   6.704  -5.246  0.00  0.00    +0.085 A 
ATOM     22 CL   UNL     1      -1.090   7.576  -3.727  0.00  0.00    -0.080 Cl
ATOM     23  C   UNL     1      -2.158   6.241  -5.894  0.00  0.00    +0.014 A 
ATOM     24  C   UNL     1      -2.006   5.326  -6.922  0.00  0.00    +0.001 A 
ATOM     25  C   UNL     1      -0.741   4.898  -7.308  0.00  0.00    -0.002 A 
ENDBRANCH  17  18
ENDBRANCH   2  17
BRANCH   8  26
ATOM     26  C   UNL     1       6.350   7.065 -10.337  0.00  0.00    +0.118 C 
BRANCH  26  27
ATOM     27  C   UNL     1       7.085   5.710 -10.922  0.00  0.00    +0.023 C 
ATOM     28  C   UNL     1       7.731   5.042  -9.757  0.00  0.00    +0.002 C 
ATOM     29  C   UNL     1       7.882   5.973 -12.094  0.00  0.00    +0.002 C 
ENDBRANCH  26  27
BRANCH  26  30
ATOM     30  C   UNL     1       6.617   7.918 -11.730  0.00  0.00    +0.204 C 
ATOM     31  O   UNL     1       6.357   9.227 -11.455  0.00  0.00    -0.218 OA
ENDBRANCH  26  30
ENDBRANCH   8  26
TORSDOF 7
ENDMDL
MODEL 6
REMARK VINA RESULT:      -8.3      3.333      6.987
REMARK  Name = 
REMARK  7 active torsions:
REMARK  status: ('A' for Active; 'I' for Inactive)
REMARK    1  A    between atoms: O_2  and  C_3
REMARK    2  A    between atoms: C_8  and  C_9
REMARK    3  A    between atoms: C_9  and  C_10
REMARK    4  A    between atoms: C_20  and  C_21
REMARK    5  A    between atoms: N_25  and  C_26
REMARK    6  A    between atoms: C_26  and  C_27
REMARK    7  A    between atoms: C_26  and  C_29
REMARK                            x       y       z     vdW  Elec       q    Type
REMARK                         _______ _______ _______ _____ _____    ______ ____
ROOT
ATOM      1  C   UNL     1       0.151   5.280  -7.649  0.00  0.00    +0.136 A 
ATOM      2  C   UNL     1       1.302   5.203  -6.864  0.00  0.00    +0.016 A 
ATOM      3  C   UNL     1       2.369   4.601  -7.532  0.00  0.00    +0.004 A 
ATOM      4  C   UNL     1       2.521   4.956  -8.868  0.00  0.00    +0.055 A 
ATOM      5  C   UNL     1       3.774   5.069  -9.458  0.00  0.00    +0.205 A 
ATOM      6  C   UNL     1       3.836   5.573 -10.752  0.00  0.00    +0.136 A 
ATOM      7  C   UNL     1       2.647   5.831 -11.426  0.00  0.00    +0.086 A 
ATOM      8  N   UNL     1       1.584   5.094 -11.000  0.00  0.00    -0.325 N 
ATOM      9  O   UNL     1       4.758   4.483  -8.912  0.00  0.00    -0.286 OA
ATOM     10  C   UNL     1       1.397   5.116  -9.669  0.00  0.00    +0.066 A 
ATOM     11  C   UNL     1       0.214   5.373  -9.033  0.00  0.00    +0.054 A 
ENDROOT
BRANCH   6  12
ATOM     12  C   UNL     1       5.131   5.611 -11.446  0.00  0.00    +0.392 C 
ATOM     13  O   UNL     1       5.191   4.892 -12.643  0.00  0.00    -0.240 OA
ATOM     14  O   UNL     1       5.790   6.694 -11.443  0.00  0.00    -0.240 OA
ENDBRANCH   6  12
BRANCH   1  16
ATOM     15  C   UNL     1      -1.724   5.301  -7.004  0.00  0.00    +0.252 C 
ATOM     16  O   UNL     1      -1.129   5.111  -7.115  0.00  0.00    -0.472 OA
ENDBRANCH   1  16
BRANCH   2  17
ATOM     17  C   UNL     1       1.039   5.027  -5.439  0.00  0.00    +0.058 C 
BRANCH  17  18
ATOM     18  C   UNL     1       1.710   5.909  -4.511  0.00  0.00    +0.011 A 
ATOM     19  C   UNL     1       2.713   6.798  -4.839  0.00  0.00    +0.147 A 
ATOM     20  F   UNL     1       2.604   7.367  -6.070  0.00  0.00    -0.204 F 
ATOM     21  C   UNL     1       3.556   7.300  -3.864  0.00  0.00    +0.085 A 
ATOM     22 CL   UNL     1       5.093   7.908  -4.447  0.00  0.00    -0.080 Cl
ATOM     23  C   UNL     1       3.254   7.130  -2.541  0.00  0.00    +0.014 A 
ATOM     24  C   UNL     1       2.140   6.384  -2.195  0.00  0.00    +0.001 A 
ATOM     25  C   UNL     1       1.325   5.831  -3.177  0.00  0.00    -0.002 A 
ENDBRANCH  17  18
ENDBRANCH   2  17
BRANCH   8  26
ATOM     26  C   UNL     1       0.266   5.360 -11.842  0.00  0.00    +0.118 C 
BRANCH  26  27
ATOM     27  C   UNL     1       0.531   6.974 -12.055  0.00  0.00    +0.023 C 
ATOM     28  C   UNL     1      -0.642   7.677 -11.466  0.00  0.00    +0.002 C 
ATOM     29  C   UNL     1       0.924   7.299 -13.404  0.00  0.00    +0.002 C 
ENDBRANCH  26  27
BRANCH  26  30
ATOM     30  C   UNL     1       0.991   4.962 -13.276  0.00  0.00    +0.204 C 
ATOM     31  O   UNL     1       0.264   3.950 -13.827  0.00  0.00    -0.218 OA
ENDBRANCH  26  30
ENDBRANCH   8  26
TORSDOF 7
ENDMDL
MODEL 7
REMARK VINA RESULT:      -8.0      2.115      4.185
REMARK  Name = 
REMARK  7 active torsions:
REMARK  status: ('A' for Active; 'I' for Inactive)
REMARK    1  A    between atoms: O_2  and  C_3
REMARK    2  A    between atoms: C_8  and  C_9
REMARK    3  A    between atoms: C_9  and  C_10
REMARK    4  A    between atoms: C_20  and  C_21
REMARK    5  A    between atoms: N_25  and  C_26
REMARK    6  A    between atoms: C_26  and  C_27
REMARK    7  A    between atoms: C_26  and  C_29
REMARK                            x       y       z     vdW  Elec       q    Type
REMARK                         _______ _______ _______ _____ _____    ______ ____
ROOT
ATOM      1  C   UNL     1       4.358   5.346  -8.062  0.00  0.00    +0.136 A 
ATOM      2  C   UNL     1       3.274   5.444  -8.934  0.00  0.00    +0.016 A 
ATOM      3  C   UNL     1       2.061   5.132  -8.321  0.00  0.00    +0.004 A 
ATOM      4  C   UNL     1       1.896   5.618  -7.028  0.00  0.00    +0.055 A 
ATOM      5  C   UNL     1       0.659   6.036  -6.553  0.00  0.00    +0.205 A 
ATOM      6  C   UNL     1       0.616   6.645  -5.304  0.00  0.00    +0.136 A 
ATOM      7  C   UNL     1       1.784   6.707  -4.552  0.00  0.00    +0.086 A 
ATOM      8  N   UNL     1       2.693   5.734  -4.838  0.00  0.00    -0.325 N 
ATOM      9  O   UNL     1      -0.388   5.623  -7.141  0.00  0.00    -0.286 OA
ATOM     10  C   UNL     1       2.971   5.608  -6.147  0.00  0.00    +0.066 A 
ATOM     11  C   UNL     1       4.222   5.562  -6.697  0.00  0.00    +0.054 A 
ENDROOT
BRANCH   6  12
ATOM     12  C   UNL     1      -0.685   7.006  -4.726  0.00  0.00    +0.392 C 
ATOM     13  O   UNL     1      -0.962   6.444  -3.477  0.00  0.00    -0.240 OA
ATOM     14  O   UNL     1      -1.112   8.190  -4.883  0.00  0.00    -0.240 OA
ENDBRANCH   6  12
BRANCH   1  16
ATOM     15  C   UNL     1       6.211   4.709  -8.371  0.00  0.00    +0.252 C 
ATOM     16  O   UNL     1       5.607   4.873  -8.475  0.00  0.00    -0.472 OA
ENDBRANCH   1  16
BRANCH   2  17
ATOM     17  C   UNL     1       3.590   5.102 -10.318  0.00  0.00    +0.058 C 
BRANCH  17  18
ATOM     18  C   UNL     1       4.525   5.943 -11.029  0.00  0.00    +0.011 A 
ATOM     19  C   UNL     1       5.321   5.539 -12.082  0.00  0.00    +0.147 A 
ATOM     20  F   UNL     1       4.764   4.612 -12.907  0.00  0.00    -0.204 F 
ATOM     21  C   UNL     1       6.444   6.266 -12.435  0.00  0.00    +0.085 A 
ATOM     22 CL   UNL     1       7.654   5.376 -13.338  0.00  0.00    -0.080 Cl
ATOM     23  C   UNL     1       6.640   7.519 -11.924  0.00  0.00    +0.014 A 
ATOM     24  C   UNL     1       5.743   8.014 -10.992  0.00  0.00    +0.001 A 
ATOM     25  C   UNL     1       4.645   7.259 -10.595  0.00  0.00    -0.002 A 
ENDBRANCH  17  18
ENDBRANCH   2  17
BRANCH   8  26
ATOM     26  C   UNL     1       3.977   5.789  -3.907  0.00  0.00    +0.118 C 
BRANCH  26  27
ATOM     27  C   UNL     1       3.926   7.418  -3.656  0.00  0.00    +0.023 C 
ATOM     28  C   UNL     1       5.135   7.987  -4.314  0.00  0.00    +0.002 C 
ATOM     29  C   UNL     1       3.664   7.759  -2.279  0.00  0.00    +0.002 C 
ENDBRANCH  26  27
BRANCH  26  30
ATOM     30  C   UNL     1       3.110   5.461  -2.536  0.00  0.00    +0.204 C 
ATOM     31  O   UNL     1       3.759   4.458  -1.881  0.00  0.00    -0.218 OA
ENDBRANCH  26  30
ENDBRANCH   8  26
TORSDOF 7
ENDMDL
MODEL 8
REMARK VINA RESULT:      -8.0      4.056      7.768
REMARK  Name = 
REMARK  7 active torsions:
REMARK  status: ('A' for Active; 'I' for Inactive)
REMARK    1  A    between atoms: O_2  and  C_3
REMARK    2  A    between atoms: C_8  and  C_9
REMARK    3  A    between atoms: C_9  and  C_10
REMARK    4  A    between atoms: C_20  and  C_21
REMARK    5  A    between atoms: N_25  and  C_26
REMARK    6  A    between atoms: C_26  and  C_27
REMARK    7  A    between atoms: C_26  and  C_29
REMARK                            x       y       z     vdW  Elec       q    Type
REMARK                         _______ _______ _______ _____ _____    ______ ____
ROOT
ATOM      1  C   UNL     1       0.145   5.331  -7.542  0.00  0.00    +0.136 A 
ATOM      2  C   UNL     1       1.261   5.484  -6.720  0.00  0.00    +0.016 A 
ATOM      3  C   UNL     1       2.451   5.129  -7.355  0.00  0.00    +0.004 A 
ATOM      4  C   UNL     1       2.567   5.528  -8.683  0.00  0.00    +0.055 A 
ATOM      5  C   UNL     1       3.786   5.911  -9.229  0.00  0.00    +0.205 A 
ATOM      6  C   UNL     1       3.783   6.436 -10.516  0.00  0.00    +0.136 A 
ATOM      7  C   UNL     1       2.588   6.450 -11.227  0.00  0.00    +0.086 A 
ATOM      8  N   UNL     1       1.690   5.501 -10.844  0.00  0.00    -0.325 N 
ATOM      9  O   UNL     1       4.854   5.535  -8.655  0.00  0.00    -0.286 OA
ATOM     10  C   UNL     1       1.461   5.462  -9.520  0.00  0.00    +0.066 A 
ATOM     11  C   UNL     1       0.231   5.456  -8.923  0.00  0.00    +0.054 A 
ENDROOT
BRANCH   6  12
ATOM     12  C   UNL     1       5.062   6.755 -11.165  0.00  0.00    +0.392 C 
ATOM     13  O   UNL     1       5.212   6.266 -12.466  0.00  0.00    -0.240 OA
ATOM     14  O   UNL     1       5.578   7.896 -10.963  0.00  0.00    -0.240 OA
ENDBRANCH   6  12
BRANCH   1  16
ATOM     15  C   UNL     1      -1.718   4.826  -7.087  0.00  0.00    +0.252 C 
ATOM     16  O   UNL     1      -1.088   4.890  -7.053  0.00  0.00    -0.472 OA
ENDBRANCH   1  16
BRANCH   2  17
ATOM     17  C   UNL     1       0.997   5.235  -5.305  0.00  0.00    +0.058 C 
BRANCH  17  18
ATOM     18  C   UNL     1       0.057   6.098  -4.628  0.00  0.00    +0.011 A 
ATOM     19  C   UNL     1      -0.698   5.748  -3.527  0.00  0.00    +0.147 A 
ATOM     20  F   UNL     1      -0.093   4.897  -2.655  0.00  0.00    -0.204 F 
ATOM     21  C   UNL     1      -1.833   6.465  -3.193  0.00  0.00    +0.085 A 
ATOM     22 CL   UNL     1      -2.991   5.609  -2.196  0.00  0.00    -0.080 Cl
ATOM     23  C   UNL     1      -2.079   7.674  -3.784  0.00  0.00    +0.014 A 
ATOM     24  C   UNL     1      -1.223   8.127  -4.773  0.00  0.00    +0.001 A 
ATOM     25  C   UNL     1      -0.114   7.376  -5.148  0.00  0.00    -0.002 A 
ENDBRANCH  17  18
ENDBRANCH   2  17
BRANCH   8  26
ATOM     26  C   UNL     1       0.373   5.498 -11.729  0.00  0.00    +0.118 C 
BRANCH  26  27
ATOM     27  C   UNL     1       0.413   7.107 -12.086  0.00  0.00    +0.023 C 
ATOM     28  C   UNL     1      -0.817   7.704 -11.495  0.00  0.00    +0.002 C 
ATOM     29  C   UNL     1       0.702   7.360 -13.476  0.00  0.00    +0.002 C 
ENDBRANCH  26  27
BRANCH  26  30
ATOM     30  C   UNL     1       1.188   5.081 -13.107  0.00  0.00    +0.204 C 
ATOM     31  O   UNL     1       0.569   3.983 -13.624  0.00  0.00    -0.218 OA
ENDBRANCH  26  30
ENDBRANCH   8  26
TORSDOF 7
ENDMDL
MODEL 9
REMARK VINA RESULT:      -7.7      2.563      4.714
REMARK  Name = 
REMARK  7 active torsions:
REMARK  status: ('A' for Active; 'I' for Inactive)
REMARK    1  A    between atoms: O_2  and  C_3
REMARK    2  A    between atoms: C_8  and  C_9
REMARK    3  A    between atoms: C_9  and  C_10
REMARK    4  A    between atoms: C_20  and  C_21
REMARK    5  A    between atoms: N_25  and  C_26
REMARK    6  A    between atoms: C_26  and  C_27
REMARK    7  A    between atoms: C_26  and  C_29
REMARK                            x       y       z     vdW  Elec       q    Type
REMARK                         _______ _______ _______ _____ _____    ______ ____
ROOT
ATOM      1  C   UNL     1       4.064   5.310  -7.828  0.00  0.00    +0.136 A 
ATOM      2  C   UNL     1       2.884   5.195  -8.563  0.00  0.00    +0.016 A 
ATOM      3  C   UNL     1       1.833   4.667  -7.813  0.00  0.00    +0.004 A 
ATOM      4  C   UNL     1       1.736   5.126  -6.504  0.00  0.00    +0.055 A 
ATOM      5  C   UNL     1       0.508   5.309  -5.879  0.00  0.00    +0.205 A 
ATOM      6  C   UNL     1       0.502   5.911  -4.627  0.00  0.00    +0.136 A 
ATOM      7  C   UNL     1       1.720   6.198  -4.018  0.00  0.00    +0.086 A 
ATOM      8  N   UNL     1       2.754   5.410  -4.424  0.00  0.00    -0.325 N 
ATOM      9  O   UNL     1      -0.505   4.701  -6.344  0.00  0.00    -0.286 OA
ATOM     10  C   UNL     1       2.892   5.326  -5.758  0.00  0.00    +0.066 A 
ATOM     11  C   UNL     1       4.054   5.510  -6.454  0.00  0.00    +0.054 A 
ENDROOT
BRANCH   6  12
ATOM     12  C   UNL     1      -0.765   6.027  -3.892  0.00  0.00    +0.392 C 
ATOM     13  O   UNL     1      -0.892   5.189  -2.781  0.00  0.00    -0.240 OA
ATOM     14  O   UNL     1      -1.284   7.176  -3.754  0.00  0.00    -0.240 OA
ENDBRANCH   6  12
BRANCH   1  16
ATOM     15  C   UNL     1       5.955   5.087  -8.383  0.00  0.00    +0.252 C 
ATOM     16  O   UNL     1       5.321   5.077  -8.393  0.00  0.00    -0.472 OA
ENDBRANCH   1  16
BRANCH   2  17
ATOM     17  C   UNL     1       3.091   4.905  -9.979  0.00  0.00    +0.058 C 
BRANCH  17  18
ATOM     18  C   UNL     1       2.438   5.755 -10.948  0.00  0.00    +0.011 A 
ATOM     19  C   UNL     1       1.305   6.508 -10.714  0.00  0.00    +0.147 A 
ATOM     20  F   UNL     1       1.197   7.019  -9.458  0.00  0.00    -0.204 F 
ATOM     21  C   UNL     1       0.532   6.964 -11.767  0.00  0.00    +0.085 A 
ATOM     22 CL   UNL     1      -1.124   7.364 -11.358  0.00  0.00    -0.080 Cl
ATOM     23  C   UNL     1       1.009   6.900 -13.047  0.00  0.00    +0.014 A 
ATOM     24  C   UNL     1       2.237   6.303 -13.279  0.00  0.00    +0.001 A 
ATOM     25  C   UNL     1       2.986   5.793 -12.225  0.00  0.00    -0.002 A 
ENDBRANCH  17  18
ENDBRANCH   2  17
BRANCH   8  26
ATOM     26  C   UNL     1       4.106   5.714  -3.652  0.00  0.00    +0.118 C 
BRANCH  26  27
ATOM     27  C   UNL     1       3.857   7.338  -3.520  0.00  0.00    +0.023 C 
ATOM     28  C   UNL     1       4.952   7.999  -4.285  0.00  0.00    +0.002 C 
ATOM     29  C   UNL     1       3.617   7.755  -2.160  0.00  0.00    +0.002 C 
ENDBRANCH  26  27
BRANCH  26  30
ATOM     30  C   UNL     1       3.439   5.402  -2.170  0.00  0.00    +0.204 C 
ATOM     31  O   UNL     1       4.215   4.455  -1.571  0.00  0.00    -0.218 OA
ENDBRANCH  26  30
ENDBRANCH   8  26
TORSDOF 7
ENDMDL
