MODEL 1
REMARK VINA RESULT:      -6.3      0.000      0.000
REMARK  Name = 
REMARK  11 active torsions:
REMARK  status: ('A' for Active; 'I' for Inactive)
REMARK    1  A    between atoms: O_2  and  C_3
REMARK    2  A    between atoms: C_3  and  C_4
REMARK    3  A    between atoms: N_6  and  C_7
REMARK    4  A    between atoms: C_10  and  C_11
REMARK    5  A    between atoms: N_13  and  C_14
REMARK    6  A    between atoms: C_14  and  C_15
REMARK    7  A    between atoms: C_15  and  C_17
REMARK    8  A    between atoms: C_21  and  C_22
REMARK    9  A    between atoms: N_24  and  C_26
REMARK   10  A    between atoms: C_26  and  C_27
REMARK   11  A    between atoms: C_27  and  C_29
REMARK                            x       y       z     vdW  Elec       q    Type
REMARK                         _______ _______ _______ _____ _____    ______ ____
ROOT
ATOM      1  C   UNL     1       0.226   5.436  -4.603  0.00  0.00    +0.084 A 
ATOM      2  C   UNL     1       0.995   5.337  -5.755  0.00  0.00    +0.051 A 
ATOM      3  I   UNL     1       0.001   5.342  -7.572  0.00  0.00    -0.041 I 
ATOM      4  C   UNL     1       2.356   5.512  -5.782  0.00  0.00    +0.066 A 
ATOM      5  C   UNL     1       2.905   6.233  -4.727  0.00  0.00    +0.040 A 
ATOM      6  I   UNL     1       4.752   7.155  -4.868  0.00  0.00    -0.042 I 
ATOM      7  C   UNL     1       2.289   6.162  -3.483  0.00  0.00    +0.067 A 
ATOM      8  C   UNL     1       0.978   5.709  -3.460  0.00  0.00    +0.051 A 
ATOM      9  I   UNL     1       0.113   4.999  -1.658  0.00  0.00    -0.041 I 
ENDROOT
BRANCH   4  10
ATOM     10  C   UNL     1       3.212   5.035  -6.857  0.00  0.00    +0.250 C 
ATOM     11  N   UNL     1       3.875   5.916  -7.778  0.00  0.00    -0.272 N 
ATOM     12  C   UNL     1       3.111   6.878  -8.575  0.00  0.00    +0.115 C 
ATOM     13  O   UNL     1       2.814   3.978  -7.445  0.00  0.00    -0.270 OA
BRANCH  11  14
ATOM     14  C   UNL     1       4.938   5.264  -8.551  0.00  0.00    +0.129 C 
BRANCH  14  15
ATOM     15  C   UNL     1       5.131   6.234  -9.871  0.00  0.00    +0.204 C 
ATOM     16  O   UNL     1       4.848   5.078 -10.815  0.00  0.00    -0.218 OA
BRANCH  15  17
ATOM     17  C   UNL     1       6.755   5.955  -9.907  0.00  0.00    +0.217 C 
ATOM     18  O   UNL     1       7.156   7.146 -10.541  0.00  0.00    -0.218 OA
ENDBRANCH  15  17
ENDBRANCH  14  15
ENDBRANCH  11  14
ENDBRANCH   4  10
BRANCH   7  19
ATOM     19  C   UNL     1       3.080   6.063  -2.248  0.00  0.00    +0.266 C 
ATOM     20  N   UNL     1       3.364   7.111  -1.364  0.00  0.00    -0.199 NA
ATOM     21  O   UNL     1       3.981   5.165  -2.270  0.00  0.00    -0.268 OA
BRANCH  20  22
ATOM     22  C   UNL     1       4.575   7.621  -0.932  0.00  0.00    +0.151 C 
BRANCH  22  23
ATOM     23  C   UNL     1       4.619   7.934   0.679  0.00  0.00    +0.206 C 
ATOM     24  O   UNL     1       4.599   6.451   1.021  0.00  0.00    -0.218 OA
BRANCH  23  25
ATOM     25  C   UNL     1       2.982   8.071   0.868  0.00  0.00    +0.217 C 
ATOM     26  O   UNL     1       2.891   7.496   2.143  0.00  0.00    -0.218 OA
ENDBRANCH  23  25
ENDBRANCH  22  23
ENDBRANCH  20  22
ENDBRANCH   7  19
BRANCH   1  28
ATOM     27  C   UNL     1      -1.142   7.491  -4.164  0.00  0.00    +0.276 C 
ATOM     28  N   UNL     1      -0.995   6.138  -4.513  0.00  0.00    -0.176 NA
ATOM     29  O   UNL     1      -0.727   8.106  -5.184  0.00  0.00    -0.270 OA
BRANCH  27  30
ATOM     30  C   UNL     1      -2.341   7.821  -3.378  0.00  0.00    +0.229 C 
BRANCH  30  32
ATOM     31  C   UNL     1      -3.670   6.465  -2.250  0.00  0.00    +0.175 C 
ATOM     32  O   UNL     1      -3.211   6.746  -3.417  0.00  0.00    -0.342 OA
ENDBRANCH  30  32
ENDBRANCH  27  30
ENDBRANCH   1  28
TORSDOF 11
ENDMDL
MODEL 2
REMARK VINA RESULT:      -5.9      4.347     10.751
REMARK  Name = 
REMARK  11 active torsions:
REMARK  status: ('A' for Active; 'I' for Inactive)
REMARK    1  A    between atoms: O_2  and  C_3
REMARK    2  A    between atoms: C_3  and  C_4
REMARK    3  A    between atoms: N_6  and  C_7
REMARK    4  A    between atoms: C_10  and  C_11
REMARK    5  A    between atoms: N_13  and  C_14
REMARK    6  A    between atoms: C_14  and  C_15
REMARK    7  A    between atoms: C_15  and  C_17
REMARK    8  A    between atoms: C_21  and  C_22
REMARK    9  A    between atoms: N_24  and  C_26
REMARK   10  A    between atoms: C_26  and  C_27
REMARK   11  A    between atoms: C_27  and  C_29
REMARK                            x       y       z     vdW  Elec       q    Type
REMARK                         _______ _______ _______ _____ _____    ______ ____
ROOT
ATOM      1  C   UNL     1       4.555   5.400 -10.601  0.00  0.00    +0.084 A 
ATOM      2  C   UNL     1       3.753   5.291  -9.472  0.00  0.00    +0.051 A 
ATOM      3  I   UNL     1       4.685   5.381  -7.624  0.00  0.00    -0.041 I 
ATOM      4  C   UNL     1       2.385   5.403  -9.493  0.00  0.00    +0.066 A 
ATOM      5  C   UNL     1       1.839   6.074 -10.581  0.00  0.00    +0.040 A 
ATOM      6  I   UNL     1      -0.051   6.914 -10.522  0.00  0.00    -0.042 I 
ATOM      7  C   UNL     1       2.499   6.005 -11.803  0.00  0.00    +0.067 A 
ATOM      8  C   UNL     1       3.829   5.612 -11.774  0.00  0.00    +0.051 A 
ATOM      9  I   UNL     1       4.785   4.903 -13.529  0.00  0.00    -0.041 I 
ENDROOT
BRANCH   4  10
ATOM     10  C   UNL     1       1.516   4.911  -8.435  0.00  0.00    +0.250 C 
ATOM     11  N   UNL     1       0.823   5.780  -7.526  0.00  0.00    -0.272 N 
ATOM     12  C   UNL     1       1.557   6.752  -6.713  0.00  0.00    +0.115 C 
ATOM     13  O   UNL     1       1.920   3.859  -7.841  0.00  0.00    -0.270 OA
BRANCH  11  14
ATOM     14  C   UNL     1      -0.245   5.110  -6.773  0.00  0.00    +0.129 C 
BRANCH  14  15
ATOM     15  C   UNL     1      -0.851   6.291  -5.794  0.00  0.00    +0.204 C 
ATOM     16  O   UNL     1      -0.837   5.361  -4.593  0.00  0.00    -0.218 OA
BRANCH  15  17
ATOM     17  C   UNL     1      -2.403   5.885  -6.176  0.00  0.00    +0.217 C 
ATOM     18  O   UNL     1      -2.784   5.335  -4.938  0.00  0.00    -0.218 OA
ENDBRANCH  15  17
ENDBRANCH  14  15
ENDBRANCH  11  14
ENDBRANCH   4  10
BRANCH   7  19
ATOM     19  C   UNL     1       1.755   5.842 -13.061  0.00  0.00    +0.266 C 
ATOM     20  N   UNL     1       1.418   6.863 -13.958  0.00  0.00    -0.199 NA
ATOM     21  O   UNL     1       0.924   4.878 -13.060  0.00  0.00    -0.268 OA
BRANCH  20  22
ATOM     22  C   UNL     1       0.185   7.278 -14.428  0.00  0.00    +0.151 C 
BRANCH  22  23
ATOM     23  C   UNL     1       0.234   7.887 -15.951  0.00  0.00    +0.206 C 
ATOM     24  O   UNL     1       0.148   6.498 -16.566  0.00  0.00    -0.218 OA
BRANCH  23  25
ATOM     25  C   UNL     1       1.883   7.914 -16.068  0.00  0.00    +0.217 C 
ATOM     26  O   UNL     1       1.982   7.543 -17.416  0.00  0.00    -0.218 OA
ENDBRANCH  23  25
ENDBRANCH  22  23
ENDBRANCH  20  22
ENDBRANCH   7  19
BRANCH   1  28
ATOM     27  C   UNL     1       5.941   7.314 -11.438  0.00  0.00    +0.276 C 
ATOM     28  N   UNL     1       5.744   6.155 -10.668  0.00  0.00    -0.176 NA
ATOM     29  O   UNL     1       5.278   8.193 -10.825  0.00  0.00    -0.270 OA
BRANCH  27  30
ATOM     30  C   UNL     1       7.287   7.481 -12.008  0.00  0.00    +0.229 C 
BRANCH  30  32
ATOM     31  C   UNL     1       8.733   5.894 -12.530  0.00  0.00    +0.175 C 
ATOM     32  O   UNL     1       8.093   6.448 -11.562  0.00  0.00    -0.342 OA
ENDBRANCH  30  32
ENDBRANCH  27  30
ENDBRANCH   1  28
TORSDOF 11
ENDMDL
MODEL 3
REMARK VINA RESULT:      -5.1      3.624      9.347
REMARK  Name = 
REMARK  11 active torsions:
REMARK  status: ('A' for Active; 'I' for Inactive)
REMARK    1  A    between atoms: O_2  and  C_3
REMARK    2  A    between atoms: C_3  and  C_4
REMARK    3  A    between atoms: N_6  and  C_7
REMARK    4  A    between atoms: C_10  and  C_11
REMARK    5  A    between atoms: N_13  and  C_14
REMARK    6  A    between atoms: C_14  and  C_15
REMARK    7  A    between atoms: C_15  and  C_17
REMARK    8  A    between atoms: C_21  and  C_22
REMARK    9  A    between atoms: N_24  and  C_26
REMARK   10  A    between atoms: C_26  and  C_27
REMARK   11  A    between atoms: C_27  and  C_29
REMARK                            x       y       z     vdW  Elec       q    Type
REMARK                         _______ _______ _______ _____ _____    ______ ____
ROOT
ATOM      1  C   UNL     1       3.157   6.752  -0.352  0.00  0.00    +0.084 A 
ATOM      2  C   UNL     1       2.434   7.360   0.667  0.00  0.00    +0.051 A 
ATOM      3  I   UNL     1       3.447   8.681   1.900  0.00  0.00    -0.041 I 
ATOM      4  C   UNL     1       1.064   7.357   0.738  0.00  0.00    +0.066 A 
ATOM      5  C   UNL     1       0.386   7.128  -0.454  0.00  0.00    +0.040 A 
ATOM      6  I   UNL     1      -1.584   7.700  -0.727  0.00  0.00    -0.042 I 
ATOM      7  C   UNL     1       0.983   6.317  -1.412  0.00  0.00    +0.067 A 
ATOM      8  C   UNL     1       2.349   6.111  -1.292  0.00  0.00    +0.051 A 
ATOM      9  I   UNL     1       3.287   4.484  -2.279  0.00  0.00    -0.041 I 
ENDROOT
BRANCH   4  10
ATOM     10  C   UNL     1       0.316   7.625   1.958  0.00  0.00    +0.250 C 
ATOM     11  N   UNL     1      -0.395   8.852   2.184  0.00  0.00    -0.272 N 
ATOM     12  C   UNL     1       0.296  10.141   2.114  0.00  0.00    +0.115 C 
ATOM     13  O   UNL     1       0.855   7.206   3.032  0.00  0.00    -0.270 OA
BRANCH  11  14
ATOM     14  C   UNL     1      -1.343   8.782   3.302  0.00  0.00    +0.129 C 
BRANCH  14  15
ATOM     15  C   UNL     1      -2.759   9.344   2.668  0.00  0.00    +0.204 C 
ATOM     16  O   UNL     1      -2.871  10.404   3.750  0.00  0.00    -0.218 OA
BRANCH  15  17
ATOM     17  C   UNL     1      -3.642   8.260   3.541  0.00  0.00    +0.217 C 
ATOM     18  O   UNL     1      -3.314   7.097   2.821  0.00  0.00    -0.218 OA
ENDBRANCH  15  17
ENDBRANCH  14  15
ENDBRANCH  11  14
ENDBRANCH   4  10
BRANCH   7  19
ATOM     19  C   UNL     1       0.197   5.335  -2.173  0.00  0.00    +0.266 C 
ATOM     20  N   UNL     1      -0.134   5.418  -3.532  0.00  0.00    -0.199 NA
ATOM     21  O   UNL     1      -0.662   4.700  -1.484  0.00  0.00    -0.268 OA
BRANCH  20  22
ATOM     22  C   UNL     1      -1.367   5.425  -4.159  0.00  0.00    +0.151 C 
BRANCH  22  23
ATOM     23  C   UNL     1      -1.405   6.339  -5.522  0.00  0.00    +0.206 C 
ATOM     24  O   UNL     1      -0.251   7.203  -5.038  0.00  0.00    -0.218 OA
BRANCH  23  25
ATOM     25  C   UNL     1      -2.534   7.414  -4.971  0.00  0.00    +0.217 C 
ATOM     26  O   UNL     1      -1.655   8.448  -4.622  0.00  0.00    -0.218 OA
ENDBRANCH  23  25
ENDBRANCH  22  23
ENDBRANCH  20  22
ENDBRANCH   7  19
BRANCH   1  28
ATOM     27  C   UNL     1       4.172   8.066  -2.230  0.00  0.00    +0.276 C 
ATOM     28  N   UNL     1       4.245   7.345  -1.026  0.00  0.00    -0.176 NA
ATOM     29  O   UNL     1       3.636   9.156  -1.891  0.00  0.00    -0.270 OA
BRANCH  27  30
ATOM     30  C   UNL     1       5.318   7.908  -3.139  0.00  0.00    +0.229 C 
BRANCH  30  32
ATOM     31  C   UNL     1       4.167   7.264  -4.911  0.00  0.00    +0.175 C 
ATOM     32  O   UNL     1       4.909   8.197  -4.429  0.00  0.00    -0.342 OA
ENDBRANCH  30  32
ENDBRANCH  27  30
ENDBRANCH   1  28
TORSDOF 11
ENDMDL
MODEL 4
REMARK VINA RESULT:      -5.0      4.366      8.585
REMARK  Name = 
REMARK  11 active torsions:
REMARK  status: ('A' for Active; 'I' for Inactive)
REMARK    1  A    between atoms: O_2  and  C_3
REMARK    2  A    between atoms: C_3  and  C_4
REMARK    3  A    between atoms: N_6  and  C_7
REMARK    4  A    between atoms: C_10  and  C_11
REMARK    5  A    between atoms: N_13  and  C_14
REMARK    6  A    between atoms: C_14  and  C_15
REMARK    7  A    between atoms: C_15  and  C_17
REMARK    8  A    between atoms: C_21  and  C_22
REMARK    9  A    between atoms: N_24  and  C_26
REMARK   10  A    between atoms: C_26  and  C_27
REMARK   11  A    between atoms: C_27  and  C_29
REMARK                            x       y       z     vdW  Elec       q    Type
REMARK                         _______ _______ _______ _____ _____    ______ ____
ROOT
ATOM      1  C   UNL     1       4.325   5.878 -10.781  0.00  0.00    +0.084 A 
ATOM      2  C   UNL     1       3.549   6.001 -11.927  0.00  0.00    +0.051 A 
ATOM      3  I   UNL     1       4.539   6.159 -13.739  0.00  0.00    -0.041 I 
ATOM      4  C   UNL     1       2.200   5.751 -11.966  0.00  0.00    +0.066 A 
ATOM      5  C   UNL     1       1.694   4.940 -10.957  0.00  0.00    +0.040 A 
ATOM      6  I   UNL     1      -0.097   3.924 -11.154  0.00  0.00    -0.042 I 
ATOM      7  C   UNL     1       2.308   4.971  -9.709  0.00  0.00    +0.067 A 
ATOM      8  C   UNL     1       3.590   5.496  -9.657  0.00  0.00    +0.051 A 
ATOM      9  I   UNL     1       4.418   6.147  -7.815  0.00  0.00    -0.041 I 
ENDROOT
BRANCH   4  10
ATOM     10  C   UNL     1       1.316   6.241 -13.013  0.00  0.00    +0.250 C 
ATOM     11  N   UNL     1       0.542   7.444 -12.883  0.00  0.00    -0.272 N 
ATOM     12  C   UNL     1      -0.393   7.614 -11.769  0.00  0.00    +0.115 C 
ATOM     13  O   UNL     1       0.665   5.346 -13.642  0.00  0.00    -0.270 OA
BRANCH  11  14
ATOM     14  C   UNL     1      -0.004   7.931 -14.155  0.00  0.00    +0.129 C 
BRANCH  14  15
ATOM     15  C   UNL     1       1.322   8.436 -14.997  0.00  0.00    +0.204 C 
ATOM     16  O   UNL     1       0.895   9.889 -14.878  0.00  0.00    -0.218 OA
BRANCH  15  17
ATOM     17  C   UNL     1       0.543   8.254 -16.438  0.00  0.00    +0.217 C 
ATOM     18  O   UNL     1       0.705   6.864 -16.587  0.00  0.00    -0.218 OA
ENDBRANCH  15  17
ENDBRANCH  14  15
ENDBRANCH  11  14
ENDBRANCH   4  10
BRANCH   7  19
ATOM     19  C   UNL     1       1.515   4.953  -8.472  0.00  0.00    +0.266 C 
ATOM     20  N   UNL     1       0.765   6.018  -7.956  0.00  0.00    -0.199 NA
ATOM     21  O   UNL     1       1.958   4.169  -7.573  0.00  0.00    -0.268 OA
BRANCH  20  22
ATOM     22  C   UNL     1       0.839   6.664  -6.736  0.00  0.00    +0.151 C 
BRANCH  22  23
ATOM     23  C   UNL     1      -0.030   5.931  -5.552  0.00  0.00    +0.206 C 
ATOM     24  O   UNL     1      -1.236   5.767  -6.465  0.00  0.00    -0.218 OA
BRANCH  23  25
ATOM     25  C   UNL     1      -0.629   7.326  -4.895  0.00  0.00    +0.217 C 
ATOM     26  O   UNL     1      -1.955   7.182  -5.325  0.00  0.00    -0.218 OA
ENDBRANCH  23  25
ENDBRANCH  22  23
ENDBRANCH  20  22
ENDBRANCH   7  19
BRANCH   1  28
ATOM     27  C   UNL     1       6.814   5.828 -11.070  0.00  0.00    +0.276 C 
ATOM     28  N   UNL     1       5.583   5.243 -10.730  0.00  0.00    -0.176 NA
ATOM     29  O   UNL     1       7.042   6.616 -10.112  0.00  0.00    -0.270 OA
BRANCH  27  30
ATOM     30  C   UNL     1       7.791   4.934 -11.711  0.00  0.00    +0.229 C 
BRANCH  30  32
ATOM     31  C   UNL     1       9.649   5.961 -12.322  0.00  0.00    +0.175 C 
ATOM     32  O   UNL     1       8.462   5.637 -12.696  0.00  0.00    -0.342 OA
ENDBRANCH  30  32
ENDBRANCH  27  30
ENDBRANCH   1  28
TORSDOF 11
ENDMDL
MODEL 5
REMARK VINA RESULT:      -4.7      3.383      6.797
REMARK  Name = 
REMARK  11 active torsions:
REMARK  status: ('A' for Active; 'I' for Inactive)
REMARK    1  A    between atoms: O_2  and  C_3
REMARK    2  A    between atoms: C_3  and  C_4
REMARK    3  A    between atoms: N_6  and  C_7
REMARK    4  A    between atoms: C_10  and  C_11
REMARK    5  A    between atoms: N_13  and  C_14
REMARK    6  A    between atoms: C_14  and  C_15
REMARK    7  A    between atoms: C_15  and  C_17
REMARK    8  A    between atoms: C_21  and  C_22
REMARK    9  A    between atoms: N_24  and  C_26
REMARK   10  A    between atoms: C_26  and  C_27
REMARK   11  A    between atoms: C_27  and  C_29
REMARK                            x       y       z     vdW  Elec       q    Type
REMARK                         _______ _______ _______ _____ _____    ______ ____
ROOT
ATOM      1  C   UNL     1       2.000   5.411  -6.826  0.00  0.00    +0.084 A 
ATOM      2  C   UNL     1       1.290   5.240  -8.008  0.00  0.00    +0.051 A 
ATOM      3  I   UNL     1      -0.766   5.476  -7.930  0.00  0.00    -0.041 I 
ATOM      4  C   UNL     1       1.873   5.201  -9.250  0.00  0.00    +0.066 A 
ATOM      5  C   UNL     1       3.132   5.782  -9.358  0.00  0.00    +0.040 A 
ATOM      6  I   UNL     1       3.902   6.409 -11.173  0.00  0.00    -0.042 I 
ATOM      7  C   UNL     1       3.972   5.757  -8.250  0.00  0.00    +0.067 A 
ATOM      8  C   UNL     1       3.378   5.514  -7.021  0.00  0.00    +0.051 A 
ATOM      9  I   UNL     1       4.542   4.874  -5.367  0.00  0.00    -0.041 I 
ENDROOT
BRANCH   4  10
ATOM     10  C   UNL     1       1.230   4.641 -10.428  0.00  0.00    +0.250 C 
ATOM     11  N   UNL     1       0.815   5.441 -11.546  0.00  0.00    -0.272 N 
ATOM     12  C   UNL     1      -0.105   6.566 -11.361  0.00  0.00    +0.115 C 
ATOM     13  O   UNL     1       0.396   3.706 -10.203  0.00  0.00    -0.270 OA
BRANCH  11  14
ATOM     14  C   UNL     1       0.507   4.655 -12.747  0.00  0.00    +0.129 C 
BRANCH  14  15
ATOM     15  C   UNL     1       1.021   5.606 -13.994  0.00  0.00    +0.204 C 
ATOM     16  O   UNL     1       0.307   4.732 -15.010  0.00  0.00    -0.218 OA
BRANCH  15  17
ATOM     17  C   UNL     1       2.423   4.750 -14.141  0.00  0.00    +0.217 C 
ATOM     18  O   UNL     1       3.183   5.713 -14.829  0.00  0.00    -0.218 OA
ENDBRANCH  15  17
ENDBRANCH  14  15
ENDBRANCH  11  14
ENDBRANCH   4  10
BRANCH   7  19
ATOM     19  C   UNL     1       5.409   5.484  -8.393  0.00  0.00    +0.266 C 
ATOM     20  N   UNL     1       6.296   6.154  -9.245  0.00  0.00    -0.199 NA
ATOM     21  O   UNL     1       5.740   4.275  -8.172  0.00  0.00    -0.268 OA
BRANCH  20  22
ATOM     22  C   UNL     1       7.106   5.675 -10.259  0.00  0.00    +0.151 C 
BRANCH  22  23
ATOM     23  C   UNL     1       8.156   6.793 -10.844  0.00  0.00    +0.206 C 
ATOM     24  O   UNL     1       7.125   7.322 -11.830  0.00  0.00    -0.218 OA
BRANCH  23  25
ATOM     25  C   UNL     1       8.839   5.805 -11.979  0.00  0.00    +0.217 C 
ATOM     26  O   UNL     1       7.814   4.851 -12.040  0.00  0.00    -0.218 OA
ENDBRANCH  23  25
ENDBRANCH  22  23
ENDBRANCH  20  22
ENDBRANCH   7  19
BRANCH   1  28
ATOM     27  C   UNL     1       0.661   6.034  -4.800  0.00  0.00    +0.276 C 
ATOM     28  N   UNL     1       1.628   6.290  -5.788  0.00  0.00    -0.176 NA
ATOM     29  O   UNL     1       1.224   5.194  -4.046  0.00  0.00    -0.270 OA
BRANCH  27  30
ATOM     30  C   UNL     1      -0.132   7.195  -4.368  0.00  0.00    +0.229 C 
BRANCH  30  32
ATOM     31  C   UNL     1      -2.241   7.750  -4.723  0.00  0.00    +0.175 C 
ATOM     32  O   UNL     1      -1.463   6.823  -4.288  0.00  0.00    -0.342 OA
ENDBRANCH  30  32
ENDBRANCH  27  30
ENDBRANCH   1  28
TORSDOF 11
ENDMDL
MODEL 6
REMARK VINA RESULT:      -4.6      2.579      6.756
REMARK  Name = 
REMARK  11 active torsions:
REMARK  status: ('A' for Active; 'I' for Inactive)
REMARK    1  A    between atoms: O_2  and  C_3
REMARK    2  A    between atoms: C_3  and  C_4
REMARK    3  A    between atoms: N_6  and  C_7
REMARK    4  A    between atoms: C_10  and  C_11
REMARK    5  A    between atoms: N_13  and  C_14
REMARK    6  A    between atoms: C_14  and  C_15
REMARK    7  A    between atoms: C_15  and  C_17
REMARK    8  A    between atoms: C_21  and  C_22
REMARK    9  A    between atoms: N_24  and  C_26
REMARK   10  A    between atoms: C_26  and  C_27
REMARK   11  A    between atoms: C_27  and  C_29
REMARK                            x       y       z     vdW  Elec       q    Type
REMARK                         _______ _______ _______ _____ _____    ______ ____
ROOT
ATOM      1  C   UNL     1       0.996   6.132  -5.975  0.00  0.00    +0.084 A 
ATOM      2  C   UNL     1      -0.076   6.353  -5.118  0.00  0.00    +0.051 A 
ATOM      3  I   UNL     1      -1.974   6.381  -5.948  0.00  0.00    -0.041 I 
ATOM      4  C   UNL     1       0.013   6.280  -3.751  0.00  0.00    +0.066 A 
ATOM      5  C   UNL     1       1.075   5.542  -3.241  0.00  0.00    +0.040 A 
ATOM      6  I   UNL     1       1.056   4.765  -1.323  0.00  0.00    -0.042 I 
ATOM      7  C   UNL     1       2.260   5.495  -3.967  0.00  0.00    +0.067 A 
ATOM      8  C   UNL     1       2.187   5.850  -5.306  0.00  0.00    +0.051 A 
ATOM      9  I   UNL     1       3.936   6.390  -6.377  0.00  0.00    -0.041 I 
ENDROOT
BRANCH   4  10
ATOM     10  C   UNL     1      -0.955   6.880  -2.844  0.00  0.00    +0.250 C 
ATOM     11  N   UNL     1      -1.860   6.104  -2.043  0.00  0.00    -0.272 N 
ATOM     12  C   UNL     1      -2.773   5.143  -2.665  0.00  0.00    +0.115 C 
ATOM     13  O   UNL     1      -1.516   7.940  -3.268  0.00  0.00    -0.270 OA
BRANCH  11  14
ATOM     14  C   UNL     1      -2.499   6.873  -0.969  0.00  0.00    +0.129 C 
BRANCH  14  15
ATOM     15  C   UNL     1      -1.298   7.095   0.140  0.00  0.00    +0.204 C 
ATOM     16  O   UNL     1      -1.998   6.192   1.140  0.00  0.00    -0.218 OA
BRANCH  15  17
ATOM     17  C   UNL     1      -2.029   8.445   0.742  0.00  0.00    +0.217 C 
ATOM     18  O   UNL     1      -0.919   9.309   0.716  0.00  0.00    -0.218 OA
ENDBRANCH  15  17
ENDBRANCH  14  15
ENDBRANCH  11  14
ENDBRANCH   4  10
BRANCH   7  19
ATOM     19  C   UNL     1       3.565   5.580  -3.296  0.00  0.00    +0.266 C 
ATOM     20  N   UNL     1       3.824   6.205  -2.070  0.00  0.00    -0.199 NA
ATOM     21  O   UNL     1       4.563   5.589  -4.085  0.00  0.00    -0.268 OA
BRANCH  20  22
ATOM     22  C   UNL     1       4.694   7.230  -1.747  0.00  0.00    +0.151 C 
BRANCH  22  23
ATOM     23  C   UNL     1       4.772   7.543  -0.137  0.00  0.00    +0.206 C 
ATOM     24  O   UNL     1       4.404   6.109   0.213  0.00  0.00    -0.218 OA
BRANCH  23  25
ATOM     25  C   UNL     1       3.207   8.055   0.010  0.00  0.00    +0.217 C 
ATOM     26  O   UNL     1       2.841   7.238   1.088  0.00  0.00    -0.218 OA
ENDBRANCH  23  25
ENDBRANCH  22  23
ENDBRANCH  20  22
ENDBRANCH   7  19
BRANCH   1  28
ATOM     27  C   UNL     1       0.608   5.794  -8.428  0.00  0.00    +0.276 C 
ATOM     28  N   UNL     1       0.938   5.339  -7.140  0.00  0.00    -0.176 NA
ATOM     29  O   UNL     1       1.626   6.448  -8.781  0.00  0.00    -0.270 OA
BRANCH  27  30
ATOM     30  C   UNL     1      -0.151   4.849  -9.264  0.00  0.00    +0.229 C 
BRANCH  30  32
ATOM     31  C   UNL     1       0.067   4.812 -11.461  0.00  0.00    +0.175 C 
ATOM     32  O   UNL     1       0.627   4.489 -10.350  0.00  0.00    -0.342 OA
ENDBRANCH  30  32
ENDBRANCH  27  30
ENDBRANCH   1  28
TORSDOF 11
ENDMDL
MODEL 7
REMARK VINA RESULT:      -4.5      2.082      7.417
REMARK  Name = 
REMARK  11 active torsions:
REMARK  status: ('A' for Active; 'I' for Inactive)
REMARK    1  A    between atoms: O_2  and  C_3
REMARK    2  A    between atoms: C_3  and  C_4
REMARK    3  A    between atoms: N_6  and  C_7
REMARK    4  A    between atoms: C_10  and  C_11
REMARK    5  A    between atoms: N_13  and  C_14
REMARK    6  A    between atoms: C_14  and  C_15
REMARK    7  A    between atoms: C_15  and  C_17
REMARK    8  A    between atoms: C_21  and  C_22
REMARK    9  A    between atoms: N_24  and  C_26
REMARK   10  A    between atoms: C_26  and  C_27
REMARK   11  A    between atoms: C_27  and  C_29
REMARK                            x       y       z     vdW  Elec       q    Type
REMARK                         _______ _______ _______ _____ _____    ______ ____
ROOT
ATOM      1  C   UNL     1       2.533   5.647  -8.304  0.00  0.00    +0.084 A 
ATOM      2  C   UNL     1       3.266   5.434  -7.143  0.00  0.00    +0.051 A 
ATOM      3  I   UNL     1       5.326   5.605  -7.268  0.00  0.00    -0.041 I 
ATOM      4  C   UNL     1       2.713   5.392  -5.888  0.00  0.00    +0.066 A 
ATOM      5  C   UNL     1       1.477   6.011  -5.738  0.00  0.00    +0.040 A 
ATOM      6  I   UNL     1       0.772   6.632  -3.895  0.00  0.00    -0.042 I 
ATOM      7  C   UNL     1       0.609   6.032  -6.825  0.00  0.00    +0.067 A 
ATOM      8  C   UNL     1       1.164   5.791  -8.073  0.00  0.00    +0.051 A 
ATOM      9  I   UNL     1      -0.059   5.216  -9.707  0.00  0.00    -0.041 I 
ENDROOT
BRANCH   4  10
ATOM     10  C   UNL     1       3.367   4.792  -4.735  0.00  0.00    +0.250 C 
ATOM     11  N   UNL     1       3.927   5.566  -3.663  0.00  0.00    -0.272 N 
ATOM     12  C   UNL     1       4.943   6.587  -3.931  0.00  0.00    +0.115 C 
ATOM     13  O   UNL     1       4.086   3.772  -4.984  0.00  0.00    -0.270 OA
BRANCH  11  14
ATOM     14  C   UNL     1       4.226   4.777  -2.463  0.00  0.00    +0.129 C 
BRANCH  14  15
ATOM     15  C   UNL     1       3.647   5.696  -1.221  0.00  0.00    +0.204 C 
ATOM     16  O   UNL     1       4.551   4.992  -0.224  0.00  0.00    -0.218 OA
BRANCH  15  17
ATOM     17  C   UNL     1       2.409   4.642  -0.947  0.00  0.00    +0.217 C 
ATOM     18  O   UNL     1       1.524   5.525  -0.301  0.00  0.00    -0.218 OA
ENDBRANCH  15  17
ENDBRANCH  14  15
ENDBRANCH  11  14
ENDBRANCH   4  10
BRANCH   7  19
ATOM     19  C   UNL     1      -0.832   5.802  -6.651  0.00  0.00    +0.266 C 
ATOM     20  N   UNL     1      -1.634   6.328  -5.630  0.00  0.00    -0.199 NA
ATOM     21  O   UNL     1      -1.243   4.679  -7.085  0.00  0.00    -0.268 OA
BRANCH  20  22
ATOM     22  C   UNL     1      -2.418   5.694  -4.683  0.00  0.00    +0.151 C 
BRANCH  22  23
ATOM     23  C   UNL     1      -3.335   6.724  -3.793  0.00  0.00    +0.206 C 
ATOM     24  O   UNL     1      -2.248   7.788  -3.807  0.00  0.00    -0.218 OA
BRANCH  23  25
ATOM     25  C   UNL     1      -2.851   6.149  -2.320  0.00  0.00    +0.217 C 
ATOM     26  O   UNL     1      -2.787   4.791  -2.659  0.00  0.00    -0.218 OA
ENDBRANCH  23  25
ENDBRANCH  22  23
ENDBRANCH  20  22
ENDBRANCH   7  19
BRANCH   1  28
ATOM     27  C   UNL     1       3.888   6.287 -10.313  0.00  0.00    +0.276 C 
ATOM     28  N   UNL     1       2.908   6.531  -9.336  0.00  0.00    -0.176 NA
ATOM     29  O   UNL     1       3.343   5.442 -11.074  0.00  0.00    -0.270 OA
BRANCH  27  30
ATOM     30  C   UNL     1       4.675   7.456 -10.735  0.00  0.00    +0.229 C 
BRANCH  30  32
ATOM     31  C   UNL     1       6.714   8.042 -11.349  0.00  0.00    +0.175 C 
ATOM     32  O   UNL     1       5.974   7.054 -10.991  0.00  0.00    -0.342 OA
ENDBRANCH  30  32
ENDBRANCH  27  30
ENDBRANCH   1  28
TORSDOF 11
ENDMDL
MODEL 8
REMARK VINA RESULT:      -4.5      3.276      7.607
REMARK  Name = 
REMARK  11 active torsions:
REMARK  status: ('A' for Active; 'I' for Inactive)
REMARK    1  A    between atoms: O_2  and  C_3
REMARK    2  A    between atoms: C_3  and  C_4
REMARK    3  A    between atoms: N_6  and  C_7
REMARK    4  A    between atoms: C_10  and  C_11
REMARK    5  A    between atoms: N_13  and  C_14
REMARK    6  A    between atoms: C_14  and  C_15
REMARK    7  A    between atoms: C_15  and  C_17
REMARK    8  A    between atoms: C_21  and  C_22
REMARK    9  A    between atoms: N_24  and  C_26
REMARK   10  A    between atoms: C_26  and  C_27
REMARK   11  A    between atoms: C_27  and  C_29
REMARK                            x       y       z     vdW  Elec       q    Type
REMARK                         _______ _______ _______ _____ _____    ______ ____
ROOT
ATOM      1  C   UNL     1       1.906   8.376   1.629  0.00  0.00    +0.084 A 
ATOM      2  C   UNL     1       0.698   7.962   1.083  0.00  0.00    +0.051 A 
ATOM      3  I   UNL     1      -1.019   8.934   1.713  0.00  0.00    -0.041 I 
ATOM      4  C   UNL     1       0.596   7.159  -0.025  0.00  0.00    +0.066 A 
ATOM      5  C   UNL     1       1.702   7.129  -0.867  0.00  0.00    +0.040 A 
ATOM      6  I   UNL     1       1.563   6.544  -2.847  0.00  0.00    -0.042 I 
ATOM      7  C   UNL     1       2.965   7.303  -0.311  0.00  0.00    +0.067 A 
ATOM      8  C   UNL     1       3.018   7.873   0.952  0.00  0.00    +0.051 A 
ATOM      9  I   UNL     1       4.753   7.674   2.155  0.00  0.00    -0.041 I 
ENDROOT
BRANCH   4  10
ATOM     10  C   UNL     1      -0.599   6.404  -0.371  0.00  0.00    +0.250 C 
ATOM     11  N   UNL     1      -1.398   6.693  -1.529  0.00  0.00    -0.272 N 
ATOM     12  C   UNL     1      -1.967   8.027  -1.732  0.00  0.00    +0.115 C 
ATOM     13  O   UNL     1      -1.331   6.059   0.612  0.00  0.00    -0.270 OA
BRANCH  11  14
ATOM     14  C   UNL     1      -2.339   5.622  -1.874  0.00  0.00    +0.129 C 
BRANCH  14  15
ATOM     15  C   UNL     1      -3.001   6.110  -3.304  0.00  0.00    +0.204 C 
ATOM     16  O   UNL     1      -3.680   4.765  -3.497  0.00  0.00    -0.218 OA
BRANCH  15  17
ATOM     17  C   UNL     1      -1.666   5.633  -4.146  0.00  0.00    +0.217 C 
ATOM     18  O   UNL     1      -1.602   6.705  -5.056  0.00  0.00    -0.218 OA
ENDBRANCH  15  17
ENDBRANCH  14  15
ENDBRANCH  11  14
ENDBRANCH   4  10
BRANCH   7  19
ATOM     19  C   UNL     1       4.109   6.495  -0.756  0.00  0.00    +0.266 C 
ATOM     20  N   UNL     1       4.955   6.786  -1.834  0.00  0.00    -0.199 NA
ATOM     21  O   UNL     1       3.994   5.248  -0.529  0.00  0.00    -0.268 OA
BRANCH  20  22
ATOM     22  C   UNL     1       5.254   6.052  -2.968  0.00  0.00    +0.151 C 
BRANCH  22  23
ATOM     23  C   UNL     1       5.694   6.976  -4.251  0.00  0.00    +0.206 C 
ATOM     24  O   UNL     1       4.750   8.095  -3.836  0.00  0.00    -0.218 OA
BRANCH  23  25
ATOM     25  C   UNL     1       4.591   6.338  -5.303  0.00  0.00    +0.217 C 
ATOM     26  O   UNL     1       3.881   7.517  -5.569  0.00  0.00    -0.218 OA
ENDBRANCH  23  25
ENDBRANCH  22  23
ENDBRANCH  20  22
ENDBRANCH   7  19
BRANCH   1  28
ATOM     27  C   UNL     1       2.897  10.654   1.291  0.00  0.00    +0.276 C 
ATOM     28  N   UNL     1       2.190   9.696   2.037  0.00  0.00    -0.176 NA
ATOM     29  O   UNL     1       2.084  10.982   0.385  0.00  0.00    -0.270 OA
BRANCH  27  30
ATOM     30  C   UNL     1       3.748  11.568   2.069  0.00  0.00    +0.229 C 
BRANCH  30  32
ATOM     31  C   UNL     1       5.149  12.607   0.713  0.00  0.00    +0.175 C 
ATOM     32  O   UNL     1       5.009  11.599   1.499  0.00  0.00    -0.342 OA
ENDBRANCH  30  32
ENDBRANCH  27  30
ENDBRANCH   1  28
TORSDOF 11
ENDMDL
MODEL 9
REMARK VINA RESULT:      -4.4      4.770      8.263
REMARK  Name = 
REMARK  11 active torsions:
REMARK  status: ('A' for Active; 'I' for Inactive)
REMARK    1  A    between atoms: O_2  and  C_3
REMARK    2  A    between atoms: C_3  and  C_4
REMARK    3  A    between atoms: N_6  and  C_7
REMARK    4  A    between atoms: C_10  and  C_11
REMARK    5  A    between atoms: N_13  and  C_14
REMARK    6  A    between atoms: C_14  and  C_15
REMARK    7  A    between atoms: C_15  and  C_17
REMARK    8  A    between atoms: C_21  and  C_22
REMARK    9  A    between atoms: N_24  and  C_26
REMARK   10  A    between atoms: C_26  and  C_27
REMARK   11  A    between atoms: C_27  and  C_29
REMARK                            x       y       z     vdW  Elec       q    Type
REMARK                         _______ _______ _______ _____ _____    ______ ____
ROOT
ATOM      1  C   UNL     1       1.540   6.152 -13.538  0.00  0.00    +0.084 A 
ATOM      2  C   UNL     1       2.921   6.065 -13.659  0.00  0.00    +0.051 A 
ATOM      3  I   UNL     1       3.773   6.765 -15.413  0.00  0.00    -0.041 I 
ATOM      4  C   UNL     1       3.766   5.808 -12.608  0.00  0.00    +0.066 A 
ATOM      5  C   UNL     1       3.269   6.081 -11.339  0.00  0.00    +0.040 A 
ATOM      6  I   UNL     1       4.511   6.390  -9.713  0.00  0.00    -0.042 I 
ATOM      7  C   UNL     1       1.903   5.944 -11.117  0.00  0.00    +0.067 A 
ATOM      8  C   UNL     1       1.086   5.927 -12.237  0.00  0.00    +0.051 A 
ATOM      9  I   UNL     1      -0.887   5.156 -12.125  0.00  0.00    -0.041 I 
ENDROOT
BRANCH   4  10
ATOM     10  C   UNL     1       5.130   5.328 -12.765  0.00  0.00    +0.250 C 
ATOM     11  N   UNL     1       6.280   6.165 -12.569  0.00  0.00    -0.272 N 
ATOM     12  C   UNL     1       6.441   7.405 -13.332  0.00  0.00    +0.115 C 
ATOM     13  O   UNL     1       5.316   4.516 -13.728  0.00  0.00    -0.270 OA
BRANCH  11  14
ATOM     14  C   UNL     1       7.536   5.416 -12.443  0.00  0.00    +0.129 C 
BRANCH  14  15
ATOM     15  C   UNL     1       8.467   6.352 -11.454  0.00  0.00    +0.204 C 
ATOM     16  O   UNL     1       9.743   5.753 -12.019  0.00  0.00    -0.218 OA
BRANCH  15  17
ATOM     17  C   UNL     1       8.398   5.236 -10.242  0.00  0.00    +0.217 C 
ATOM     18  O   UNL     1       7.743   6.022  -9.275  0.00  0.00    -0.218 OA
ENDBRANCH  15  17
ENDBRANCH  14  15
ENDBRANCH  11  14
ENDBRANCH   4  10
BRANCH   7  19
ATOM     19  C   UNL     1       1.391   5.343  -9.876  0.00  0.00    +0.266 C 
ATOM     20  N   UNL     1       1.070   6.029  -8.698  0.00  0.00    -0.199 NA
ATOM     21  O   UNL     1       1.775   4.147  -9.673  0.00  0.00    -0.268 OA
BRANCH  20  22
ATOM     22  C   UNL     1       1.551   5.881  -7.410  0.00  0.00    +0.151 C 
BRANCH  22  23
ATOM     23  C   UNL     1       1.540   7.274  -6.541  0.00  0.00    +0.206 C 
ATOM     24  O   UNL     1       2.024   8.084  -7.734  0.00  0.00    -0.218 OA
BRANCH  23  25
ATOM     25  C   UNL     1       3.071   7.110  -5.941  0.00  0.00    +0.217 C 
ATOM     26  O   UNL     1       3.177   5.719  -6.072  0.00  0.00    -0.218 OA
ENDBRANCH  23  25
ENDBRANCH  22  23
ENDBRANCH  20  22
ENDBRANCH   7  19
BRANCH   1  28
ATOM     27  C   UNL     1       0.554   7.366 -15.497  0.00  0.00    +0.276 C 
ATOM     28  N   UNL     1       0.747   7.163 -14.120  0.00  0.00    -0.176 NA
ATOM     29  O   UNL     1      -0.202   6.415 -15.833  0.00  0.00    -0.270 OA
BRANCH  27  30
ATOM     30  C   UNL     1       0.429   8.768 -15.924  0.00  0.00    +0.229 C 
BRANCH  30  32
ATOM     31  C   UNL     1       0.917  10.822 -15.274  0.00  0.00    +0.175 C 
ATOM     32  O   UNL     1       0.912   9.587 -14.919  0.00  0.00    -0.342 OA
ENDBRANCH  30  32
ENDBRANCH  27  30
ENDBRANCH   1  28
TORSDOF 11
ENDMDL
