MODEL 1
REMARK VINA RESULT:      -6.3      0.000      0.000
REMARK  Name = 
REMARK  10 active torsions:
REMARK  status: ('A' for Active; 'I' for Inactive)
REMARK    1  A    between atoms: C_2  and  C_3
REMARK    2  A    between atoms: C_3  and  C_4
REMARK    3  A    between atoms: C_4  and  C_5
REMARK    4  A    between atoms: C_5  and  C_6
REMARK    5  A    between atoms: C_5  and  C_8
REMARK    6  A    between atoms: C_8  and  O_9
REMARK    7  A    between atoms: O_9  and  C_10
REMARK    8  A    between atoms: C_10  and  C_12
REMARK    9  A    between atoms: C_13  and  C_14
REMARK   10  A    between atoms: C_17  and  O_18
REMARK                            x       y       z     vdW  Elec       q    Type
REMARK                         _______ _______ _______ _____ _____    ______ ____
ROOT
ATOM      1  C   UNL     1       2.143   7.119  -7.570  0.00  0.00    +0.341 C 
ATOM      2  O   UNL     1       2.081   8.336  -7.934  0.00  0.00    -0.245 OA
ENDROOT
BRANCH   1   3
ATOM      3  C   UNL     1       3.397   6.410  -7.862  0.00  0.00    +0.082 C 
ATOM      4  C   UNL     1       4.213   5.965  -6.943  0.00  0.00    +0.007 C 
BRANCH   4   5
ATOM      5  C   UNL     1       3.893   6.150  -5.522  0.00  0.00    +0.000 A 
ATOM      6  C   UNL     1       4.211   5.036  -4.745  0.00  0.00    +0.003 A 
ATOM      7  C   UNL     1       4.570   5.157  -3.412  0.00  0.00    +0.037 A 
ATOM      8  C   UNL     1       4.689   6.382  -2.822  0.00  0.00    +0.139 A 
ATOM      9  C   UNL     1       4.567   7.501  -3.621  0.00  0.00    +0.037 A 
ATOM     10  C   UNL     1       4.364   7.337  -4.968  0.00  0.00    +0.003 A 
BRANCH   8  11
ATOM     11  O   UNL     1       4.536   6.533  -1.438  0.00  0.00    -0.471 OA
ATOM     12  C   UNL     1       3.570   5.732  -0.760  0.00  0.00    +0.252 C 
ENDBRANCH   8  11
ENDBRANCH   4   5
ENDBRANCH   1   3
BRANCH   1  13
ATOM     13  O   UNL     1       0.996   6.425  -7.989  0.00  0.00    -0.445 OA
BRANCH  13  14
ATOM     14  C   UNL     1       0.381   5.425  -7.218  0.00  0.00    +0.209 C 
BRANCH  14  15
ATOM     15  C   UNL     1      -0.001   6.299  -5.881  0.00  0.00    +0.044 C 
BRANCH  15  16
ATOM     16  C   UNL     1       0.525   5.124  -4.864  0.00  0.00    +0.004 C 
ATOM     17  C   UNL     1       0.819   5.915  -3.598  0.00  0.00    +0.000 C 
ENDBRANCH  15  16
BRANCH  15  18
ATOM     18  C   UNL     1      -1.544   5.742  -5.860  0.00  0.00    +0.004 C 
BRANCH  18  19
ATOM     19  C   UNL     1      -2.392   6.830  -5.269  0.00  0.00    +0.000 C 
BRANCH  19  21
ATOM     20  C   UNL     1      -3.005   5.462  -3.698  0.00  0.00    +0.000 C 
ATOM     21  C   UNL     1      -2.826   6.402  -3.886  0.00  0.00    +0.000 C 
ENDBRANCH  19  21
ENDBRANCH  18  19
ENDBRANCH  15  18
ENDBRANCH  14  15
ENDBRANCH  13  14
ENDBRANCH   1  13
TORSDOF 10
ENDMDL
MODEL 2
REMARK VINA RESULT:      -6.2      4.293      8.834
REMARK  Name = 
REMARK  10 active torsions:
REMARK  status: ('A' for Active; 'I' for Inactive)
REMARK    1  A    between atoms: C_2  and  C_3
REMARK    2  A    between atoms: C_3  and  C_4
REMARK    3  A    between atoms: C_4  and  C_5
REMARK    4  A    between atoms: C_5  and  C_6
REMARK    5  A    between atoms: C_5  and  C_8
REMARK    6  A    between atoms: C_8  and  O_9
REMARK    7  A    between atoms: O_9  and  C_10
REMARK    8  A    between atoms: C_10  and  C_12
REMARK    9  A    between atoms: C_13  and  C_14
REMARK   10  A    between atoms: C_17  and  O_18
REMARK                            x       y       z     vdW  Elec       q    Type
REMARK                         _______ _______ _______ _____ _____    ______ ____
ROOT
ATOM      1  C   UNL     1       2.279   7.117  -8.255  0.00  0.00    +0.341 C 
ATOM      2  O   UNL     1       2.254   8.319  -7.842  0.00  0.00    -0.245 OA
ENDROOT
BRANCH   1   3
ATOM      3  C   UNL     1       1.048   6.334  -8.072  0.00  0.00    +0.082 C 
ATOM      4  C   UNL     1       0.380   5.789  -9.053  0.00  0.00    +0.007 C 
BRANCH   4   5
ATOM      5  C   UNL     1       0.857   5.927 -10.436  0.00  0.00    +0.000 A 
ATOM      6  C   UNL     1       0.763   4.740 -11.163  0.00  0.00    +0.003 A 
ATOM      7  C   UNL     1       0.566   4.740 -12.534  0.00  0.00    +0.037 A 
ATOM      8  C   UNL     1       0.391   5.907 -13.221  0.00  0.00    +0.139 A 
ATOM      9  C   UNL     1       0.288   7.077 -12.496  0.00  0.00    +0.037 A 
ATOM     10  C   UNL     1       0.334   7.016 -11.126  0.00  0.00    +0.003 A 
BRANCH   8  11
ATOM     11  O   UNL     1       0.702   5.994 -14.584  0.00  0.00    -0.471 OA
ATOM     12  C   UNL     1       1.448   7.117 -15.050  0.00  0.00    +0.252 C 
ENDBRANCH   8  11
ENDBRANCH   4   5
ENDBRANCH   1   3
BRANCH   1  13
ATOM     13  O   UNL     1       3.431   6.464  -7.787  0.00  0.00    -0.445 OA
BRANCH  13  14
ATOM     14  C   UNL     1       4.077   5.443  -8.502  0.00  0.00    +0.209 C 
BRANCH  14  15
ATOM     15  C   UNL     1       4.794   6.336  -9.679  0.00  0.00    +0.044 C 
BRANCH  15  16
ATOM     16  C   UNL     1       4.442   5.234 -10.843  0.00  0.00    +0.004 C 
ATOM     17  C   UNL     1       4.144   6.127 -12.039  0.00  0.00    +0.000 C 
ENDBRANCH  15  16
BRANCH  15  18
ATOM     18  C   UNL     1       6.270   5.682  -9.391  0.00  0.00    +0.004 C 
BRANCH  18  19
ATOM     19  C   UNL     1       7.262   6.475 -10.189  0.00  0.00    +0.000 C 
BRANCH  19  21
ATOM     20  C   UNL     1       8.369   5.758 -11.915  0.00  0.00    +0.000 C 
ATOM     21  C   UNL     1       8.092   5.516 -11.011  0.00  0.00    +0.000 C 
ENDBRANCH  19  21
ENDBRANCH  18  19
ENDBRANCH  15  18
ENDBRANCH  14  15
ENDBRANCH  13  14
ENDBRANCH   1  13
TORSDOF 10
ENDMDL
MODEL 3
REMARK VINA RESULT:      -6.0      3.480      7.430
REMARK  Name = 
REMARK  10 active torsions:
REMARK  status: ('A' for Active; 'I' for Inactive)
REMARK    1  A    between atoms: C_2  and  C_3
REMARK    2  A    between atoms: C_3  and  C_4
REMARK    3  A    between atoms: C_4  and  C_5
REMARK    4  A    between atoms: C_5  and  C_6
REMARK    5  A    between atoms: C_5  and  C_8
REMARK    6  A    between atoms: C_8  and  O_9
REMARK    7  A    between atoms: O_9  and  C_10
REMARK    8  A    between atoms: C_10  and  C_12
REMARK    9  A    between atoms: C_13  and  C_14
REMARK   10  A    between atoms: C_17  and  O_18
REMARK                            x       y       z     vdW  Elec       q    Type
REMARK                         _______ _______ _______ _____ _____    ______ ____
ROOT
ATOM      1  C   UNL     1       2.376   4.673  -8.298  0.00  0.00    +0.341 C 
ATOM      2  O   UNL     1       2.652   3.461  -8.567  0.00  0.00    -0.245 OA
ENDROOT
BRANCH   1   3
ATOM      3  C   UNL     1       1.324   5.302  -9.110  0.00  0.00    +0.082 C 
ATOM      4  C   UNL     1       0.174   5.697  -8.632  0.00  0.00    +0.007 C 
BRANCH   4   5
ATOM      5  C   UNL     1      -0.124   5.538  -7.202  0.00  0.00    +0.000 A 
ATOM      6  C   UNL     1       0.406   6.563  -6.420  0.00  0.00    +0.003 A 
ATOM      7  C   UNL     1      -0.199   6.966  -5.241  0.00  0.00    +0.037 A 
ATOM      8  C   UNL     1      -1.379   6.415  -4.830  0.00  0.00    +0.139 A 
ATOM      9  C   UNL     1      -2.017   5.538  -5.683  0.00  0.00    +0.037 A 
ATOM     10  C   UNL     1      -1.461   5.282  -6.911  0.00  0.00    +0.003 A 
BRANCH   8  11
ATOM     11  O   UNL     1      -1.734   6.402  -3.475  0.00  0.00    -0.471 OA
ATOM     12  C   UNL     1      -3.063   6.031  -3.114  0.00  0.00    +0.252 C 
ENDBRANCH   8  11
ENDBRANCH   4   5
ENDBRANCH   1   3
BRANCH   1  13
ATOM     13  O   UNL     1       3.552   5.435  -8.219  0.00  0.00    -0.445 OA
BRANCH  13  14
ATOM     14  C   UNL     1       4.788   4.991  -8.717  0.00  0.00    +0.209 C 
BRANCH  14  15
ATOM     15  C   UNL     1       5.129   6.218  -9.754  0.00  0.00    +0.044 C 
BRANCH  15  16
ATOM     16  C   UNL     1       4.810   5.299 -11.075  0.00  0.00    +0.004 C 
ATOM     17  C   UNL     1       3.723   6.111 -11.766  0.00  0.00    +0.000 C 
ENDBRANCH  15  16
BRANCH  15  18
ATOM     18  C   UNL     1       6.728   5.855  -9.786  0.00  0.00    +0.004 C 
BRANCH  18  19
ATOM     19  C   UNL     1       7.353   6.730 -10.832  0.00  0.00    +0.000 C 
BRANCH  19  21
ATOM     20  C   UNL     1       8.421   5.843 -12.502  0.00  0.00    +0.000 C 
ATOM     21  C   UNL     1       8.436   5.941 -11.532  0.00  0.00    +0.000 C 
ENDBRANCH  19  21
ENDBRANCH  18  19
ENDBRANCH  15  18
ENDBRANCH  14  15
ENDBRANCH  13  14
ENDBRANCH   1  13
TORSDOF 10
ENDMDL
MODEL 4
REMARK VINA RESULT:      -6.0      3.019      5.160
REMARK  Name = 
REMARK  10 active torsions:
REMARK  status: ('A' for Active; 'I' for Inactive)
REMARK    1  A    between atoms: C_2  and  C_3
REMARK    2  A    between atoms: C_3  and  C_4
REMARK    3  A    between atoms: C_4  and  C_5
REMARK    4  A    between atoms: C_5  and  C_6
REMARK    5  A    between atoms: C_5  and  C_8
REMARK    6  A    between atoms: C_8  and  O_9
REMARK    7  A    between atoms: O_9  and  C_10
REMARK    8  A    between atoms: C_10  and  C_12
REMARK    9  A    between atoms: C_13  and  C_14
REMARK   10  A    between atoms: C_17  and  O_18
REMARK                            x       y       z     vdW  Elec       q    Type
REMARK                         _______ _______ _______ _____ _____    ______ ____
ROOT
ATOM      1  C   UNL     1       2.671   7.297  -7.475  0.00  0.00    +0.341 C 
ATOM      2  O   UNL     1       2.125   8.381  -7.855  0.00  0.00    -0.245 OA
ENDROOT
BRANCH   1   3
ATOM      3  C   UNL     1       2.336   6.089  -8.243  0.00  0.00    +0.082 C 
ATOM      4  C   UNL     1       3.112   5.570  -9.157  0.00  0.00    +0.007 C 
BRANCH   4   5
ATOM      5  C   UNL     1       4.411   6.186  -9.458  0.00  0.00    +0.000 A 
ATOM      6  C   UNL     1       5.486   5.474  -8.927  0.00  0.00    +0.003 A 
ATOM      7  C   UNL     1       6.732   5.476  -9.533  0.00  0.00    +0.037 A 
ATOM      8  C   UNL     1       6.939   6.127 -10.715  0.00  0.00    +0.139 A 
ATOM      9  C   UNL     1       5.846   6.675 -11.354  0.00  0.00    +0.037 A 
ATOM     10  C   UNL     1       4.602   6.517 -10.797  0.00  0.00    +0.003 A 
BRANCH   8  11
ATOM     11  O   UNL     1       8.215   6.580 -11.072  0.00  0.00    -0.471 OA
ATOM     12  C   UNL     1       8.908   5.921 -12.132  0.00  0.00    +0.252 C 
ENDBRANCH   8  11
ENDBRANCH   4   5
ENDBRANCH   1   3
BRANCH   1  13
ATOM     13  O   UNL     1       2.522   7.136  -6.087  0.00  0.00    -0.445 OA
BRANCH  13  14
ATOM     14  C   UNL     1       1.937   5.999  -5.507  0.00  0.00    +0.209 C 
BRANCH  14  15
ATOM     15  C   UNL     1       1.009   6.718  -4.359  0.00  0.00    +0.044 C 
BRANCH  15  16
ATOM     16  C   UNL     1       0.559   5.281  -3.707  0.00  0.00    +0.004 C 
ATOM     17  C   UNL     1      -0.120   5.721  -2.418  0.00  0.00    +0.000 C 
ENDBRANCH  15  16
BRANCH  15  18
ATOM     18  C   UNL     1      -0.303   6.777  -5.341  0.00  0.00    +0.004 C 
BRANCH  18  19
ATOM     19  C   UNL     1      -0.453   5.415  -5.951  0.00  0.00    +0.000 C 
BRANCH  19  21
ATOM     20  C   UNL     1      -2.560   5.818  -6.292  0.00  0.00    +0.000 C 
ATOM     21  C   UNL     1      -1.787   5.353  -6.661  0.00  0.00    +0.000 C 
ENDBRANCH  19  21
ENDBRANCH  18  19
ENDBRANCH  15  18
ENDBRANCH  14  15
ENDBRANCH  13  14
ENDBRANCH   1  13
TORSDOF 10
ENDMDL
MODEL 5
REMARK VINA RESULT:      -6.0      2.312      5.450
REMARK  Name = 
REMARK  10 active torsions:
REMARK  status: ('A' for Active; 'I' for Inactive)
REMARK    1  A    between atoms: C_2  and  C_3
REMARK    2  A    between atoms: C_3  and  C_4
REMARK    3  A    between atoms: C_4  and  C_5
REMARK    4  A    between atoms: C_5  and  C_6
REMARK    5  A    between atoms: C_5  and  C_8
REMARK    6  A    between atoms: C_8  and  O_9
REMARK    7  A    between atoms: O_9  and  C_10
REMARK    8  A    between atoms: C_10  and  C_12
REMARK    9  A    between atoms: C_13  and  C_14
REMARK   10  A    between atoms: C_17  and  O_18
REMARK                            x       y       z     vdW  Elec       q    Type
REMARK                         _______ _______ _______ _____ _____    ______ ____
ROOT
ATOM      1  C   UNL     1       0.649   4.927  -6.180  0.00  0.00    +0.341 C 
ATOM      2  O   UNL     1       1.016   3.711  -6.238  0.00  0.00    -0.245 OA
ENDROOT
BRANCH   1   3
ATOM      3  C   UNL     1      -0.622   5.261  -6.839  0.00  0.00    +0.082 C 
ATOM      4  C   UNL     1      -1.671   5.718  -6.208  0.00  0.00    +0.007 C 
BRANCH   4   5
ATOM      5  C   UNL     1      -1.619   5.940  -4.757  0.00  0.00    +0.000 A 
ATOM      6  C   UNL     1      -1.579   7.292  -4.417  0.00  0.00    +0.003 A 
ATOM      7  C   UNL     1      -2.113   7.760  -3.227  0.00  0.00    +0.037 A 
ATOM      8  C   UNL     1      -2.761   6.921  -2.368  0.00  0.00    +0.139 A 
ATOM      9  C   UNL     1      -2.981   5.620  -2.773  0.00  0.00    +0.037 A 
ATOM     10  C   UNL     1      -2.571   5.236  -4.025  0.00  0.00    +0.003 A 
BRANCH   8  11
ATOM     11  O   UNL     1      -2.845   7.215  -1.001  0.00  0.00    -0.471 OA
ATOM     12  C   UNL     1      -1.651   7.544  -0.292  0.00  0.00    +0.252 C 
ENDBRANCH   8  11
ENDBRANCH   4   5
ENDBRANCH   1   3
BRANCH   1  13
ATOM     13  O   UNL     1       1.707   5.774  -6.545  0.00  0.00    -0.445 OA
BRANCH  13  14
ATOM     14  C   UNL     1       3.040   5.544  -6.164  0.00  0.00    +0.209 C 
BRANCH  14  15
ATOM     15  C   UNL     1       3.141   6.557  -4.875  0.00  0.00    +0.044 C 
BRANCH  15  16
ATOM     16  C   UNL     1       4.781   6.583  -4.922  0.00  0.00    +0.004 C 
ATOM     17  C   UNL     1       5.095   7.878  -4.188  0.00  0.00    +0.000 C 
ENDBRANCH  15  16
BRANCH  15  18
ATOM     18  C   UNL     1       3.109   5.321  -3.798  0.00  0.00    +0.004 C 
BRANCH  18  19
ATOM     19  C   UNL     1       2.476   5.850  -2.545  0.00  0.00    +0.000 C 
BRANCH  19  21
ATOM     20  C   UNL     1       0.644   4.989  -1.758  0.00  0.00    +0.000 C 
ATOM     21  C   UNL     1       1.020   5.443  -2.535  0.00  0.00    +0.000 C 
ENDBRANCH  19  21
ENDBRANCH  18  19
ENDBRANCH  15  18
ENDBRANCH  14  15
ENDBRANCH  13  14
ENDBRANCH   1  13
TORSDOF 10
ENDMDL
MODEL 6
REMARK VINA RESULT:      -6.0      2.222      6.004
REMARK  Name = 
REMARK  10 active torsions:
REMARK  status: ('A' for Active; 'I' for Inactive)
REMARK    1  A    between atoms: C_2  and  C_3
REMARK    2  A    between atoms: C_3  and  C_4
REMARK    3  A    between atoms: C_4  and  C_5
REMARK    4  A    between atoms: C_5  and  C_6
REMARK    5  A    between atoms: C_5  and  C_8
REMARK    6  A    between atoms: C_8  and  O_9
REMARK    7  A    between atoms: O_9  and  C_10
REMARK    8  A    between atoms: C_10  and  C_12
REMARK    9  A    between atoms: C_13  and  C_14
REMARK   10  A    between atoms: C_17  and  O_18
REMARK                            x       y       z     vdW  Elec       q    Type
REMARK                         _______ _______ _______ _____ _____    ______ ____
ROOT
ATOM      1  C   UNL     1       0.460   5.210  -6.769  0.00  0.00    +0.341 C 
ATOM      2  O   UNL     1       0.741   4.180  -6.078  0.00  0.00    -0.245 OA
ENDROOT
BRANCH   1   3
ATOM      3  C   UNL     1      -0.941   5.357  -7.189  0.00  0.00    +0.082 C 
ATOM      4  C   UNL     1      -1.903   5.739  -6.392  0.00  0.00    +0.007 C 
BRANCH   4   5
ATOM      5  C   UNL     1      -1.613   6.066  -4.990  0.00  0.00    +0.000 A 
ATOM      6  C   UNL     1      -1.676   7.434  -4.727  0.00  0.00    +0.003 A 
ATOM      7  C   UNL     1      -2.036   7.921  -3.481  0.00  0.00    +0.037 A 
ATOM      8  C   UNL     1      -2.407   7.076  -2.475  0.00  0.00    +0.139 A 
ATOM      9  C   UNL     1      -2.537   5.734  -2.770  0.00  0.00    +0.037 A 
ATOM     10  C   UNL     1      -2.320   5.312  -4.058  0.00  0.00    +0.003 A 
BRANCH   8  11
ATOM     11  O   UNL     1      -2.273   7.452  -1.133  0.00  0.00    -0.471 OA
ATOM     12  C   UNL     1      -1.736   6.512  -0.204  0.00  0.00    +0.252 C 
ENDBRANCH   8  11
ENDBRANCH   4   5
ENDBRANCH   1   3
BRANCH   1  13
ATOM     13  O   UNL     1       1.378   5.356  -7.823  0.00  0.00    -0.445 OA
BRANCH  13  14
ATOM     14  C   UNL     1       2.624   4.708  -7.848  0.00  0.00    +0.209 C 
BRANCH  14  15
ATOM     15  C   UNL     1       3.618   6.010  -7.724  0.00  0.00    +0.044 C 
BRANCH  15  16
ATOM     16  C   UNL     1       4.883   5.209  -8.394  0.00  0.00    +0.004 C 
ATOM     17  C   UNL     1       5.005   5.893  -9.748  0.00  0.00    +0.000 C 
ENDBRANCH  15  16
BRANCH  15  18
ATOM     18  C   UNL     1       4.072   5.620  -6.197  0.00  0.00    +0.004 C 
BRANCH  18  19
ATOM     19  C   UNL     1       3.793   6.819  -5.340  0.00  0.00    +0.000 C 
BRANCH  19  21
ATOM     20  C   UNL     1       5.190   7.941  -4.112  0.00  0.00    +0.000 C 
ATOM     21  C   UNL     1       4.979   7.043  -4.429  0.00  0.00    +0.000 C 
ENDBRANCH  19  21
ENDBRANCH  18  19
ENDBRANCH  15  18
ENDBRANCH  14  15
ENDBRANCH  13  14
ENDBRANCH   1  13
TORSDOF 10
ENDMDL
MODEL 7
REMARK VINA RESULT:      -5.8      3.619      6.565
REMARK  Name = 
REMARK  10 active torsions:
REMARK  status: ('A' for Active; 'I' for Inactive)
REMARK    1  A    between atoms: C_2  and  C_3
REMARK    2  A    between atoms: C_3  and  C_4
REMARK    3  A    between atoms: C_4  and  C_5
REMARK    4  A    between atoms: C_5  and  C_6
REMARK    5  A    between atoms: C_5  and  C_8
REMARK    6  A    between atoms: C_8  and  O_9
REMARK    7  A    between atoms: O_9  and  C_10
REMARK    8  A    between atoms: C_10  and  C_12
REMARK    9  A    between atoms: C_13  and  C_14
REMARK   10  A    between atoms: C_17  and  O_18
REMARK                            x       y       z     vdW  Elec       q    Type
REMARK                         _______ _______ _______ _____ _____    ______ ____
ROOT
ATOM      1  C   UNL     1       0.225   5.231  -6.672  0.00  0.00    +0.341 C 
ATOM      2  O   UNL     1       0.557   4.229  -5.963  0.00  0.00    -0.245 OA
ENDROOT
BRANCH   1   3
ATOM      3  C   UNL     1      -1.194   5.333  -7.039  0.00  0.00    +0.082 C 
ATOM      4  C   UNL     1      -2.142   5.662  -6.201  0.00  0.00    +0.007 C 
BRANCH   4   5
ATOM      5  C   UNL     1      -1.814   5.970  -4.803  0.00  0.00    +0.000 A 
ATOM      6  C   UNL     1      -1.795   7.339  -4.539  0.00  0.00    +0.003 A 
ATOM      7  C   UNL     1      -2.110   7.844  -3.288  0.00  0.00    +0.037 A 
ATOM      8  C   UNL     1      -2.515   7.021  -2.277  0.00  0.00    +0.139 A 
ATOM      9  C   UNL     1      -2.725   5.689  -2.570  0.00  0.00    +0.037 A 
ATOM     10  C   UNL     1      -2.550   5.257  -3.861  0.00  0.00    +0.003 A 
BRANCH   8  11
ATOM     11  O   UNL     1      -2.341   7.388  -0.937  0.00  0.00    -0.471 OA
ATOM     12  C   UNL     1      -1.675   6.485  -0.056  0.00  0.00    +0.252 C 
ENDBRANCH   8  11
ENDBRANCH   4   5
ENDBRANCH   1   3
BRANCH   1  13
ATOM     13  O   UNL     1       1.097   5.366  -7.765  0.00  0.00    -0.445 OA
BRANCH  13  14
ATOM     14  C   UNL     1       0.666   5.303  -9.100  0.00  0.00    +0.209 C 
BRANCH  14  15
ATOM     15  C   UNL     1       1.142   6.787  -9.618  0.00  0.00    +0.044 C 
BRANCH  15  16
ATOM     16  C   UNL     1       0.112   6.762 -10.894  0.00  0.00    +0.004 C 
ATOM     17  C   UNL     1       0.014   5.272 -11.187  0.00  0.00    +0.000 C 
ENDBRANCH  15  16
BRANCH  15  18
ATOM     18  C   UNL     1       2.381   6.172 -10.499  0.00  0.00    +0.004 C 
BRANCH  18  19
ATOM     19  C   UNL     1       3.650   6.573  -9.807  0.00  0.00    +0.000 C 
BRANCH  19  21
ATOM     20  C   UNL     1       5.307   7.429 -10.920  0.00  0.00    +0.000 C 
ATOM     21  C   UNL     1       4.759   6.627 -10.833  0.00  0.00    +0.000 C 
ENDBRANCH  19  21
ENDBRANCH  18  19
ENDBRANCH  15  18
ENDBRANCH  14  15
ENDBRANCH  13  14
ENDBRANCH   1  13
TORSDOF 10
ENDMDL
MODEL 8
REMARK VINA RESULT:      -5.8      4.226      7.107
REMARK  Name = 
REMARK  10 active torsions:
REMARK  status: ('A' for Active; 'I' for Inactive)
REMARK    1  A    between atoms: C_2  and  C_3
REMARK    2  A    between atoms: C_3  and  C_4
REMARK    3  A    between atoms: C_4  and  C_5
REMARK    4  A    between atoms: C_5  and  C_6
REMARK    5  A    between atoms: C_5  and  C_8
REMARK    6  A    between atoms: C_8  and  O_9
REMARK    7  A    between atoms: O_9  and  C_10
REMARK    8  A    between atoms: C_10  and  C_12
REMARK    9  A    between atoms: C_13  and  C_14
REMARK   10  A    between atoms: C_17  and  O_18
REMARK                            x       y       z     vdW  Elec       q    Type
REMARK                         _______ _______ _______ _____ _____    ______ ____
ROOT
ATOM      1  C   UNL     1       4.073   4.952  -8.758  0.00  0.00    +0.341 C 
ATOM      2  O   UNL     1       3.727   3.788  -9.134  0.00  0.00    -0.245 OA
ENDROOT
BRANCH   1   3
ATOM      3  C   UNL     1       5.486   5.130  -8.393  0.00  0.00    +0.082 C 
ATOM      4  C   UNL     1       6.391   5.618  -9.199  0.00  0.00    +0.007 C 
BRANCH   4   5
ATOM      5  C   UNL     1       6.018   6.041 -10.556  0.00  0.00    +0.000 A 
ATOM      6  C   UNL     1       6.078   7.423 -10.729  0.00  0.00    +0.003 A 
ATOM      7  C   UNL     1       6.365   7.992 -11.959  0.00  0.00    +0.037 A 
ATOM      8  C   UNL     1       6.666   7.215 -13.041  0.00  0.00    +0.139 A 
ATOM      9  C   UNL     1       6.801   5.855 -12.846  0.00  0.00    +0.037 A 
ATOM     10  C   UNL     1       6.660   5.349 -11.578  0.00  0.00    +0.003 A 
BRANCH   8  11
ATOM     11  O   UNL     1       6.453   7.682 -14.344  0.00  0.00    -0.471 OA
ATOM     12  C   UNL     1       6.855   6.866 -15.443  0.00  0.00    +0.252 C 
ENDBRANCH   8  11
ENDBRANCH   4   5
ENDBRANCH   1   3
BRANCH   1  13
ATOM     13  O   UNL     1       3.180   5.440  -7.791  0.00  0.00    -0.445 OA
BRANCH  13  14
ATOM     14  C   UNL     1       2.087   4.697  -7.314  0.00  0.00    +0.209 C 
BRANCH  14  15
ATOM     15  C   UNL     1       0.937   5.868  -7.299  0.00  0.00    +0.044 C 
BRANCH  15  16
ATOM     16  C   UNL     1      -0.053   4.998  -6.323  0.00  0.00    +0.004 C 
ATOM     17  C   UNL     1      -1.424   5.534  -6.709  0.00  0.00    +0.000 C 
ENDBRANCH  15  16
BRANCH  15  18
ATOM     18  C   UNL     1       0.226   5.302  -8.664  0.00  0.00    +0.004 C 
BRANCH  18  19
ATOM     19  C   UNL     1       0.523   6.290  -9.753  0.00  0.00    +0.000 C 
BRANCH  19  21
ATOM     20  C   UNL     1       0.020   4.682 -11.124  0.00  0.00    +0.000 C 
ATOM     21  C   UNL     1       0.275   5.623 -11.087  0.00  0.00    +0.000 C 
ENDBRANCH  19  21
ENDBRANCH  18  19
ENDBRANCH  15  18
ENDBRANCH  14  15
ENDBRANCH  13  14
ENDBRANCH   1  13
TORSDOF 10
ENDMDL
MODEL 9
REMARK VINA RESULT:      -5.8      1.691      4.783
REMARK  Name = 
REMARK  10 active torsions:
REMARK  status: ('A' for Active; 'I' for Inactive)
REMARK    1  A    between atoms: C_2  and  C_3
REMARK    2  A    between atoms: C_3  and  C_4
REMARK    3  A    between atoms: C_4  and  C_5
REMARK    4  A    between atoms: C_5  and  C_6
REMARK    5  A    between atoms: C_5  and  C_8
REMARK    6  A    between atoms: C_8  and  O_9
REMARK    7  A    between atoms: O_9  and  C_10
REMARK    8  A    between atoms: C_10  and  C_12
REMARK    9  A    between atoms: C_13  and  C_14
REMARK   10  A    between atoms: C_17  and  O_18
REMARK                            x       y       z     vdW  Elec       q    Type
REMARK                         _______ _______ _______ _____ _____    ______ ____
ROOT
ATOM      1  C   UNL     1       2.742   5.789  -3.274  0.00  0.00    +0.341 C 
ATOM      2  O   UNL     1       3.300   4.937  -2.512  0.00  0.00    -0.245 OA
ENDROOT
BRANCH   1   3
ATOM      3  C   UNL     1       3.503   7.015  -3.553  0.00  0.00    +0.082 C 
ATOM      4  C   UNL     1       3.848   7.401  -4.753  0.00  0.00    +0.007 C 
BRANCH   4   5
ATOM      5  C   UNL     1       3.464   6.600  -5.923  0.00  0.00    +0.000 A 
ATOM      6  C   UNL     1       2.795   7.344  -6.894  0.00  0.00    +0.003 A 
ATOM      7  C   UNL     1       2.871   7.023  -8.239  0.00  0.00    +0.037 A 
ATOM      8  C   UNL     1       3.661   5.999  -8.675  0.00  0.00    +0.139 A 
ATOM      9  C   UNL     1       4.479   5.374  -7.756  0.00  0.00    +0.037 A 
ATOM     10  C   UNL     1       4.488   5.825  -6.460  0.00  0.00    +0.003 A 
BRANCH   8  11
ATOM     11  O   UNL     1       3.381   5.335  -9.876  0.00  0.00    -0.471 OA
ATOM     12  C   UNL     1       4.362   5.342 -10.912  0.00  0.00    +0.252 C 
ENDBRANCH   8  11
ENDBRANCH   4   5
ENDBRANCH   1   3
BRANCH   1  13
ATOM     13  O   UNL     1       1.424   6.031  -2.854  0.00  0.00    -0.445 OA
BRANCH  13  14
ATOM     14  C   UNL     1       0.316   5.342  -3.373  0.00  0.00    +0.209 C 
BRANCH  14  15
ATOM     15  C   UNL     1      -0.769   6.573  -3.446  0.00  0.00    +0.044 C 
BRANCH  15  16
ATOM     16  C   UNL     1      -2.047   5.548  -3.544  0.00  0.00    +0.004 C 
ATOM     17  C   UNL     1      -2.773   5.829  -2.236  0.00  0.00    +0.000 C 
ENDBRANCH  15  16
BRANCH  15  18
ATOM     18  C   UNL     1      -0.640   6.698  -5.076  0.00  0.00    +0.004 C 
BRANCH  18  19
ATOM     19  C   UNL     1      -1.641   5.750  -5.668  0.00  0.00    +0.000 C 
BRANCH  19  21
ATOM     20  C   UNL     1      -0.232   5.290  -7.256  0.00  0.00    +0.000 C 
ATOM     21  C   UNL     1      -1.183   5.378  -7.060  0.00  0.00    +0.000 C 
ENDBRANCH  19  21
ENDBRANCH  18  19
ENDBRANCH  15  18
ENDBRANCH  14  15
ENDBRANCH  13  14
ENDBRANCH   1  13
TORSDOF 10
ENDMDL
