MODEL 1
REMARK VINA RESULT:      -7.2      0.000      0.000
REMARK  Name = 
REMARK  2 active torsions:
REMARK  status: ('A' for Active; 'I' for Inactive)
REMARK    1  A    between atoms: N_5  and  S_6
REMARK    2  A    between atoms: S_6  and  C_9
REMARK                            x       y       z     vdW  Elec       q    Type
REMARK                         _______ _______ _______ _____ _____    ______ ____
ROOT
ATOM      1  S   UNL     1       3.447   5.930  -9.264  0.00  0.00    +0.094 S 
ATOM      2  O   UNL     1       2.596   5.182 -10.242  0.00  0.00    -0.148 OA
ATOM      3  O   UNL     1       2.854   7.300  -9.026  0.00  0.00    -0.148 OA
ENDROOT
BRANCH   1   9
ATOM      4  C   UNL     1       5.650   7.217  -3.846  0.00  0.00    +0.075 C 
ATOM      5  C   UNL     1       4.656   6.837  -4.869  0.00  0.00    +0.156 A 
ATOM      6  O   UNL     1       3.810   7.704  -5.393  0.00  0.00    -0.356 OA
ATOM      7  N   UNL     1       3.166   7.148  -6.390  0.00  0.00    -0.059 NA
ATOM      8  C   UNL     1       3.539   5.849  -6.495  0.00  0.00    +0.213 A 
ATOM      9  N   UNL     1       3.455   5.123  -7.727  0.00  0.00    -0.074 NA
ATOM     10  C   UNL     1       4.437   5.605  -5.463  0.00  0.00    +0.077 A 
ENDBRANCH   1   9
BRANCH   1  11
ATOM     11  C   UNL     1       5.071   6.140  -9.844  0.00  0.00    +0.127 A 
ATOM     12  C   UNL     1       5.339   7.167 -10.733  0.00  0.00    +0.022 A 
ATOM     13  C   UNL     1       6.625   7.300 -11.219  0.00  0.00    +0.019 A 
ATOM     14  C   UNL     1       7.622   6.398 -10.874  0.00  0.00    +0.089 A 
ATOM     15  N   UNL     1       8.653   6.018 -11.791  0.00  0.00    -0.128 NA
ATOM     16  C   UNL     1       7.431   5.690  -9.694  0.00  0.00    +0.019 A 
ATOM     17  C   UNL     1       6.171   5.660  -9.141  0.00  0.00    +0.022 A 
ENDBRANCH   1  11
TORSDOF 2
ENDMDL
MODEL 2
REMARK VINA RESULT:      -7.2      2.150      2.354
REMARK  Name = 
REMARK  2 active torsions:
REMARK  status: ('A' for Active; 'I' for Inactive)
REMARK    1  A    between atoms: N_5  and  S_6
REMARK    2  A    between atoms: S_6  and  C_9
REMARK                            x       y       z     vdW  Elec       q    Type
REMARK                         _______ _______ _______ _____ _____    ______ ____
ROOT
ATOM      1  S   UNL     1       3.523   6.037  -9.599  0.00  0.00    +0.094 S 
ATOM      2  O   UNL     1       2.593   5.912 -10.766  0.00  0.00    -0.148 OA
ATOM      3  O   UNL     1       3.154   7.260  -8.791  0.00  0.00    -0.148 OA
ENDROOT
BRANCH   1   9
ATOM      4  C   UNL     1       0.651   5.061  -4.436  0.00  0.00    +0.075 C 
ATOM      5  C   UNL     1       1.065   4.852  -5.837  0.00  0.00    +0.156 A 
ATOM      6  O   UNL     1       0.337   5.257  -6.860  0.00  0.00    -0.356 OA
ATOM      7  N   UNL     1       1.011   5.105  -7.973  0.00  0.00    -0.059 NA
ATOM      8  C   UNL     1       2.200   4.514  -7.699  0.00  0.00    +0.213 A 
ATOM      9  N   UNL     1       3.350   4.674  -8.539  0.00  0.00    -0.074 NA
ATOM     10  C   UNL     1       2.216   4.261  -6.333  0.00  0.00    +0.077 A 
ENDBRANCH   1   9
BRANCH   1  11
ATOM     11  C   UNL     1       5.178   6.203 -10.103  0.00  0.00    +0.127 A 
ATOM     12  C   UNL     1       5.517   7.234 -10.962  0.00  0.00    +0.022 A 
ATOM     13  C   UNL     1       6.827   7.332 -11.389  0.00  0.00    +0.019 A 
ATOM     14  C   UNL     1       7.779   6.394 -11.014  0.00  0.00    +0.089 A 
ATOM     15  N   UNL     1       8.838   5.995 -11.891  0.00  0.00    -0.128 NA
ATOM     16  C   UNL     1       7.513   5.675  -9.856  0.00  0.00    +0.019 A 
ATOM     17  C   UNL     1       6.229   5.677  -9.360  0.00  0.00    +0.022 A 
ENDBRANCH   1  11
TORSDOF 2
ENDMDL
MODEL 3
REMARK VINA RESULT:      -7.1      4.907      8.155
REMARK  Name = 
REMARK  2 active torsions:
REMARK  status: ('A' for Active; 'I' for Inactive)
REMARK    1  A    between atoms: N_5  and  S_6
REMARK    2  A    between atoms: S_6  and  C_9
REMARK                            x       y       z     vdW  Elec       q    Type
REMARK                         _______ _______ _______ _____ _____    ______ ____
ROOT
ATOM      1  S   UNL     1       0.685   5.540  -7.252  0.00  0.00    +0.094 S 
ATOM      2  O   UNL     1       1.778   4.523  -7.142  0.00  0.00    -0.148 OA
ATOM      3  O   UNL     1       1.291   6.912  -7.443  0.00  0.00    -0.148 OA
ENDROOT
BRANCH   1   9
ATOM      4  C   UNL     1       0.893   7.263 -12.983  0.00  0.00    +0.075 C 
ATOM      5  C   UNL     1       0.824   6.350 -11.827  0.00  0.00    +0.156 A 
ATOM      6  O   UNL     1       1.885   5.727 -11.349  0.00  0.00    -0.356 OA
ATOM      7  N   UNL     1       1.578   5.124 -10.227  0.00  0.00    -0.059 NA
ATOM      8  C   UNL     1       0.256   5.286  -9.978  0.00  0.00    +0.213 A 
ATOM      9  N   UNL     1      -0.290   5.232  -8.654  0.00  0.00    -0.074 NA
ATOM     10  C   UNL     1      -0.268   6.002 -11.048  0.00  0.00    +0.077 A 
ENDBRANCH   1   9
BRANCH   1  11
ATOM     11  C   UNL     1      -0.307   5.584  -5.825  0.00  0.00    +0.127 A 
ATOM     12  C   UNL     1       0.304   5.561  -4.583  0.00  0.00    +0.022 A 
ATOM     13  C   UNL     1      -0.494   5.555  -3.456  0.00  0.00    +0.019 A 
ATOM     14  C   UNL     1      -1.879   5.517  -3.555  0.00  0.00    +0.089 A 
ATOM     15  N   UNL     1      -2.689   4.816  -2.605  0.00  0.00    -0.128 NA
ATOM     16  C   UNL     1      -2.424   5.971  -4.749  0.00  0.00    +0.019 A 
ATOM     17  C   UNL     1      -1.599   6.095  -5.844  0.00  0.00    +0.022 A 
ENDBRANCH   1  11
TORSDOF 2
ENDMDL
MODEL 4
REMARK VINA RESULT:      -7.0      3.655      7.096
REMARK  Name = 
REMARK  2 active torsions:
REMARK  status: ('A' for Active; 'I' for Inactive)
REMARK    1  A    between atoms: N_5  and  S_6
REMARK    2  A    between atoms: S_6  and  C_9
REMARK                            x       y       z     vdW  Elec       q    Type
REMARK                         _______ _______ _______ _____ _____    ______ ____
ROOT
ATOM      1  S   UNL     1       1.793   4.970  -6.964  0.00  0.00    +0.094 S 
ATOM      2  O   UNL     1       2.027   3.546  -6.569  0.00  0.00    -0.148 OA
ATOM      3  O   UNL     1       2.939   5.824  -6.470  0.00  0.00    -0.148 OA
ENDROOT
BRANCH   1   9
ATOM      4  C   UNL     1       5.558   7.237 -11.032  0.00  0.00    +0.075 C 
ATOM      5  C   UNL     1       4.682   6.249 -10.373  0.00  0.00    +0.156 A 
ATOM      6  O   UNL     1       5.150   5.297  -9.588  0.00  0.00    -0.356 OA
ATOM      7  N   UNL     1       4.156   4.677  -9.002  0.00  0.00    -0.059 NA
ATOM      8  C   UNL     1       2.983   5.179  -9.458  0.00  0.00    +0.213 A 
ATOM      9  N   UNL     1       1.773   5.124  -8.693  0.00  0.00    -0.074 NA
ATOM     10  C   UNL     1       3.302   6.137 -10.413  0.00  0.00    +0.077 A 
ENDBRANCH   1   9
BRANCH   1  11
ATOM     11  C   UNL     1       0.322   5.600  -6.285  0.00  0.00    +0.127 A 
ATOM     12  C   UNL     1       0.369   6.777  -5.559  0.00  0.00    +0.022 A 
ATOM     13  C   UNL     1      -0.798   7.247  -4.989  0.00  0.00    +0.019 A 
ATOM     14  C   UNL     1      -1.987   6.535  -5.091  0.00  0.00    +0.089 A 
ATOM     15  N   UNL     1      -2.953   6.518  -4.035  0.00  0.00    -0.128 NA
ATOM     16  C   UNL     1      -2.080   5.640  -6.149  0.00  0.00    +0.019 A 
ATOM     17  C   UNL     1      -0.926   5.265  -6.798  0.00  0.00    +0.022 A 
ENDBRANCH   1  11
TORSDOF 2
ENDMDL
MODEL 5
REMARK VINA RESULT:      -6.9      4.032      6.414
REMARK  Name = 
REMARK  2 active torsions:
REMARK  status: ('A' for Active; 'I' for Inactive)
REMARK    1  A    between atoms: N_5  and  S_6
REMARK    2  A    between atoms: S_6  and  C_9
REMARK                            x       y       z     vdW  Elec       q    Type
REMARK                         _______ _______ _______ _____ _____    ______ ____
ROOT
ATOM      1  S   UNL     1       1.809   4.851  -7.179  0.00  0.00    +0.094 S 
ATOM      2  O   UNL     1       1.630   4.621  -8.647  0.00  0.00    -0.148 OA
ATOM      3  O   UNL     1       2.076   3.531  -6.492  0.00  0.00    -0.148 OA
ENDROOT
BRANCH   1   9
ATOM      4  C   UNL     1       3.831   7.985  -2.494  0.00  0.00    +0.075 C 
ATOM      5  C   UNL     1       3.846   7.013  -3.604  0.00  0.00    +0.156 A 
ATOM      6  O   UNL     1       3.646   5.722  -3.420  0.00  0.00    -0.356 OA
ATOM      7  N   UNL     1       3.538   5.119  -4.579  0.00  0.00    -0.059 NA
ATOM      8  C   UNL     1       3.741   6.019  -5.572  0.00  0.00    +0.213 A 
ATOM      9  N   UNL     1       3.200   5.848  -6.888  0.00  0.00    -0.074 NA
ATOM     10  C   UNL     1       4.030   7.233  -4.960  0.00  0.00    +0.077 A 
ENDBRANCH   1   9
BRANCH   1  11
ATOM     11  C   UNL     1       0.397   5.559  -6.455  0.00  0.00    +0.127 A 
ATOM     12  C   UNL     1       0.528   6.741  -5.747  0.00  0.00    +0.022 A 
ATOM     13  C   UNL     1      -0.593   7.274  -5.141  0.00  0.00    +0.019 A 
ATOM     14  C   UNL     1      -1.817   6.621  -5.189  0.00  0.00    +0.089 A 
ATOM     15  N   UNL     1      -2.744   6.663  -4.099  0.00  0.00    -0.128 NA
ATOM     16  C   UNL     1      -1.994   5.720  -6.232  0.00  0.00    +0.019 A 
ATOM     17  C   UNL     1      -0.884   5.281  -6.918  0.00  0.00    +0.022 A 
ENDBRANCH   1  11
TORSDOF 2
ENDMDL
MODEL 6
REMARK VINA RESULT:      -6.9      5.548      7.409
REMARK  Name = 
REMARK  2 active torsions:
REMARK  status: ('A' for Active; 'I' for Inactive)
REMARK    1  A    between atoms: N_5  and  S_6
REMARK    2  A    between atoms: S_6  and  C_9
REMARK                            x       y       z     vdW  Elec       q    Type
REMARK                         _______ _______ _______ _____ _____    ______ ____
ROOT
ATOM      1  S   UNL     1       3.601   5.523  -0.806  0.00  0.00    +0.094 S 
ATOM      2  O   UNL     1       4.765   5.982   0.015  0.00  0.00    -0.148 OA
ATOM      3  O   UNL     1       3.510   4.015  -0.752  0.00  0.00    -0.148 OA
ENDROOT
BRANCH   1   9
ATOM      4  C   UNL     1      -1.861   6.600  -3.013  0.00  0.00    +0.075 C 
ATOM      5  C   UNL     1      -0.828   6.050  -2.114  0.00  0.00    +0.156 A 
ATOM      6  O   UNL     1      -0.366   4.820  -2.231  0.00  0.00    -0.356 OA
ATOM      7  N   UNL     1       0.656   4.651  -1.429  0.00  0.00    -0.059 NA
ATOM      8  C   UNL     1       0.844   5.777  -0.699  0.00  0.00    +0.213 A 
ATOM      9  N   UNL     1       2.116   6.132  -0.144  0.00  0.00    -0.074 NA
ATOM     10  C   UNL     1      -0.163   6.663  -1.064  0.00  0.00    +0.077 A 
ENDBRANCH   1   9
BRANCH   1  11
ATOM     11  C   UNL     1       3.756   5.994  -2.472  0.00  0.00    +0.127 A 
ATOM     12  C   UNL     1       4.290   7.235  -2.771  0.00  0.00    +0.022 A 
ATOM     13  C   UNL     1       4.371   7.616  -4.096  0.00  0.00    +0.019 A 
ATOM     14  C   UNL     1       3.881   6.804  -5.110  0.00  0.00    +0.089 A 
ATOM     15  N   UNL     1       3.278   7.344  -6.291  0.00  0.00    -0.128 NA
ATOM     16  C   UNL     1       3.770   5.451  -4.816  0.00  0.00    +0.019 A 
ATOM     17  C   UNL     1       3.813   5.058  -3.498  0.00  0.00    +0.022 A 
ENDBRANCH   1  11
TORSDOF 2
ENDMDL
MODEL 7
REMARK VINA RESULT:      -6.9      4.445      6.072
REMARK  Name = 
REMARK  2 active torsions:
REMARK  status: ('A' for Active; 'I' for Inactive)
REMARK    1  A    between atoms: N_5  and  S_6
REMARK    2  A    between atoms: S_6  and  C_9
REMARK                            x       y       z     vdW  Elec       q    Type
REMARK                         _______ _______ _______ _____ _____    ______ ____
ROOT
ATOM      1  S   UNL     1       1.964   4.896  -6.553  0.00  0.00    +0.094 S 
ATOM      2  O   UNL     1       1.584   3.503  -6.159  0.00  0.00    -0.148 OA
ATOM      3  O   UNL     1       2.593   4.877  -7.927  0.00  0.00    -0.148 OA
ENDROOT
BRANCH   1   9
ATOM      4  C   UNL     1      -3.202   5.256  -3.546  0.00  0.00    +0.075 C 
ATOM      5  C   UNL     1      -1.934   5.703  -4.152  0.00  0.00    +0.156 A 
ATOM      6  O   UNL     1      -0.823   5.842  -3.454  0.00  0.00    -0.356 OA
ATOM      7  N   UNL     1       0.183   6.078  -4.261  0.00  0.00    -0.059 NA
ATOM      8  C   UNL     1      -0.276   6.170  -5.533  0.00  0.00    +0.213 A 
ATOM      9  N   UNL     1       0.552   5.898  -6.671  0.00  0.00    -0.074 NA
ATOM     10  C   UNL     1      -1.656   6.019  -5.473  0.00  0.00    +0.077 A 
ENDBRANCH   1   9
BRANCH   1  11
ATOM     11  C   UNL     1       3.108   5.594  -5.446  0.00  0.00    +0.127 A 
ATOM     12  C   UNL     1       3.811   4.760  -4.594  0.00  0.00    +0.022 A 
ATOM     13  C   UNL     1       4.688   5.329  -3.690  0.00  0.00    +0.019 A 
ATOM     14  C   UNL     1       4.828   6.707  -3.592  0.00  0.00    +0.089 A 
ATOM     15  N   UNL     1       5.082   7.356  -2.342  0.00  0.00    -0.128 NA
ATOM     16  C   UNL     1       4.459   7.444  -4.710  0.00  0.00    +0.019 A 
ATOM     17  C   UNL     1       3.686   6.838  -5.673  0.00  0.00    +0.022 A 
ENDBRANCH   1  11
TORSDOF 2
ENDMDL
MODEL 8
REMARK VINA RESULT:      -6.9      3.258      5.259
REMARK  Name = 
REMARK  2 active torsions:
REMARK  status: ('A' for Active; 'I' for Inactive)
REMARK    1  A    between atoms: N_5  and  S_6
REMARK    2  A    between atoms: S_6  and  C_9
REMARK                            x       y       z     vdW  Elec       q    Type
REMARK                         _______ _______ _______ _____ _____    ______ ____
ROOT
ATOM      1  S   UNL     1       1.941   7.031  -8.508  0.00  0.00    +0.094 S 
ATOM      2  O   UNL     1       2.032   8.244  -7.636  0.00  0.00    -0.148 OA
ATOM      3  O   UNL     1       1.321   5.894  -7.727  0.00  0.00    -0.148 OA
ENDROOT
BRANCH   1   9
ATOM      4  C   UNL     1       0.895   4.283 -13.725  0.00  0.00    +0.075 C 
ATOM      5  C   UNL     1       0.604   4.900 -12.417  0.00  0.00    +0.156 A 
ATOM      6  O   UNL     1       0.430   4.189 -11.319  0.00  0.00    -0.356 OA
ATOM      7  N   UNL     1       0.361   4.984 -10.280  0.00  0.00    -0.059 NA
ATOM      8  C   UNL     1       0.421   6.272 -10.698  0.00  0.00    +0.213 A 
ATOM      9  N   UNL     1       0.890   7.333  -9.857  0.00  0.00    -0.074 NA
ATOM     10  C   UNL     1       0.488   6.240 -12.086  0.00  0.00    +0.077 A 
ENDBRANCH   1   9
BRANCH   1  11
ATOM     11  C   UNL     1       3.503   6.512  -9.065  0.00  0.00    +0.127 A 
ATOM     12  C   UNL     1       4.235   5.634  -8.285  0.00  0.00    +0.022 A 
ATOM     13  C   UNL     1       5.493   5.261  -8.717  0.00  0.00    +0.019 A 
ATOM     14  C   UNL     1       6.043   5.788  -9.878  0.00  0.00    +0.089 A 
ATOM     15  N   UNL     1       7.445   6.047 -10.005  0.00  0.00    -0.128 NA
ATOM     16  C   UNL     1       5.144   6.290 -10.811  0.00  0.00    +0.019 A 
ATOM     17  C   UNL     1       3.853   6.548 -10.410  0.00  0.00    +0.022 A 
ENDBRANCH   1  11
TORSDOF 2
ENDMDL
MODEL 9
REMARK VINA RESULT:      -6.9      2.536      2.947
REMARK  Name = 
REMARK  2 active torsions:
REMARK  status: ('A' for Active; 'I' for Inactive)
REMARK    1  A    between atoms: N_5  and  S_6
REMARK    2  A    between atoms: S_6  and  C_9
REMARK                            x       y       z     vdW  Elec       q    Type
REMARK                         _______ _______ _______ _____ _____    ______ ____
ROOT
ATOM      1  S   UNL     1       2.842   5.082  -8.438  0.00  0.00    +0.094 S 
ATOM      2  O   UNL     1       2.671   3.600  -8.559  0.00  0.00    -0.148 OA
ATOM      3  O   UNL     1       1.675   5.779  -9.100  0.00  0.00    -0.148 OA
ENDROOT
BRANCH   1   9
ATOM      4  C   UNL     1      -1.280   7.448  -4.794  0.00  0.00    +0.075 C 
ATOM      5  C   UNL     1      -0.251   6.505  -5.273  0.00  0.00    +0.156 A 
ATOM      6  O   UNL     1      -0.552   5.361  -5.856  0.00  0.00    -0.356 OA
ATOM      7  N   UNL     1       0.534   4.806  -6.335  0.00  0.00    -0.059 NA
ATOM      8  C   UNL     1       1.607   5.565  -6.004  0.00  0.00    +0.213 A 
ATOM      9  N   UNL     1       2.819   5.559  -6.769  0.00  0.00    -0.074 NA
ATOM     10  C   UNL     1       1.130   6.623  -5.239  0.00  0.00    +0.077 A 
ENDBRANCH   1   9
BRANCH   1  11
ATOM     11  C   UNL     1       4.302   5.633  -9.202  0.00  0.00    +0.127 A 
ATOM     12  C   UNL     1       4.240   6.711 -10.068  0.00  0.00    +0.022 A 
ATOM     13  C   UNL     1       5.398   7.115 -10.702  0.00  0.00    +0.019 A 
ATOM     14  C   UNL     1       6.593   6.430 -10.525  0.00  0.00    +0.089 A 
ATOM     15  N   UNL     1       7.551   6.290 -11.579  0.00  0.00    -0.128 NA
ATOM     16  C   UNL     1       6.703   5.674  -9.365  0.00  0.00    +0.019 A 
ATOM     17  C   UNL     1       5.557   5.374  -8.664  0.00  0.00    +0.022 A 
ENDBRANCH   1  11
TORSDOF 2
ENDMDL
