MODEL 1
REMARK VINA RESULT:      -7.8      0.000      0.000
REMARK  Name = 
REMARK  3 active torsions:
REMARK  status: ('A' for Active; 'I' for Inactive)
REMARK    1  A    between atoms: C_2  and  C_4
REMARK    2  A    between atoms: C_20  and  C_21
REMARK    3  A    between atoms: C_24  and  N_25
REMARK                            x       y       z     vdW  Elec       q    Type
REMARK                         _______ _______ _______ _____ _____    ______ ____
ROOT
ATOM      1  C   UNL     1      -0.790   8.368   1.268  0.00  0.00    +0.177 C 
ATOM      2  C   UNL     1       0.695   8.332   1.411  0.00  0.00    +0.033 C 
ATOM      3  C   UNL     1       0.936   9.917   1.178  0.00  0.00    +0.007 C 
ATOM      4  C   UNL     1       2.368   9.983   2.104  0.00  0.00    +0.019 C 
ATOM      5  C   UNL     1       3.113   8.827   1.295  0.00  0.00    -0.045 C 
ATOM      6  C   UNL     1       2.508   8.721  -0.191  0.00  0.00    +0.040 C 
ATOM      7  C   UNL     1       4.438   8.896   1.300  0.00  0.00    -0.033 C 
ATOM      8  C   UNL     1       5.047   9.965   2.045  0.00  0.00    -0.024 C 
ATOM      9  C   UNL     1       6.173   9.764   2.672  0.00  0.00    +0.033 C 
ATOM     10  C   UNL     1       6.569   8.352   2.792  0.00  0.00    +0.173 C 
ATOM     11  C   UNL     1       5.597   7.240   2.550  0.00  0.00    +0.074 C 
ATOM     12  O   UNL     1       7.722   8.087   3.249  0.00  0.00    -0.291 OA
ATOM     13  C   UNL     1       4.429  11.310   1.817  0.00  0.00    +0.026 C 
ATOM     14  C   UNL     1       4.810   7.471   1.264  0.00  0.00    +0.034 C 
ATOM     15  C   UNL     1       3.052  11.141   1.178  0.00  0.00    +0.009 C 
ATOM     16  C   UNL     1       0.031  10.284   2.471  0.00  0.00    +0.003 C 
ATOM     17  C   UNL     1       1.047   7.987   2.802  0.00  0.00    +0.003 C 
ATOM     18  C   UNL     1       1.419   7.591   0.330  0.00  0.00    +0.011 C 
ATOM     19  C   UNL     1      -1.193   9.449   2.262  0.00  0.00    +0.038 C 
ATOM     20  O   UNL     1      -1.171   8.819   0.022  0.00  0.00    -0.218 OA
ENDROOT
BRANCH   6  21
ATOM     21  C   UNL     1       3.575   7.662  -0.794  0.00  0.00    -0.019 A 
ATOM     22  C   UNL     1       3.025   6.403  -1.040  0.00  0.00    -0.003 A 
ATOM     23  C   UNL     1       3.003   5.827  -2.306  0.00  0.00    +0.014 A 
ATOM     24  C   UNL     1       3.739   6.376  -3.324  0.00  0.00    +0.048 A 
ATOM     25  C   UNL     1       4.529   7.465  -2.979  0.00  0.00    +0.014 A 
ATOM     26  C   UNL     1       3.954   8.275  -2.002  0.00  0.00    -0.003 A 
BRANCH  24  27
ATOM     27  N   UNL     1       3.503   6.004  -4.689  0.00  0.00    -0.304 N 
ATOM     28  C   UNL     1       3.666   6.982  -5.756  0.00  0.00    +0.112 C 
ATOM     29  C   UNL     1       2.435   5.030  -4.900  0.00  0.00    +0.112 C 
ENDBRANCH  24  27
ENDBRANCH   6  21
BRANCH   1  31
ATOM     30  C   UNL     1      -1.705   6.901   2.233  0.00  0.00    +0.075 C 
ATOM     31  C   UNL     1      -1.466   7.082   1.590  0.00  0.00    +0.178 C 
ATOM     32  O   UNL     1      -1.642   6.342   0.628  0.00  0.00    -0.293 OA
ENDBRANCH   1  31
TORSDOF 3
ENDMDL
MODEL 2
REMARK VINA RESULT:      -6.7      2.725      5.893
REMARK  Name = 
REMARK  3 active torsions:
REMARK  status: ('A' for Active; 'I' for Inactive)
REMARK    1  A    between atoms: C_2  and  C_4
REMARK    2  A    between atoms: C_20  and  C_21
REMARK    3  A    between atoms: C_24  and  N_25
REMARK                            x       y       z     vdW  Elec       q    Type
REMARK                         _______ _______ _______ _____ _____    ______ ____
ROOT
ATOM      1  C   UNL     1       2.309   5.443  -1.713  0.00  0.00    +0.177 C 
ATOM      2  C   UNL     1       2.600   6.772  -1.099  0.00  0.00    +0.033 C 
ATOM      3  C   UNL     1       3.579   6.219   0.068  0.00  0.00    +0.007 C 
ATOM      4  C   UNL     1       4.482   7.661   0.194  0.00  0.00    +0.019 C 
ATOM      5  C   UNL     1       3.216   8.599   0.445  0.00  0.00    -0.045 C 
ATOM      6  C   UNL     1       2.013   7.738   1.074  0.00  0.00    +0.040 C 
ATOM      7  C   UNL     1       3.460   9.709   1.132  0.00  0.00    -0.033 C 
ATOM      8  C   UNL     1       4.818   9.955   1.539  0.00  0.00    -0.024 C 
ATOM      9  C   UNL     1       5.280  11.174   1.563  0.00  0.00    +0.033 C 
ATOM     10  C   UNL     1       4.435  12.168   0.882  0.00  0.00    +0.173 C 
ATOM     11  C   UNL     1       3.348  11.761  -0.062  0.00  0.00    +0.074 C 
ATOM     12  O   UNL     1       4.738  13.394   0.996  0.00  0.00    -0.291 OA
ATOM     13  C   UNL     1       5.507   8.772   2.146  0.00  0.00    +0.026 C 
ATOM     14  C   UNL     1       2.494  10.646   0.535  0.00  0.00    +0.034 C 
ATOM     15  C   UNL     1       4.741   7.497   1.797  0.00  0.00    +0.009 C 
ATOM     16  C   UNL     1       4.610   5.618  -1.028  0.00  0.00    +0.003 C 
ATOM     17  C   UNL     1       3.385   7.589  -2.044  0.00  0.00    +0.003 C 
ATOM     18  C   UNL     1       1.430   7.437  -0.443  0.00  0.00    +0.011 C 
ATOM     19  C   UNL     1       3.702   4.880  -1.961  0.00  0.00    +0.038 C 
ATOM     20  O   UNL     1       1.696   4.592  -0.818  0.00  0.00    -0.218 OA
ENDROOT
BRANCH   6  21
ATOM     21  C   UNL     1       1.005   8.964   1.403  0.00  0.00    -0.019 A 
ATOM     22  C   UNL     1      -0.191   8.901   0.687  0.00  0.00    -0.003 A 
ATOM     23  C   UNL     1      -1.434   8.816   1.307  0.00  0.00    +0.014 A 
ATOM     24  C   UNL     1      -1.545   9.032   2.658  0.00  0.00    +0.048 A 
ATOM     25  C   UNL     1      -0.373   9.397   3.308  0.00  0.00    +0.014 A 
ATOM     26  C   UNL     1       0.764   8.792   2.778  0.00  0.00    -0.003 A 
BRANCH  24  27
ATOM     27  N   UNL     1      -2.731   8.654   3.370  0.00  0.00    -0.304 N 
ATOM     28  C   UNL     1      -3.352   7.360   3.127  0.00  0.00    +0.112 C 
ATOM     29  C   UNL     1      -3.661   9.741   3.665  0.00  0.00    +0.112 C 
ENDBRANCH  24  27
ENDBRANCH   6  21
BRANCH   1  31
ATOM     30  C   UNL     1       1.827   5.583  -3.629  0.00  0.00    +0.075 C 
ATOM     31  C   UNL     1       1.539   5.513  -2.984  0.00  0.00    +0.178 C 
ATOM     32  O   UNL     1       0.325   5.387  -2.854  0.00  0.00    -0.293 OA
ENDBRANCH   1  31
TORSDOF 3
ENDMDL
MODEL 3
REMARK VINA RESULT:      -6.4      3.550      7.090
REMARK  Name = 
REMARK  3 active torsions:
REMARK  status: ('A' for Active; 'I' for Inactive)
REMARK    1  A    between atoms: C_2  and  C_4
REMARK    2  A    between atoms: C_20  and  C_21
REMARK    3  A    between atoms: C_24  and  N_25
REMARK                            x       y       z     vdW  Elec       q    Type
REMARK                         _______ _______ _______ _____ _____    ______ ____
ROOT
ATOM      1  C   UNL     1       3.238   5.927  -6.777  0.00  0.00    +0.177 C 
ATOM      2  C   UNL     1       3.240   6.305  -5.333  0.00  0.00    +0.033 C 
ATOM      3  C   UNL     1       3.847   4.907  -4.783  0.00  0.00    +0.007 C 
ATOM      4  C   UNL     1       4.573   5.598  -3.402  0.00  0.00    +0.019 C 
ATOM      5  C   UNL     1       3.233   6.277  -2.863  0.00  0.00    -0.045 C 
ATOM      6  C   UNL     1       1.953   5.479  -3.420  0.00  0.00    +0.040 C 
ATOM      7  C   UNL     1       3.182   6.466  -1.550  0.00  0.00    -0.033 C 
ATOM      8  C   UNL     1       4.330   6.076  -0.776  0.00  0.00    -0.024 C 
ATOM      9  C   UNL     1       4.683   6.777   0.265  0.00  0.00    +0.033 C 
ATOM     10  C   UNL     1       4.026   8.089   0.377  0.00  0.00    +0.173 C 
ATOM     11  C   UNL     1       3.310   8.711  -0.780  0.00  0.00    +0.074 C 
ATOM     12  O   UNL     1       4.199   8.760   1.439  0.00  0.00    -0.291 OA
ATOM     13  C   UNL     1       4.875   4.722  -1.114  0.00  0.00    +0.026 C 
ATOM     14  C   UNL     1       2.387   7.702  -1.459  0.00  0.00    +0.034 C 
ATOM     15  C   UNL     1       4.337   4.277  -2.473  0.00  0.00    +0.009 C 
ATOM     16  C   UNL     1       5.201   5.109  -5.650  0.00  0.00    +0.003 C 
ATOM     17  C   UNL     1       4.223   7.382  -5.109  0.00  0.00    +0.003 C 
ATOM     18  C   UNL     1       1.885   6.491  -4.724  0.00  0.00    +0.011 C 
ATOM     19  C   UNL     1       4.674   5.470  -7.003  0.00  0.00    +0.038 C 
ATOM     20  O   UNL     1       2.436   4.831  -7.016  0.00  0.00    -0.218 OA
ENDROOT
BRANCH   6  21
ATOM     21  C   UNL     1       0.816   6.243  -2.554  0.00  0.00    -0.019 A 
ATOM     22  C   UNL     1       0.029   7.106  -3.317  0.00  0.00    -0.003 A 
ATOM     23  C   UNL     1      -1.349   6.959  -3.435  0.00  0.00    +0.014 A 
ATOM     24  C   UNL     1      -2.022   6.094  -2.610  0.00  0.00    +0.048 A 
ATOM     25  C   UNL     1      -1.252   5.462  -1.642  0.00  0.00    +0.014 A 
ATOM     26  C   UNL     1       0.042   5.173  -2.069  0.00  0.00    -0.003 A 
BRANCH  24  27
ATOM     27  N   UNL     1      -3.367   5.691  -2.903  0.00  0.00    -0.304 N 
ATOM     28  C   UNL     1      -3.659   4.935  -4.113  0.00  0.00    +0.112 C 
ATOM     29  C   UNL     1      -4.409   6.628  -2.493  0.00  0.00    +0.112 C 
ENDBRANCH  24  27
ENDBRANCH   6  21
BRANCH   1  31
ATOM     30  C   UNL     1       3.106   7.089  -8.375  0.00  0.00    +0.075 C 
ATOM     31  C   UNL     1       2.892   7.042  -7.700  0.00  0.00    +0.178 C 
ATOM     32  O   UNL     1       2.141   7.886  -7.223  0.00  0.00    -0.293 OA
ENDBRANCH   1  31
TORSDOF 3
ENDMDL
MODEL 4
REMARK VINA RESULT:      -6.0      8.264     13.041
REMARK  Name = 
REMARK  3 active torsions:
REMARK  status: ('A' for Active; 'I' for Inactive)
REMARK    1  A    between atoms: C_2  and  C_4
REMARK    2  A    between atoms: C_20  and  C_21
REMARK    3  A    between atoms: C_24  and  N_25
REMARK                            x       y       z     vdW  Elec       q    Type
REMARK                         _______ _______ _______ _____ _____    ______ ____
ROOT
ATOM      1  C   UNL     1       1.317   5.962  -8.040  0.00  0.00    +0.177 C 
ATOM      2  C   UNL     1       1.367   6.178  -9.515  0.00  0.00    +0.033 C 
ATOM      3  C   UNL     1       0.942   4.670  -9.931  0.00  0.00    +0.007 C 
ATOM      4  C   UNL     1       0.237   5.123 -11.417  0.00  0.00    +0.019 C 
ATOM      5  C   UNL     1       1.531   5.882 -11.962  0.00  0.00    -0.045 C 
ATOM      6  C   UNL     1       2.848   5.294 -11.254  0.00  0.00    +0.040 C 
ATOM      7  C   UNL     1       1.643   5.931 -13.284  0.00  0.00    -0.033 C 
ATOM      8  C   UNL     1       0.592   5.335 -14.065  0.00  0.00    -0.024 C 
ATOM      9  C   UNL     1       0.234   5.876 -15.196  0.00  0.00    +0.033 C 
ATOM     10  C   UNL     1       0.758   7.232 -15.426  0.00  0.00    +0.173 C 
ATOM     11  C   UNL     1       1.333   8.051 -14.313  0.00  0.00    +0.074 C 
ATOM     12  O   UNL     1       0.584   7.760 -16.565  0.00  0.00    -0.291 OA
ATOM     13  C   UNL     1       0.169   3.976 -13.602  0.00  0.00    +0.026 C 
ATOM     14  C   UNL     1       2.311   7.229 -13.477  0.00  0.00    +0.034 C 
ATOM     15  C   UNL     1       0.665   3.742 -12.175  0.00  0.00    +0.009 C 
ATOM     16  C   UNL     1      -0.477   4.816  -9.163  0.00  0.00    +0.003 C 
ATOM     17  C   UNL     1       0.294   7.110  -9.912  0.00  0.00    +0.003 C 
ATOM     18  C   UNL     1       2.730   6.443 -10.073  0.00  0.00    +0.011 C 
ATOM     19  C   UNL     1      -0.075   5.378  -7.836  0.00  0.00    +0.038 C 
ATOM     20  O   UNL     1       2.211   4.993  -7.637  0.00  0.00    -0.218 OA
ENDROOT
BRANCH   6  21
ATOM     21  C   UNL     1       3.953   6.078 -12.144  0.00  0.00    -0.019 A 
ATOM     22  C   UNL     1       4.580   7.116 -11.454  0.00  0.00    -0.003 A 
ATOM     23  C   UNL     1       5.954   7.151 -11.238  0.00  0.00    +0.014 A 
ATOM     24  C   UNL     1       6.778   6.280 -11.905  0.00  0.00    +0.048 A 
ATOM     25  C   UNL     1       6.156   5.448 -12.826  0.00  0.00    +0.014 A 
ATOM     26  C   UNL     1       4.875   5.059 -12.442  0.00  0.00    -0.003 A 
BRANCH  24  27
ATOM     27  N   UNL     1       8.135   6.080 -11.484  0.00  0.00    -0.304 N 
ATOM     28  C   UNL     1       9.176   5.816 -12.467  0.00  0.00    +0.112 C 
ATOM     29  C   UNL     1       8.302   5.395 -10.205  0.00  0.00    +0.112 C 
ENDBRANCH  24  27
ENDBRANCH   6  21
BRANCH   1  31
ATOM     30  C   UNL     1       1.265   7.284  -6.566  0.00  0.00    +0.075 C 
ATOM     31  C   UNL     1       1.488   7.202  -7.235  0.00  0.00    +0.178 C 
ATOM     32  O   UNL     1       2.108   8.097  -7.800  0.00  0.00    -0.293 OA
ENDBRANCH   1  31
TORSDOF 3
ENDMDL
MODEL 5
REMARK VINA RESULT:      -6.0      4.975      9.006
REMARK  Name = 
REMARK  3 active torsions:
REMARK  status: ('A' for Active; 'I' for Inactive)
REMARK    1  A    between atoms: C_2  and  C_4
REMARK    2  A    between atoms: C_20  and  C_21
REMARK    3  A    between atoms: C_24  and  N_25
REMARK                            x       y       z     vdW  Elec       q    Type
REMARK                         _______ _______ _______ _____ _____    ______ ____
ROOT
ATOM      1  C   UNL     1       3.791   6.029  -3.244  0.00  0.00    +0.177 C 
ATOM      2  C   UNL     1       2.964   5.866  -4.476  0.00  0.00    +0.033 C 
ATOM      3  C   UNL     1       3.542   7.167  -5.252  0.00  0.00    +0.007 C 
ATOM      4  C   UNL     1       3.264   6.539  -6.813  0.00  0.00    +0.019 C 
ATOM      5  C   UNL     1       1.714   6.242  -6.573  0.00  0.00    -0.045 C 
ATOM      6  C   UNL     1       1.145   7.207  -5.420  0.00  0.00    +0.040 C 
ATOM      7  C   UNL     1       0.959   6.255  -7.664  0.00  0.00    -0.033 C 
ATOM      8  C   UNL     1       1.611   6.498  -8.924  0.00  0.00    -0.024 C 
ATOM      9  C   UNL     1       1.197   5.892 -10.000  0.00  0.00    +0.033 C 
ATOM     10  C   UNL     1       0.265   4.778  -9.762  0.00  0.00    +0.173 C 
ATOM     11  C   UNL     1       0.103   4.165  -8.406  0.00  0.00    +0.074 C 
ATOM     12  O   UNL     1      -0.302   4.242 -10.761  0.00  0.00    -0.291 OA
ATOM     13  C   UNL     1       2.576   7.644  -8.911  0.00  0.00    +0.026 C 
ATOM     14  C   UNL     1      -0.057   5.241  -7.335  0.00  0.00    +0.034 C 
ATOM     15  C   UNL     1       2.934   7.997  -7.468  0.00  0.00    +0.009 C 
ATOM     16  C   UNL     1       5.045   6.562  -5.228  0.00  0.00    +0.003 C 
ATOM     17  C   UNL     1       3.386   4.647  -5.193  0.00  0.00    +0.003 C 
ATOM     18  C   UNL     1       1.493   6.059  -4.283  0.00  0.00    +0.011 C 
ATOM     19  C   UNL     1       5.204   6.134  -3.803  0.00  0.00    +0.038 C 
ATOM     20  O   UNL     1       3.530   7.225  -2.610  0.00  0.00    -0.218 OA
ENDROOT
BRANCH   6  21
ATOM     21  C   UNL     1      -0.425   6.831  -5.565  0.00  0.00    -0.019 A 
ATOM     22  C   UNL     1      -0.782   5.676  -4.869  0.00  0.00    -0.003 A 
ATOM     23  C   UNL     1      -1.736   5.673  -3.857  0.00  0.00    +0.014 A 
ATOM     24  C   UNL     1      -2.538   6.769  -3.665  0.00  0.00    +0.048 A 
ATOM     25  C   UNL     1      -2.371   7.806  -4.574  0.00  0.00    +0.014 A 
ATOM     26  C   UNL     1      -1.054   7.956  -5.003  0.00  0.00    -0.003 A 
BRANCH  24  27
ATOM     27  N   UNL     1      -3.302   6.922  -2.460  0.00  0.00    -0.304 N 
ATOM     28  C   UNL     1      -2.655   6.806  -1.161  0.00  0.00    +0.112 C 
ATOM     29  C   UNL     1      -4.673   6.420  -2.516  0.00  0.00    +0.112 C 
ENDBRANCH  24  27
ENDBRANCH   6  21
BRANCH   1  31
ATOM     30  C   UNL     1       4.207   4.424  -2.160  0.00  0.00    +0.075 C 
ATOM     31  C   UNL     1       3.690   4.894  -2.287  0.00  0.00    +0.178 C 
ATOM     32  O   UNL     1       2.635   4.843  -1.663  0.00  0.00    -0.293 OA
ENDBRANCH   1  31
TORSDOF 3
ENDMDL
MODEL 6
REMARK VINA RESULT:      -5.8      7.577     11.449
REMARK  Name = 
REMARK  3 active torsions:
REMARK  status: ('A' for Active; 'I' for Inactive)
REMARK    1  A    between atoms: C_2  and  C_4
REMARK    2  A    between atoms: C_20  and  C_21
REMARK    3  A    between atoms: C_24  and  N_25
REMARK                            x       y       z     vdW  Elec       q    Type
REMARK                         _______ _______ _______ _____ _____    ______ ____
ROOT
ATOM      1  C   UNL     1       0.952   5.722 -12.570  0.00  0.00    +0.177 C 
ATOM      2  C   UNL     1       1.675   5.638 -11.268  0.00  0.00    +0.033 C 
ATOM      3  C   UNL     1       1.109   7.028 -10.658  0.00  0.00    +0.007 C 
ATOM      4  C   UNL     1       1.238   6.536  -9.030  0.00  0.00    +0.019 C 
ATOM      5  C   UNL     1       2.784   6.150  -9.120  0.00  0.00    -0.045 C 
ATOM      6  C   UNL     1       3.485   6.979 -10.306  0.00  0.00    +0.040 C 
ATOM      7  C   UNL     1       3.455   6.231  -7.978  0.00  0.00    -0.033 C 
ATOM      8  C   UNL     1       2.724   6.617  -6.801  0.00  0.00    -0.024 C 
ATOM      9  C   UNL     1       3.025   6.095  -5.645  0.00  0.00    +0.033 C 
ATOM     10  C   UNL     1       3.915   4.924  -5.710  0.00  0.00    +0.173 C 
ATOM     11  C   UNL     1       4.146   4.183  -6.989  0.00  0.00    +0.074 C 
ATOM     12  O   UNL     1       4.377   4.458  -4.625  0.00  0.00    -0.291 OA
ATOM     13  C   UNL     1       1.822   7.798  -6.991  0.00  0.00    +0.026 C 
ATOM     14  C   UNL     1       4.439   5.147  -8.135  0.00  0.00    +0.034 C 
ATOM     15  C   UNL     1       1.591   8.033  -8.483  0.00  0.00    +0.009 C 
ATOM     16  C   UNL     1      -0.417   6.491 -10.747  0.00  0.00    +0.003 C 
ATOM     17  C   UNL     1       1.140   4.510 -10.481  0.00  0.00    +0.003 C 
ATOM     18  C   UNL     1       3.165   5.747 -11.360  0.00  0.00    +0.011 C 
ATOM     19  C   UNL     1      -0.491   5.940 -12.136  0.00  0.00    +0.038 C 
ATOM     20  O   UNL     1       1.321   6.842 -13.285  0.00  0.00    -0.218 OA
ENDROOT
BRANCH   6  21
ATOM     21  C   UNL     1       5.019   6.549 -10.005  0.00  0.00    -0.019 A 
ATOM     22  C   UNL     1       5.381   5.342 -10.603  0.00  0.00    -0.003 A 
ATOM     23  C   UNL     1       6.416   5.242 -11.527  0.00  0.00    +0.014 A 
ATOM     24  C   UNL     1       7.280   6.292 -11.708  0.00  0.00    +0.048 A 
ATOM     25  C   UNL     1       7.083   7.386 -10.874  0.00  0.00    +0.014 A 
ATOM     26  C   UNL     1       5.744   7.614 -10.571  0.00  0.00    -0.003 A 
BRANCH  24  27
ATOM     27  N   UNL     1       8.149   6.344 -12.848  0.00  0.00    -0.304 N 
ATOM     28  C   UNL     1       7.649   5.987 -14.168  0.00  0.00    +0.112 C 
ATOM     29  C   UNL     1       9.542   5.984 -12.595  0.00  0.00    +0.112 C 
ENDBRANCH  24  27
ENDBRANCH   6  21
BRANCH   1  31
ATOM     30  C   UNL     1       0.594   3.971 -13.423  0.00  0.00    +0.075 C 
ATOM     31  C   UNL     1       1.066   4.500 -13.413  0.00  0.00    +0.178 C 
ATOM     32  O   UNL     1       2.040   4.483 -14.159  0.00  0.00    -0.293 OA
ENDBRANCH   1  31
TORSDOF 3
ENDMDL
MODEL 7
REMARK VINA RESULT:      -5.8      5.112      8.978
REMARK  Name = 
REMARK  3 active torsions:
REMARK  status: ('A' for Active; 'I' for Inactive)
REMARK    1  A    between atoms: C_2  and  C_4
REMARK    2  A    between atoms: C_20  and  C_21
REMARK    3  A    between atoms: C_24  and  N_25
REMARK                            x       y       z     vdW  Elec       q    Type
REMARK                         _______ _______ _______ _____ _____    ______ ____
ROOT
ATOM      1  C   UNL     1       0.839   5.583  -9.602  0.00  0.00    +0.177 C 
ATOM      2  C   UNL     1       1.551   5.884  -8.325  0.00  0.00    +0.033 C 
ATOM      3  C   UNL     1       1.739   4.343  -7.858  0.00  0.00    +0.007 C 
ATOM      4  C   UNL     1       3.152   4.639  -6.949  0.00  0.00    +0.019 C 
ATOM      5  C   UNL     1       2.504   5.785  -6.048  0.00  0.00    -0.045 C 
ATOM      6  C   UNL     1       0.909   5.590  -5.979  0.00  0.00    +0.040 C 
ATOM      7  C   UNL     1       3.049   5.938  -4.847  0.00  0.00    -0.033 C 
ATOM      8  C   UNL     1       4.163   5.094  -4.509  0.00  0.00    -0.024 C 
ATOM      9  C   UNL     1       5.135   5.560  -3.776  0.00  0.00    +0.033 C 
ATOM     10  C   UNL     1       5.133   7.021  -3.604  0.00  0.00    +0.173 C 
ATOM     11  C   UNL     1       4.318   7.915  -4.486  0.00  0.00    +0.074 C 
ATOM     12  O   UNL     1       5.951   7.532  -2.781  0.00  0.00    -0.291 OA
ATOM     13  C   UNL     1       3.968   3.647  -4.841  0.00  0.00    +0.026 C 
ATOM     14  C   UNL     1       2.894   7.387  -4.633  0.00  0.00    +0.034 C 
ATOM     15  C   UNL     1       2.813   3.499  -5.832  0.00  0.00    +0.009 C 
ATOM     16  C   UNL     1       2.609   4.007  -9.183  0.00  0.00    +0.003 C 
ATOM     17  C   UNL     1       2.874   6.464  -8.626  0.00  0.00    +0.003 C 
ATOM     18  C   UNL     1       0.729   6.583  -7.288  0.00  0.00    +0.011 C 
ATOM     19  C   UNL     1       1.776   4.592 -10.280  0.00  0.00    +0.038 C 
ATOM     20  O   UNL     1      -0.345   4.913  -9.378  0.00  0.00    -0.218 OA
ENDROOT
BRANCH   6  21
ATOM     21  C   UNL     1       0.591   6.722  -4.864  0.00  0.00    -0.019 A 
ATOM     22  C   UNL     1      -0.519   7.508  -5.177  0.00  0.00    -0.003 A 
ATOM     23  C   UNL     1      -1.642   7.581  -4.359  0.00  0.00    +0.014 A 
ATOM     24  C   UNL     1      -1.603   7.064  -3.089  0.00  0.00    +0.048 A 
ATOM     25  C   UNL     1      -0.377   6.550  -2.684  0.00  0.00    +0.014 A 
ATOM     26  C   UNL     1       0.336   5.948  -3.717  0.00  0.00    -0.003 A 
BRANCH  24  27
ATOM     27  N   UNL     1      -2.809   6.845  -2.344  0.00  0.00    -0.304 N 
ATOM     28  C   UNL     1      -2.785   6.857  -0.888  0.00  0.00    +0.112 C 
ATOM     29  C   UNL     1      -3.754   5.905  -2.941  0.00  0.00    +0.112 C 
ENDBRANCH  24  27
ENDBRANCH   6  21
BRANCH   1  31
ATOM     30  C   UNL     1       0.096   7.245 -10.380  0.00  0.00    +0.075 C 
ATOM     31  C   UNL     1       0.615   6.770 -10.470  0.00  0.00    +0.178 C 
ATOM     32  O   UNL     1       1.446   6.916 -11.361  0.00  0.00    -0.293 OA
ENDBRANCH   1  31
TORSDOF 3
ENDMDL
MODEL 8
REMARK VINA RESULT:      -5.7      4.000      8.308
REMARK  Name = 
REMARK  3 active torsions:
REMARK  status: ('A' for Active; 'I' for Inactive)
REMARK    1  A    between atoms: C_2  and  C_4
REMARK    2  A    between atoms: C_20  and  C_21
REMARK    3  A    between atoms: C_24  and  N_25
REMARK                            x       y       z     vdW  Elec       q    Type
REMARK                         _______ _______ _______ _____ _____    ______ ____
ROOT
ATOM      1  C   UNL     1      -1.498   6.241  -4.725  0.00  0.00    +0.177 C 
ATOM      2  C   UNL     1      -0.222   6.268  -5.498  0.00  0.00    +0.033 C 
ATOM      3  C   UNL     1      -0.162   4.677  -5.800  0.00  0.00    +0.007 C 
ATOM      4  C   UNL     1       0.724   4.838  -7.249  0.00  0.00    +0.019 C 
ATOM      5  C   UNL     1       1.912   5.681  -6.596  0.00  0.00    -0.045 C 
ATOM      6  C   UNL     1       2.005   5.366  -5.022  0.00  0.00    +0.040 C 
ATOM      7  C   UNL     1       3.086   5.572  -7.206  0.00  0.00    -0.033 C 
ATOM      8  C   UNL     1       3.151   4.749  -8.384  0.00  0.00    -0.024 C 
ATOM      9  C   UNL     1       3.929   5.088  -9.373  0.00  0.00    +0.033 C 
ATOM     10  C   UNL     1       4.459   6.459  -9.301  0.00  0.00    +0.173 C 
ATOM     11  C   UNL     1       3.867   7.483  -8.384  0.00  0.00    +0.074 C 
ATOM     12  O   UNL     1       5.344   6.808 -10.140  0.00  0.00    -0.291 OA
ATOM     13  C   UNL     1       2.479   3.418  -8.248  0.00  0.00    +0.026 C 
ATOM     14  C   UNL     1       3.660   6.910  -6.985  0.00  0.00    +0.034 C 
ATOM     15  C   UNL     1       1.538   3.438  -7.044  0.00  0.00    +0.009 C 
ATOM     16  C   UNL     1      -1.568   4.736  -6.602  0.00  0.00    +0.003 C 
ATOM     17  C   UNL     1      -0.431   6.994  -6.766  0.00  0.00    +0.003 C 
ATOM     18  C   UNL     1       0.994   6.634  -4.705  0.00  0.00    +0.011 C 
ATOM     19  C   UNL     1      -2.444   5.513  -5.670  0.00  0.00    +0.038 C 
ATOM     20  O   UNL     1      -1.392   5.457  -3.596  0.00  0.00    -0.218 OA
ENDROOT
BRANCH   6  21
ATOM     21  C   UNL     1       3.380   6.165  -4.713  0.00  0.00    -0.019 A 
ATOM     22  C   UNL     1       3.171   7.469  -4.262  0.00  0.00    -0.003 A 
ATOM     23  C   UNL     1       3.615   7.916  -3.022  0.00  0.00    +0.014 A 
ATOM     24  C   UNL     1       4.489   7.153  -2.289  0.00  0.00    +0.048 A 
ATOM     25  C   UNL     1       4.927   5.984  -2.898  0.00  0.00    +0.014 A 
ATOM     26  C   UNL     1       3.958   5.382  -3.697  0.00  0.00    -0.003 A 
BRANCH  24  27
ATOM     27  N   UNL     1       4.720   7.427  -0.900  0.00  0.00    -0.304 N 
ATOM     28  C   UNL     1       4.840   6.333   0.054  0.00  0.00    +0.112 C 
ATOM     29  C   UNL     1       4.080   8.633  -0.381  0.00  0.00    +0.112 C 
ENDBRANCH  24  27
ENDBRANCH   6  21
BRANCH   1  31
ATOM     30  C   UNL     1      -2.347   8.026  -4.842  0.00  0.00    +0.075 C 
ATOM     31  C   UNL     1      -2.033   7.587  -4.382  0.00  0.00    +0.178 C 
ATOM     32  O   UNL     1      -1.943   7.885  -3.195  0.00  0.00    -0.293 OA
ENDBRANCH   1  31
TORSDOF 3
ENDMDL
MODEL 9
REMARK VINA RESULT:      -5.5      2.735      6.006
REMARK  Name = 
REMARK  3 active torsions:
REMARK  status: ('A' for Active; 'I' for Inactive)
REMARK    1  A    between atoms: C_2  and  C_4
REMARK    2  A    between atoms: C_20  and  C_21
REMARK    3  A    between atoms: C_24  and  N_25
REMARK                            x       y       z     vdW  Elec       q    Type
REMARK                         _______ _______ _______ _____ _____    ______ ____
ROOT
ATOM      1  C   UNL     1       1.436   5.450  -2.953  0.00  0.00    +0.177 C 
ATOM      2  C   UNL     1       1.823   6.589  -2.069  0.00  0.00    +0.033 C 
ATOM      3  C   UNL     1       2.929   5.777  -1.206  0.00  0.00    +0.007 C 
ATOM      4  C   UNL     1       3.866   7.155  -0.839  0.00  0.00    +0.019 C 
ATOM      5  C   UNL     1       2.656   7.985  -0.210  0.00  0.00    -0.045 C 
ATOM      6  C   UNL     1       1.525   6.979   0.331  0.00  0.00    +0.040 C 
ATOM      7  C   UNL     1       3.003   8.893   0.695  0.00  0.00    -0.033 C 
ATOM      8  C   UNL     1       4.405   9.049   0.980  0.00  0.00    -0.024 C 
ATOM      9  C   UNL     1       4.888  10.230   1.247  0.00  0.00    +0.033 C 
ATOM     10  C   UNL     1       3.984  11.350   0.943  0.00  0.00    +0.173 C 
ATOM     11  C   UNL     1       2.781  11.175   0.069  0.00  0.00    +0.074 C 
ATOM     12  O   UNL     1       4.319  12.514   1.318  0.00  0.00    -0.291 OA
ATOM     13  C   UNL     1       5.142   7.762   1.185  0.00  0.00    +0.026 C 
ATOM     14  C   UNL     1       1.988   9.936   0.473  0.00  0.00    +0.034 C 
ATOM     15  C   UNL     1       4.317   6.602   0.629  0.00  0.00    +0.009 C 
ATOM     16  C   UNL     1       3.806   5.480  -2.535  0.00  0.00    +0.003 C 
ATOM     17  C   UNL     1       2.501   7.625  -2.872  0.00  0.00    +0.003 C 
ATOM     18  C   UNL     1       0.755   7.055  -1.130  0.00  0.00    +0.011 C 
ATOM     19  C   UNL     1       2.778   4.984  -3.503  0.00  0.00    +0.038 C 
ATOM     20  O   UNL     1       0.922   4.395  -2.228  0.00  0.00    -0.218 OA
ENDROOT
BRANCH   6  21
ATOM     21  C   UNL     1       0.587   8.072   1.074  0.00  0.00    -0.019 A 
ATOM     22  C   UNL     1      -0.712   8.118   0.567  0.00  0.00    -0.003 A 
ATOM     23  C   UNL     1      -1.834   7.861   1.349  0.00  0.00    +0.014 A 
ATOM     24  C   UNL     1      -1.717   7.783   2.714  0.00  0.00    +0.048 A 
ATOM     25  C   UNL     1      -0.452   8.044   3.227  0.00  0.00    +0.014 A 
ATOM     26  C   UNL     1       0.579   7.605   2.401  0.00  0.00    -0.003 A 
BRANCH  24  27
ATOM     27  N   UNL     1      -2.767   7.222   3.513  0.00  0.00    -0.304 N 
ATOM     28  C   UNL     1      -3.081   5.803   3.422  0.00  0.00    +0.112 C 
ATOM     29  C   UNL     1      -3.914   8.096   3.749  0.00  0.00    +0.112 C 
ENDBRANCH  24  27
ENDBRANCH   6  21
BRANCH   1  31
ATOM     30  C   UNL     1       0.724   5.995  -4.718  0.00  0.00    +0.075 C 
ATOM     31  C   UNL     1       0.516   5.822  -4.062  0.00  0.00    +0.178 C 
ATOM     32  O   UNL     1      -0.676   5.762  -3.779  0.00  0.00    -0.293 OA
ENDBRANCH   1  31
TORSDOF 3
ENDMDL
