MODEL 1
REMARK VINA RESULT:      -6.6      0.000      0.000
REMARK  Name = 
REMARK  6 active torsions:
REMARK  status: ('A' for Active; 'I' for Inactive)
REMARK    1  A    between atoms: C_2  and  C_4
REMARK    2  A    between atoms: C_8  and  C_9
REMARK    3  A    between atoms: C_12  and  O_13
REMARK    4  A    between atoms: O_13  and  C_14
REMARK    5  A    between atoms: C_14  and  O_15
REMARK    6  A    between atoms: O_15  and  P_16
REMARK                            x       y       z     vdW  Elec       q    Type
REMARK                         _______ _______ _______ _____ _____    ______ ____
ROOT
ATOM      1  C   UNL     1       0.349   5.609  -6.471  0.00  0.00    +0.011 A 
ATOM      2  C   UNL     1       0.125   6.114  -5.196  0.00  0.00    +0.133 A 
ATOM      3  C   UNL     1      -1.195   6.196  -4.763  0.00  0.00    +0.011 A 
ATOM      4  C   UNL     1      -2.176   5.561  -5.516  0.00  0.00    -0.001 A 
ATOM      5  C   UNL     1      -1.943   5.347  -6.871  0.00  0.00    -0.000 A 
ATOM      6  C   UNL     1      -0.672   5.516  -7.409  0.00  0.00    -0.001 A 
ENDROOT
BRANCH   3   7
ATOM      7  C   UNL     1      -1.591   7.182  -3.708  0.00  0.00    +0.025 C 
ATOM      8  C   UNL     1      -2.852   6.661  -3.030  0.00  0.00    +0.005 C 
ATOM      9  C   UNL     1      -1.980   8.450  -4.457  0.00  0.00    +0.005 C 
ENDBRANCH   3   7
BRANCH   1  11
ATOM     10  C   UNL     1       1.931   5.098  -8.299  0.00  0.00    +0.005 C 
ATOM     11  C   UNL     1       1.729   5.129  -6.796  0.00  0.00    +0.025 C 
ATOM     12  C   UNL     1       1.936   3.702  -6.302  0.00  0.00    +0.005 C 
ENDBRANCH   1  11
BRANCH   2  13
ATOM     13  O   UNL     1       1.113   6.945  -4.661  0.00  0.00    -0.448 OA
BRANCH  13  14
ATOM     14  C   UNL     1       1.947   6.598  -3.595  0.00  0.00    +0.369 C 
BRANCH  14  15
ATOM     15  O   UNL     1       1.706   5.303  -3.177  0.00  0.00    -0.228 OA
BRANCH  15  16
ATOM     16  P   UNL     1       1.139   5.249  -1.585  0.00  0.00    +0.535 P 
ATOM     17  O   UNL     1       1.324   6.811  -0.948  0.00  0.00    -0.114 OA
ATOM     18  O   UNL     1       2.079   4.211  -0.621  0.00  0.00    -0.114 OA
ATOM     19  O   UNL     1      -0.295   4.781  -1.519  0.00  0.00    -0.222 OA
ENDBRANCH  15  16
ENDBRANCH  14  15
ENDBRANCH  13  14
ENDBRANCH   2  13
TORSDOF 6
ENDMDL
MODEL 2
REMARK VINA RESULT:      -6.4      0.795      3.892
REMARK  Name = 
REMARK  6 active torsions:
REMARK  status: ('A' for Active; 'I' for Inactive)
REMARK    1  A    between atoms: C_2  and  C_4
REMARK    2  A    between atoms: C_8  and  C_9
REMARK    3  A    between atoms: C_12  and  O_13
REMARK    4  A    between atoms: O_13  and  C_14
REMARK    5  A    between atoms: C_14  and  O_15
REMARK    6  A    between atoms: O_15  and  P_16
REMARK                            x       y       z     vdW  Elec       q    Type
REMARK                         _______ _______ _______ _____ _____    ______ ____
ROOT
ATOM      1  C   UNL     1      -0.974   6.367  -5.134  0.00  0.00    +0.011 A 
ATOM      2  C   UNL     1       0.345   6.623  -5.489  0.00  0.00    +0.133 A 
ATOM      3  C   UNL     1       0.770   6.177  -6.737  0.00  0.00    +0.011 A 
ATOM      4  C   UNL     1      -0.188   5.724  -7.637  0.00  0.00    -0.001 A 
ATOM      5  C   UNL     1      -1.390   5.231  -7.139  0.00  0.00    -0.000 A 
ATOM      6  C   UNL     1      -1.741   5.424  -5.808  0.00  0.00    -0.001 A 
ENDROOT
BRANCH   3   7
ATOM      7  C   UNL     1       2.219   5.901  -6.994  0.00  0.00    +0.025 C 
ATOM      8  C   UNL     1       2.601   6.586  -8.300  0.00  0.00    +0.005 C 
ATOM      9  C   UNL     1       2.313   4.400  -7.235  0.00  0.00    +0.005 C 
ENDBRANCH   3   7
BRANCH   1  11
ATOM     10  C   UNL     1      -2.842   6.525  -3.524  0.00  0.00    +0.005 C 
ATOM     11  C   UNL     1      -1.563   7.173  -4.019  0.00  0.00    +0.025 C 
ATOM     12  C   UNL     1      -1.943   8.568  -4.500  0.00  0.00    +0.005 C 
ENDBRANCH   1  11
BRANCH   2  13
ATOM     13  O   UNL     1       1.253   6.824  -4.446  0.00  0.00    -0.448 OA
BRANCH  13  14
ATOM     14  C   UNL     1       1.695   5.821  -3.579  0.00  0.00    +0.369 C 
BRANCH  14  15
ATOM     15  O   UNL     1       1.955   6.331  -2.322  0.00  0.00    -0.228 OA
BRANCH  15  16
ATOM     16  P   UNL     1       1.260   5.389  -1.101  0.00  0.00    +0.535 P 
ATOM     17  O   UNL     1      -0.205   4.795  -1.719  0.00  0.00    -0.114 OA
ATOM     18  O   UNL     1       0.875   6.322   0.266  0.00  0.00    -0.114 OA
ATOM     19  O   UNL     1       2.180   4.273  -0.665  0.00  0.00    -0.222 OA
ENDBRANCH  15  16
ENDBRANCH  14  15
ENDBRANCH  13  14
ENDBRANCH   2  13
TORSDOF 6
ENDMDL
MODEL 3
REMARK VINA RESULT:      -6.3      1.934      2.602
REMARK  Name = 
REMARK  6 active torsions:
REMARK  status: ('A' for Active; 'I' for Inactive)
REMARK    1  A    between atoms: C_2  and  C_4
REMARK    2  A    between atoms: C_8  and  C_9
REMARK    3  A    between atoms: C_12  and  O_13
REMARK    4  A    between atoms: O_13  and  C_14
REMARK    5  A    between atoms: C_14  and  O_15
REMARK    6  A    between atoms: O_15  and  P_16
REMARK                            x       y       z     vdW  Elec       q    Type
REMARK                         _______ _______ _______ _____ _____    ______ ____
ROOT
ATOM      1  C   UNL     1       0.121   5.677  -6.407  0.00  0.00    +0.011 A 
ATOM      2  C   UNL     1      -0.019   6.173  -5.116  0.00  0.00    +0.133 A 
ATOM      3  C   UNL     1      -1.307   6.246  -4.594  0.00  0.00    +0.011 A 
ATOM      4  C   UNL     1      -2.334   5.609  -5.283  0.00  0.00    -0.001 A 
ATOM      5  C   UNL     1      -2.192   5.403  -6.651  0.00  0.00    -0.000 A 
ATOM      6  C   UNL     1      -0.962   5.583  -7.273  0.00  0.00    -0.001 A 
ENDROOT
BRANCH   3   7
ATOM      7  C   UNL     1      -1.636   7.224  -3.509  0.00  0.00    +0.025 C 
ATOM      8  C   UNL     1      -2.850   6.696  -2.756  0.00  0.00    +0.005 C 
ATOM      9  C   UNL     1      -2.075   8.496  -4.224  0.00  0.00    +0.005 C 
ENDBRANCH   3   7
BRANCH   1  11
ATOM     10  C   UNL     1       1.553   5.112  -8.339  0.00  0.00    +0.005 C 
ATOM     11  C   UNL     1       1.478   5.207  -6.827  0.00  0.00    +0.025 C 
ATOM     12  C   UNL     1       1.755   3.807  -6.293  0.00  0.00    +0.005 C 
ENDBRANCH   1  11
BRANCH   2  13
ATOM     13  O   UNL     1       0.998   7.008  -4.646  0.00  0.00    -0.448 OA
BRANCH  13  14
ATOM     14  C   UNL     1       2.009   6.605  -3.769  0.00  0.00    +0.369 C 
BRANCH  14  15
ATOM     15  O   UNL     1       3.120   7.417  -3.886  0.00  0.00    -0.228 OA
BRANCH  15  16
ATOM     16  P   UNL     1       4.482   6.554  -4.397  0.00  0.00    +0.535 P 
ATOM     17  O   UNL     1       4.449   5.066  -3.582  0.00  0.00    -0.114 OA
ATOM     18  O   UNL     1       5.923   7.332  -3.941  0.00  0.00    -0.114 OA
ATOM     19  O   UNL     1       4.498   6.374  -5.896  0.00  0.00    -0.222 OA
ENDBRANCH  15  16
ENDBRANCH  14  15
ENDBRANCH  13  14
ENDBRANCH   2  13
TORSDOF 6
ENDMDL
MODEL 4
REMARK VINA RESULT:      -6.2      7.180      8.998
REMARK  Name = 
REMARK  6 active torsions:
REMARK  status: ('A' for Active; 'I' for Inactive)
REMARK    1  A    between atoms: C_2  and  C_4
REMARK    2  A    between atoms: C_8  and  C_9
REMARK    3  A    between atoms: C_12  and  O_13
REMARK    4  A    between atoms: O_13  and  C_14
REMARK    5  A    between atoms: C_14  and  O_15
REMARK    6  A    between atoms: O_15  and  P_16
REMARK                            x       y       z     vdW  Elec       q    Type
REMARK                         _______ _______ _______ _____ _____    ______ ____
ROOT
ATOM      1  C   UNL     1       1.380   6.417 -12.518  0.00  0.00    +0.011 A 
ATOM      2  C   UNL     1       2.366   6.152 -11.575  0.00  0.00    +0.133 A 
ATOM      3  C   UNL     1       2.008   6.241 -10.233  0.00  0.00    +0.011 A 
ATOM      4  C   UNL     1       0.659   6.350  -9.917  0.00  0.00    -0.001 A 
ATOM      5  C   UNL     1      -0.206   6.889 -10.862  0.00  0.00    -0.000 A 
ATOM      6  C   UNL     1       0.203   7.072 -12.178  0.00  0.00    -0.001 A 
ENDROOT
BRANCH   3   7
ATOM      7  C   UNL     1       3.042   6.522  -9.187  0.00  0.00    +0.025 C 
ATOM      8  C   UNL     1       3.259   5.243  -8.388  0.00  0.00    +0.005 C 
ATOM      9  C   UNL     1       2.403   7.532  -8.242  0.00  0.00    +0.005 C 
ENDBRANCH   3   7
BRANCH   1  11
ATOM     10  C   UNL     1       0.688   6.663 -14.877  0.00  0.00    +0.005 C 
ATOM     11  C   UNL     1       1.609   5.936 -13.917  0.00  0.00    +0.025 C 
ATOM     12  C   UNL     1       1.280   4.453 -14.041  0.00  0.00    +0.005 C 
ENDBRANCH   1  11
BRANCH   2  13
ATOM     13  O   UNL     1       3.692   6.323 -11.982  0.00  0.00    -0.448 OA
BRANCH  13  14
ATOM     14  C   UNL     1       4.673   5.330 -11.917  0.00  0.00    +0.369 C 
BRANCH  14  15
ATOM     15  O   UNL     1       5.122   4.993 -13.179  0.00  0.00    -0.228 OA
BRANCH  15  16
ATOM     16  P   UNL     1       6.662   5.620 -13.490  0.00  0.00    +0.535 P 
ATOM     17  O   UNL     1       6.775   7.081 -12.632  0.00  0.00    -0.114 OA
ATOM     18  O   UNL     1       6.863   6.000 -15.134  0.00  0.00    -0.114 OA
ATOM     19  O   UNL     1       7.750   4.651 -13.095  0.00  0.00    -0.222 OA
ENDBRANCH  15  16
ENDBRANCH  14  15
ENDBRANCH  13  14
ENDBRANCH   2  13
TORSDOF 6
ENDMDL
MODEL 5
REMARK VINA RESULT:      -6.2      7.074      9.090
REMARK  Name = 
REMARK  6 active torsions:
REMARK  status: ('A' for Active; 'I' for Inactive)
REMARK    1  A    between atoms: C_2  and  C_4
REMARK    2  A    between atoms: C_8  and  C_9
REMARK    3  A    between atoms: C_12  and  O_13
REMARK    4  A    between atoms: O_13  and  C_14
REMARK    5  A    between atoms: C_14  and  O_15
REMARK    6  A    between atoms: O_15  and  P_16
REMARK                            x       y       z     vdW  Elec       q    Type
REMARK                         _______ _______ _______ _____ _____    ______ ____
ROOT
ATOM      1  C   UNL     1       5.823   5.899 -10.507  0.00  0.00    +0.011 A 
ATOM      2  C   UNL     1       4.446   5.713 -10.561  0.00  0.00    +0.133 A 
ATOM      3  C   UNL     1       3.793   5.416  -9.368  0.00  0.00    +0.011 A 
ATOM      4  C   UNL     1       4.499   5.556  -8.178  0.00  0.00    -0.001 A 
ATOM      5  C   UNL     1       5.885   5.454  -8.209  0.00  0.00    -0.000 A 
ATOM      6  C   UNL     1       6.573   5.476  -9.417  0.00  0.00    -0.001 A 
ENDROOT
BRANCH   3   7
ATOM      7  C   UNL     1       2.489   4.680  -9.376  0.00  0.00    +0.025 C 
ATOM      8  C   UNL     1       1.377   5.697  -9.155  0.00  0.00    +0.005 C 
ATOM      9  C   UNL     1       2.520   3.780  -8.148  0.00  0.00    +0.005 C 
ENDBRANCH   3   7
BRANCH   1  11
ATOM     10  C   UNL     1       7.942   6.239 -11.730  0.00  0.00    +0.005 C 
ATOM     11  C   UNL     1       6.473   6.609 -11.652  0.00  0.00    +0.025 C 
ATOM     12  C   UNL     1       6.418   8.119 -11.454  0.00  0.00    +0.005 C 
ENDBRANCH   1  11
BRANCH   2  13
ATOM     13  O   UNL     1       3.907   5.333 -11.793  0.00  0.00    -0.448 OA
BRANCH  13  14
ATOM     14  C   UNL     1       3.011   6.107 -12.536  0.00  0.00    +0.369 C 
BRANCH  14  15
ATOM     15  O   UNL     1       2.835   5.583 -13.802  0.00  0.00    -0.228 OA
BRANCH  15  16
ATOM     16  P   UNL     1       1.270   4.983 -14.025  0.00  0.00    +0.535 P 
ATOM     17  O   UNL     1       0.457   5.180 -12.547  0.00  0.00    -0.114 OA
ATOM     18  O   UNL     1       1.280   3.317 -14.362  0.00  0.00    -0.114 OA
ATOM     19  O   UNL     1       0.558   5.687 -15.155  0.00  0.00    -0.222 OA
ENDBRANCH  15  16
ENDBRANCH  14  15
ENDBRANCH  13  14
ENDBRANCH   2  13
TORSDOF 6
ENDMDL
MODEL 6
REMARK VINA RESULT:      -6.2      2.481      5.332
REMARK  Name = 
REMARK  6 active torsions:
REMARK  status: ('A' for Active; 'I' for Inactive)
REMARK    1  A    between atoms: C_2  and  C_4
REMARK    2  A    between atoms: C_8  and  C_9
REMARK    3  A    between atoms: C_12  and  O_13
REMARK    4  A    between atoms: O_13  and  C_14
REMARK    5  A    between atoms: C_14  and  O_15
REMARK    6  A    between atoms: O_15  and  P_16
REMARK                            x       y       z     vdW  Elec       q    Type
REMARK                         _______ _______ _______ _____ _____    ______ ____
ROOT
ATOM      1  C   UNL     1       3.339   6.450  -3.014  0.00  0.00    +0.011 A 
ATOM      2  C   UNL     1       2.962   5.813  -4.191  0.00  0.00    +0.133 A 
ATOM      3  C   UNL     1       3.690   6.107  -5.340  0.00  0.00    +0.011 A 
ATOM      4  C   UNL     1       4.876   6.819  -5.204  0.00  0.00    -0.001 A 
ATOM      5  C   UNL     1       5.033   7.648  -4.098  0.00  0.00    -0.000 A 
ATOM      6  C   UNL     1       4.155   7.575  -3.023  0.00  0.00    -0.001 A 
ENDROOT
BRANCH   3   7
ATOM      7  C   UNL     1       3.074   5.941  -6.694  0.00  0.00    +0.025 C 
ATOM      8  C   UNL     1       4.178   5.536  -7.663  0.00  0.00    +0.005 C 
ATOM      9  C   UNL     1       2.610   7.332  -7.107  0.00  0.00    +0.005 C 
ENDBRANCH   3   7
BRANCH   1  11
ATOM     10  C   UNL     1       2.590   6.960  -0.716  0.00  0.00    +0.005 C 
ATOM     11  C   UNL     1       2.867   5.860  -1.722  0.00  0.00    +0.025 C 
ATOM     12  C   UNL     1       3.942   4.973  -1.107  0.00  0.00    +0.005 C 
ENDBRANCH   1  11
BRANCH   2  13
ATOM     13  O   UNL     1       1.643   5.358  -4.268  0.00  0.00    -0.448 OA
BRANCH  13  14
ATOM     14  C   UNL     1       0.517   6.186  -4.231  0.00  0.00    +0.369 C 
BRANCH  14  15
ATOM     15  O   UNL     1      -0.645   5.442  -4.158  0.00  0.00    -0.228 OA
BRANCH  15  16
ATOM     16  P   UNL     1      -1.363   5.540  -2.630  0.00  0.00    +0.535 P 
ATOM     17  O   UNL     1      -2.847   4.722  -2.736  0.00  0.00    -0.114 OA
ATOM     18  O   UNL     1      -1.717   7.147  -2.207  0.00  0.00    -0.114 OA
ATOM     19  O   UNL     1      -0.475   4.956  -1.557  0.00  0.00    -0.222 OA
ENDBRANCH  15  16
ENDBRANCH  14  15
ENDBRANCH  13  14
ENDBRANCH   2  13
TORSDOF 6
ENDMDL
MODEL 7
REMARK VINA RESULT:      -6.1      2.334      4.385
REMARK  Name = 
REMARK  6 active torsions:
REMARK  status: ('A' for Active; 'I' for Inactive)
REMARK    1  A    between atoms: C_2  and  C_4
REMARK    2  A    between atoms: C_8  and  C_9
REMARK    3  A    between atoms: C_12  and  O_13
REMARK    4  A    between atoms: O_13  and  C_14
REMARK    5  A    between atoms: C_14  and  O_15
REMARK    6  A    between atoms: O_15  and  P_16
REMARK                            x       y       z     vdW  Elec       q    Type
REMARK                         _______ _______ _______ _____ _____    ______ ____
ROOT
ATOM      1  C   UNL     1       2.568   6.412  -6.005  0.00  0.00    +0.011 A 
ATOM      2  C   UNL     1       2.428   6.768  -4.668  0.00  0.00    +0.133 A 
ATOM      3  C   UNL     1       3.558   6.682  -3.861  0.00  0.00    +0.011 A 
ATOM      4  C   UNL     1       4.791   6.482  -4.473  0.00  0.00    -0.001 A 
ATOM      5  C   UNL     1       4.825   5.861  -5.717  0.00  0.00    -0.000 A 
ATOM      6  C   UNL     1       3.660   5.681  -6.454  0.00  0.00    -0.001 A 
ENDROOT
BRANCH   3   7
ATOM      7  C   UNL     1       3.425   6.500  -2.381  0.00  0.00    +0.025 C 
ATOM      8  C   UNL     1       4.565   7.258  -1.712  0.00  0.00    +0.005 C 
ATOM      9  C   UNL     1       3.669   5.017  -2.128  0.00  0.00    +0.005 C 
ENDBRANCH   3   7
BRANCH   1  11
ATOM     10  C   UNL     1       0.868   5.690  -7.646  0.00  0.00    +0.005 C 
ATOM     11  C   UNL     1       1.516   6.879  -6.962  0.00  0.00    +0.025 C 
ATOM     12  C   UNL     1       2.128   7.732  -8.066  0.00  0.00    +0.005 C 
ENDBRANCH   1  11
BRANCH   2  13
ATOM     13  O   UNL     1       1.144   6.685  -4.123  0.00  0.00    -0.448 OA
BRANCH  13  14
ATOM     14  C   UNL     1       0.399   5.506  -4.028  0.00  0.00    +0.369 C 
BRANCH  14  15
ATOM     15  O   UNL     1      -0.953   5.762  -4.150  0.00  0.00    -0.228 OA
BRANCH  15  16
ATOM     16  P   UNL     1      -1.759   5.615  -2.670  0.00  0.00    +0.535 P 
ATOM     17  O   UNL     1      -2.235   7.181  -2.218  0.00  0.00    -0.114 OA
ATOM     18  O   UNL     1      -0.724   5.044  -1.448  0.00  0.00    -0.114 OA
ATOM     19  O   UNL     1      -2.937   4.675  -2.766  0.00  0.00    -0.222 OA
ENDBRANCH  15  16
ENDBRANCH  14  15
ENDBRANCH  13  14
ENDBRANCH   2  13
TORSDOF 6
ENDMDL
MODEL 8
REMARK VINA RESULT:      -6.1      1.406      1.905
REMARK  Name = 
REMARK  6 active torsions:
REMARK  status: ('A' for Active; 'I' for Inactive)
REMARK    1  A    between atoms: C_2  and  C_4
REMARK    2  A    between atoms: C_8  and  C_9
REMARK    3  A    between atoms: C_12  and  O_13
REMARK    4  A    between atoms: O_13  and  C_14
REMARK    5  A    between atoms: C_14  and  O_15
REMARK    6  A    between atoms: O_15  and  P_16
REMARK                            x       y       z     vdW  Elec       q    Type
REMARK                         _______ _______ _______ _____ _____    ______ ____
ROOT
ATOM      1  C   UNL     1       0.742   5.469  -5.892  0.00  0.00    +0.011 A 
ATOM      2  C   UNL     1       0.220   5.917  -4.684  0.00  0.00    +0.133 A 
ATOM      3  C   UNL     1      -1.155   6.115  -4.615  0.00  0.00    +0.011 A 
ATOM      4  C   UNL     1      -1.943   5.637  -5.657  0.00  0.00    -0.001 A 
ATOM      5  C   UNL     1      -1.365   5.481  -6.912  0.00  0.00    -0.000 A 
ATOM      6  C   UNL     1       0.014   5.544  -7.073  0.00  0.00    -0.001 A 
ENDROOT
BRANCH   3   7
ATOM      7  C   UNL     1      -1.738   7.072  -3.623  0.00  0.00    +0.025 C 
ATOM      8  C   UNL     1      -3.085   6.520  -3.175  0.00  0.00    +0.005 C 
ATOM      9  C   UNL     1      -2.019   8.351  -4.403  0.00  0.00    +0.005 C 
ENDBRANCH   3   7
BRANCH   1  11
ATOM     10  C   UNL     1       3.109   5.811  -6.511  0.00  0.00    +0.005 C 
ATOM     11  C   UNL     1       2.110   4.863  -5.876  0.00  0.00    +0.025 C 
ATOM     12  C   UNL     1       2.145   3.583  -6.703  0.00  0.00    +0.005 C 
ENDBRANCH   1  11
BRANCH   2  13
ATOM     13  O   UNL     1       1.092   6.602  -3.835  0.00  0.00    -0.448 OA
BRANCH  13  14
ATOM     14  C   UNL     1       1.531   6.123  -2.597  0.00  0.00    +0.369 C 
BRANCH  14  15
ATOM     15  O   UNL     1       2.875   5.806  -2.635  0.00  0.00    -0.228 OA
BRANCH  15  16
ATOM     16  P   UNL     1       3.617   6.017  -1.130  0.00  0.00    +0.535 P 
ATOM     17  O   UNL     1       4.325   4.529  -0.723  0.00  0.00    -0.114 OA
ATOM     18  O   UNL     1       2.481   6.369   0.083  0.00  0.00    -0.114 OA
ATOM     19  O   UNL     1       4.633   7.134  -1.161  0.00  0.00    -0.222 OA
ENDBRANCH  15  16
ENDBRANCH  14  15
ENDBRANCH  13  14
ENDBRANCH   2  13
TORSDOF 6
ENDMDL
MODEL 9
REMARK VINA RESULT:      -6.0      1.509      4.040
REMARK  Name = 
REMARK  6 active torsions:
REMARK  status: ('A' for Active; 'I' for Inactive)
REMARK    1  A    between atoms: C_2  and  C_4
REMARK    2  A    between atoms: C_8  and  C_9
REMARK    3  A    between atoms: C_12  and  O_13
REMARK    4  A    between atoms: O_13  and  C_14
REMARK    5  A    between atoms: C_14  and  O_15
REMARK    6  A    between atoms: O_15  and  P_16
REMARK                            x       y       z     vdW  Elec       q    Type
REMARK                         _______ _______ _______ _____ _____    ______ ____
ROOT
ATOM      1  C   UNL     1      -1.275   5.840  -5.016  0.00  0.00    +0.011 A 
ATOM      2  C   UNL     1       0.071   5.625  -4.743  0.00  0.00    +0.133 A 
ATOM      3  C   UNL     1       0.901   5.312  -5.815  0.00  0.00    +0.011 A 
ATOM      4  C   UNL     1       0.399   5.465  -7.103  0.00  0.00    -0.001 A 
ATOM      5  C   UNL     1      -0.977   5.392  -7.295  0.00  0.00    -0.000 A 
ATOM      6  C   UNL     1      -1.849   5.431  -6.214  0.00  0.00    -0.001 A 
ENDROOT
BRANCH   3   7
ATOM      7  C   UNL     1       2.170   4.549  -5.599  0.00  0.00    +0.025 C 
ATOM      8  C   UNL     1       3.329   5.534  -5.684  0.00  0.00    +0.005 C 
ATOM      9  C   UNL     1       2.294   3.613  -6.795  0.00  0.00    +0.005 C 
ENDBRANCH   3   7
BRANCH   1  11
ATOM     10  C   UNL     1      -3.215   5.684  -3.496  0.00  0.00    +0.005 C 
ATOM     11  C   UNL     1      -2.085   6.567  -3.989  0.00  0.00    +0.025 C 
ATOM     12  C   UNL     1      -2.737   7.806  -4.591  0.00  0.00    +0.005 C 
ENDBRANCH   1  11
BRANCH   2  13
ATOM     13  O   UNL     1       0.397   5.236  -3.441  0.00  0.00    -0.448 OA
BRANCH  13  14
ATOM     14  C   UNL     1       1.047   6.053  -2.511  0.00  0.00    +0.369 C 
BRANCH  14  15
ATOM     15  O   UNL     1       1.774   5.299  -1.610  0.00  0.00    -0.228 OA
BRANCH  15  16
ATOM     16  P   UNL     1       3.385   5.805  -1.519  0.00  0.00    +0.535 P 
ATOM     17  O   UNL     1       3.447   7.358  -2.202  0.00  0.00    -0.114 OA
ATOM     18  O   UNL     1       4.406   4.818  -2.452  0.00  0.00    -0.114 OA
ATOM     19  O   UNL     1       3.893   5.797  -0.097  0.00  0.00    -0.222 OA
ENDBRANCH  15  16
ENDBRANCH  14  15
ENDBRANCH  13  14
ENDBRANCH   2  13
TORSDOF 6
ENDMDL
