MODEL 1
REMARK VINA RESULT:      -8.5      0.000      0.000
REMARK  Name = 
REMARK  5 active torsions:
REMARK  status: ('A' for Active; 'I' for Inactive)
REMARK    1  A    between atoms: N_6  and  C_7
REMARK    2  A    between atoms: C_10  and  C_11
REMARK    3  A    between atoms: C_11  and  C_12
REMARK    4  A    between atoms: C_12  and  N_13
REMARK    5  A    between atoms: N_16  and  C_17
REMARK                            x       y       z     vdW  Elec       q    Type
REMARK                         _______ _______ _______ _____ _____    ______ ____
ROOT
ATOM      1  C   UNL     1       0.588   5.362  -8.866  0.00  0.00    +0.072 C 
ENDROOT
BRANCH   1   2
ATOM      2  N   UNL     1       1.993   5.346  -9.210  0.00  0.00    -0.270 NA
ATOM      3  C   UNL     1       2.766   4.469  -8.366  0.00  0.00    +0.094 C 
ATOM      4  C   UNL     1       4.150   4.371  -8.964  0.00  0.00    +0.108 C 
ATOM      5  N   UNL     1       4.406   5.493  -9.832  0.00  0.00    -0.304 N 
ATOM      6  C   UNL     1       3.918   6.821  -9.525  0.00  0.00    +0.108 C 
ATOM      7  C   UNL     1       2.455   6.707  -9.209  0.00  0.00    +0.094 C 
BRANCH   5   8
ATOM      8  C   UNL     1       5.060   5.340 -11.098  0.00  0.00    +0.059 A 
ATOM      9  C   UNL     1       6.382   5.722 -11.174  0.00  0.00    +0.081 A 
ATOM     10 CL   UNL     1       7.381   5.458  -9.764  0.00  0.00    -0.080 Cl
ATOM     11  C   UNL     1       6.967   6.070 -12.386  0.00  0.00    +0.069 A 
ATOM     12 CL   UNL     1       8.711   6.136 -12.540  0.00  0.00    -0.081 Cl
ATOM     13  C   UNL     1       6.158   6.198 -13.509  0.00  0.00    +0.012 A 
ATOM     14  C   UNL     1       4.898   5.651 -13.504  0.00  0.00    +0.002 A 
ATOM     15  C   UNL     1       4.367   5.271 -12.284  0.00  0.00    +0.015 A 
ENDBRANCH   5   8
ENDBRANCH   1   2
BRANCH   1  16
ATOM     16  C   UNL     1       0.317   6.063  -7.568  0.00  0.00    +0.017 C 
BRANCH  16  20
ATOM     17  C   UNL     1       0.309   6.679  -3.895  0.00  0.00    +0.097 C 
ATOM     18  C   UNL     1       0.170   5.065  -4.220  0.00  0.00    +0.022 C 
ATOM     19  C   UNL     1       0.715   4.856  -5.583  0.00  0.00    +0.002 C 
ATOM     20  C   UNL     1      -0.518   4.989  -6.652  0.00  0.00    +0.001 C 
ATOM     21  C   UNL     1      -1.276   6.171  -5.803  0.00  0.00    +0.002 C 
ATOM     22  C   UNL     1      -0.237   7.141  -5.381  0.00  0.00    +0.022 C 
BRANCH  17  26
ATOM     23  C   UNL     1       4.644   7.725  -3.520  0.00  0.00    +0.117 C 
ATOM     24  N   UNL     1       4.157   6.965  -3.792  0.00  0.00    -0.259 N 
ATOM     25  C   UNL     1       2.791   6.801  -3.389  0.00  0.00    +0.323 C 
ATOM     26  N   UNL     1       1.811   6.733  -4.385  0.00  0.00    -0.190 NA
ATOM     27  O   UNL     1       2.484   7.066  -2.199  0.00  0.00    -0.251 OA
ATOM     28  C   UNL     1       4.871   5.861  -4.431  0.00  0.00    +0.117 C 
ENDBRANCH  17  26
ENDBRANCH  16  20
ENDBRANCH   1  16
TORSDOF 5
ENDMDL
MODEL 2
REMARK VINA RESULT:      -8.4      2.822      3.715
REMARK  Name = 
REMARK  5 active torsions:
REMARK  status: ('A' for Active; 'I' for Inactive)
REMARK    1  A    between atoms: N_6  and  C_7
REMARK    2  A    between atoms: C_10  and  C_11
REMARK    3  A    between atoms: C_11  and  C_12
REMARK    4  A    between atoms: C_12  and  N_13
REMARK    5  A    between atoms: N_16  and  C_17
REMARK                            x       y       z     vdW  Elec       q    Type
REMARK                         _______ _______ _______ _____ _____    ______ ____
ROOT
ATOM      1  C   UNL     1       0.893   6.378  -5.443  0.00  0.00    +0.072 C 
ENDROOT
BRANCH   1   2
ATOM      2  N   UNL     1       1.545   6.082  -6.700  0.00  0.00    -0.270 NA
ATOM      3  C   UNL     1       2.693   5.222  -6.547  0.00  0.00    +0.094 C 
ATOM      4  C   UNL     1       3.138   4.814  -7.932  0.00  0.00    +0.108 C 
ATOM      5  N   UNL     1       2.641   5.741  -8.917  0.00  0.00    -0.304 N 
ATOM      6  C   UNL     1       2.551   7.162  -8.650  0.00  0.00    +0.108 C 
ATOM      7  C   UNL     1       1.841   7.336  -7.339  0.00  0.00    +0.094 C 
BRANCH   5   8
ATOM      8  C   UNL     1       2.104   5.301 -10.171  0.00  0.00    +0.059 A 
ATOM      9  C   UNL     1       2.786   5.671 -11.311  0.00  0.00    +0.081 A 
ATOM     10 CL   UNL     1       4.529   5.760 -11.217  0.00  0.00    -0.080 Cl
ATOM     11  C   UNL     1       2.151   5.729 -12.546  0.00  0.00    +0.069 A 
ATOM     12 CL   UNL     1       3.093   5.779 -14.023  0.00  0.00    -0.081 Cl
ATOM     13  C   UNL     1       0.771   5.578 -12.600  0.00  0.00    +0.012 A 
ATOM     14  C   UNL     1       0.106   5.032 -11.528  0.00  0.00    +0.002 A 
ATOM     15  C   UNL     1       0.785   4.946 -10.327  0.00  0.00    +0.015 A 
ENDBRANCH   5   8
ENDBRANCH   1   2
BRANCH   1  16
ATOM     16  C   UNL     1      -0.344   7.209  -5.612  0.00  0.00    +0.017 C 
BRANCH  16  20
ATOM     17  C   UNL     1      -2.561   6.953  -2.630  0.00  0.00    +0.097 C 
ATOM     18  C   UNL     1      -2.505   5.517  -3.446  0.00  0.00    +0.022 C 
ATOM     19  C   UNL     1      -1.251   5.523  -4.236  0.00  0.00    +0.002 C 
ATOM     20  C   UNL     1      -1.583   6.139  -5.717  0.00  0.00    +0.001 C 
ATOM     21  C   UNL     1      -2.678   7.220  -5.145  0.00  0.00    +0.002 C 
ATOM     22  C   UNL     1      -2.088   7.842  -3.937  0.00  0.00    +0.022 C 
BRANCH  17  26
ATOM     23  C   UNL     1       0.664   6.877   0.471  0.00  0.00    +0.117 C 
ATOM     24  N   UNL     1       0.442   6.354  -0.282  0.00  0.00    -0.259 N 
ATOM     25  C   UNL     1      -0.889   6.380  -0.812  0.00  0.00    +0.323 C 
ATOM     26  N   UNL     1      -1.068   6.821  -2.128  0.00  0.00    -0.190 NA
ATOM     27  O   UNL     1      -1.852   6.344  -0.007  0.00  0.00    -0.251 OA
ATOM     28  C   UNL     1       1.402   5.359  -0.755  0.00  0.00    +0.117 C 
ENDBRANCH  17  26
ENDBRANCH  16  20
ENDBRANCH   1  16
TORSDOF 5
ENDMDL
MODEL 3
REMARK VINA RESULT:      -8.4      2.191      3.862
REMARK  Name = 
REMARK  5 active torsions:
REMARK  status: ('A' for Active; 'I' for Inactive)
REMARK    1  A    between atoms: N_6  and  C_7
REMARK    2  A    between atoms: C_10  and  C_11
REMARK    3  A    between atoms: C_11  and  C_12
REMARK    4  A    between atoms: C_12  and  N_13
REMARK    5  A    between atoms: N_16  and  C_17
REMARK                            x       y       z     vdW  Elec       q    Type
REMARK                         _______ _______ _______ _____ _____    ______ ____
ROOT
ATOM      1  C   UNL     1       2.473   6.590  -6.402  0.00  0.00    +0.072 C 
ENDROOT
BRANCH   1   2
ATOM      2  N   UNL     1       3.032   6.310  -7.707  0.00  0.00    -0.270 NA
ATOM      3  C   UNL     1       2.182   6.749  -8.786  0.00  0.00    +0.094 C 
ATOM      4  C   UNL     1       2.970   6.605 -10.067  0.00  0.00    +0.108 C 
ATOM      5  N   UNL     1       4.053   5.671  -9.893  0.00  0.00    -0.304 N 
ATOM      6  C   UNL     1       3.911   4.484  -9.076  0.00  0.00    +0.108 C 
ATOM      7  C   UNL     1       3.347   4.908  -7.751  0.00  0.00    +0.094 C 
BRANCH   5   8
ATOM      8  C   UNL     1       5.360   5.916 -10.426  0.00  0.00    +0.059 A 
ATOM      9  C   UNL     1       5.574   5.585 -11.747  0.00  0.00    +0.081 A 
ATOM     10 CL   UNL     1       4.244   5.807 -12.860  0.00  0.00    -0.080 Cl
ATOM     11  C   UNL     1       6.850   5.325 -12.231  0.00  0.00    +0.069 A 
ATOM     12 CL   UNL     1       7.161   5.329 -13.955  0.00  0.00    -0.081 Cl
ATOM     13  C   UNL     1       7.904   5.230 -11.330  0.00  0.00    +0.012 A 
ATOM     14  C   UNL     1       7.757   5.731 -10.058  0.00  0.00    +0.002 A 
ATOM     15  C   UNL     1       6.475   6.024  -9.628  0.00  0.00    +0.015 A 
ENDBRANCH   5   8
ENDBRANCH   1   2
BRANCH   1  16
ATOM     16  C   UNL     1       3.132   5.804  -5.307  0.00  0.00    +0.017 C 
BRANCH  16  20
ATOM     17  C   UNL     1       4.076   5.848  -1.705  0.00  0.00    +0.097 C 
ATOM     18  C   UNL     1       4.590   7.223  -2.464  0.00  0.00    +0.022 C 
ATOM     19  C   UNL     1       3.745   7.386  -3.671  0.00  0.00    +0.002 C 
ATOM     20  C   UNL     1       4.491   6.638  -4.922  0.00  0.00    +0.001 C 
ATOM     21  C   UNL     1       5.078   5.421  -3.991  0.00  0.00    +0.002 C 
ATOM     22  C   UNL     1       3.976   4.979  -3.104  0.00  0.00    +0.022 C 
BRANCH  17  26
ATOM     23  C   UNL     1      -0.332   5.087  -1.583  0.00  0.00    +0.117 C 
ATOM     24  N   UNL     1       0.246   5.749  -1.241  0.00  0.00    -0.259 N 
ATOM     25  C   UNL     1       1.645   5.476  -1.088  0.00  0.00    +0.323 C 
ATOM     26  N   UNL     1       2.554   6.262  -1.805  0.00  0.00    -0.190 NA
ATOM     27  O   UNL     1       1.988   4.365  -0.613  0.00  0.00    -0.251 OA
ATOM     28  C   UNL     1      -0.333   6.960  -0.664  0.00  0.00    +0.117 C 
ENDBRANCH  17  26
ENDBRANCH  16  20
ENDBRANCH   1  16
TORSDOF 5
ENDMDL
MODEL 4
REMARK VINA RESULT:      -8.3      2.302      2.762
REMARK  Name = 
REMARK  5 active torsions:
REMARK  status: ('A' for Active; 'I' for Inactive)
REMARK    1  A    between atoms: N_6  and  C_7
REMARK    2  A    between atoms: C_10  and  C_11
REMARK    3  A    between atoms: C_11  and  C_12
REMARK    4  A    between atoms: C_12  and  N_13
REMARK    5  A    between atoms: N_16  and  C_17
REMARK                            x       y       z     vdW  Elec       q    Type
REMARK                         _______ _______ _______ _____ _____    ______ ____
ROOT
ATOM      1  C   UNL     1      -0.633   5.397  -7.360  0.00  0.00    +0.072 C 
ENDROOT
BRANCH   1   2
ATOM      2  N   UNL     1       0.769   5.376  -7.714  0.00  0.00    -0.270 NA
ATOM      3  C   UNL     1       1.530   4.434  -6.930  0.00  0.00    +0.094 C 
ATOM      4  C   UNL     1       2.909   4.348  -7.543  0.00  0.00    +0.108 C 
ATOM      5  N   UNL     1       3.181   5.516  -8.341  0.00  0.00    -0.304 N 
ATOM      6  C   UNL     1       2.720   6.832  -7.949  0.00  0.00    +0.108 C 
ATOM      7  C   UNL     1       1.257   6.726  -7.631  0.00  0.00    +0.094 C 
BRANCH   5   8
ATOM      8  C   UNL     1       3.825   5.430  -9.618  0.00  0.00    +0.059 A 
ATOM      9  C   UNL     1       5.176   5.701  -9.662  0.00  0.00    +0.081 A 
ATOM     10 CL   UNL     1       6.141   5.215  -8.287  0.00  0.00    -0.080 Cl
ATOM     11  C   UNL     1       5.795   6.111 -10.836  0.00  0.00    +0.069 A 
ATOM     12 CL   UNL     1       7.539   6.040 -10.990  0.00  0.00    -0.081 Cl
ATOM     13  C   UNL     1       5.006   6.418 -11.939  0.00  0.00    +0.012 A 
ATOM     14  C   UNL     1       3.703   5.986 -11.982  0.00  0.00    +0.002 A 
ATOM     15  C   UNL     1       3.135   5.538 -10.803  0.00  0.00    +0.015 A 
ENDBRANCH   5   8
ENDBRANCH   1   2
BRANCH   1  16
ATOM     16  C   UNL     1      -0.895   6.115  -6.069  0.00  0.00    +0.017 C 
BRANCH  16  20
ATOM     17  C   UNL     1      -2.163   7.570  -2.884  0.00  0.00    +0.097 C 
ATOM     18  C   UNL     1      -2.935   6.150  -3.230  0.00  0.00    +0.022 C 
ATOM     19  C   UNL     1      -2.047   5.394  -4.143  0.00  0.00    +0.002 C 
ATOM     20  C   UNL     1      -2.453   5.774  -5.683  0.00  0.00    +0.001 C 
ATOM     21  C   UNL     1      -2.796   7.339  -5.324  0.00  0.00    +0.002 C 
ATOM     22  C   UNL     1      -1.710   7.835  -4.447  0.00  0.00    +0.022 C 
BRANCH  17  26
ATOM     23  C   UNL     1       1.403   6.601  -0.360  0.00  0.00    +0.117 C 
ATOM     24  N   UNL     1       0.793   6.105  -0.882  0.00  0.00    -0.259 N 
ATOM     25  C   UNL     1      -0.487   6.657  -1.214  0.00  0.00    +0.323 C 
ATOM     26  N   UNL     1      -0.795   6.845  -2.566  0.00  0.00    -0.190 NA
ATOM     27  O   UNL     1      -1.129   7.257  -0.317  0.00  0.00    -0.251 OA
ATOM     28  C   UNL     1       1.080   4.698  -1.152  0.00  0.00    +0.117 C 
ENDBRANCH  17  26
ENDBRANCH  16  20
ENDBRANCH   1  16
TORSDOF 5
ENDMDL
MODEL 5
REMARK VINA RESULT:      -8.3      2.925      3.656
REMARK  Name = 
REMARK  5 active torsions:
REMARK  status: ('A' for Active; 'I' for Inactive)
REMARK    1  A    between atoms: N_6  and  C_7
REMARK    2  A    between atoms: C_10  and  C_11
REMARK    3  A    between atoms: C_11  and  C_12
REMARK    4  A    between atoms: C_12  and  N_13
REMARK    5  A    between atoms: N_16  and  C_17
REMARK                            x       y       z     vdW  Elec       q    Type
REMARK                         _______ _______ _______ _____ _____    ______ ____
ROOT
ATOM      1  C   UNL     1       0.347   5.419  -5.663  0.00  0.00    +0.072 C 
ENDROOT
BRANCH   1   2
ATOM      2  N   UNL     1       1.419   5.315  -6.628  0.00  0.00    -0.270 NA
ATOM      3  C   UNL     1       1.841   3.955  -6.853  0.00  0.00    +0.094 C 
ATOM      4  C   UNL     1       2.792   3.965  -8.027  0.00  0.00    +0.108 C 
ATOM      5  N   UNL     1       3.341   5.283  -8.221  0.00  0.00    -0.304 N 
ATOM      6  C   UNL     1       3.671   6.144  -7.104  0.00  0.00    +0.108 C 
ATOM      7  C   UNL     1       2.478   6.186  -6.193  0.00  0.00    +0.094 C 
BRANCH   5   8
ATOM      8  C   UNL     1       3.489   5.860  -9.524  0.00  0.00    +0.059 A 
ATOM      9  C   UNL     1       2.340   6.055 -10.261  0.00  0.00    +0.081 A 
ATOM     10 CL   UNL     1       0.890   6.498  -9.392  0.00  0.00    -0.080 Cl
ATOM     11  C   UNL     1       2.376   6.143 -11.647  0.00  0.00    +0.069 A 
ATOM     12 CL   UNL     1       1.012   6.804 -12.527  0.00  0.00    -0.081 Cl
ATOM     13  C   UNL     1       3.565   5.859 -12.308  0.00  0.00    +0.012 A 
ATOM     14  C   UNL     1       4.746   5.848 -11.606  0.00  0.00    +0.002 A 
ATOM     15  C   UNL     1       4.671   5.809 -10.225  0.00  0.00    +0.015 A 
ENDBRANCH   5   8
ENDBRANCH   1   2
BRANCH   1  16
ATOM     16  C   UNL     1      -0.602   6.540  -5.967  0.00  0.00    +0.017 C 
BRANCH  16  20
ATOM     17  C   UNL     1      -2.361   7.377  -2.793  0.00  0.00    +0.097 C 
ATOM     18  C   UNL     1      -2.847   5.903  -3.364  0.00  0.00    +0.022 C 
ATOM     19  C   UNL     1      -1.769   5.415  -4.256  0.00  0.00    +0.002 C 
ATOM     20  C   UNL     1      -2.105   5.909  -5.781  0.00  0.00    +0.001 C 
ATOM     21  C   UNL     1      -2.740   7.343  -5.296  0.00  0.00    +0.002 C 
ATOM     22  C   UNL     1      -1.831   7.898  -4.266  0.00  0.00    +0.022 C 
BRANCH  17  26
ATOM     23  C   UNL     1       1.092   6.688  -0.032  0.00  0.00    +0.117 C 
ATOM     24  N   UNL     1       0.624   6.170  -0.665  0.00  0.00    -0.259 N 
ATOM     25  C   UNL     1      -0.700   6.544  -1.068  0.00  0.00    +0.323 C 
ATOM     26  N   UNL     1      -0.920   6.848  -2.415  0.00  0.00    -0.190 NA
ATOM     27  O   UNL     1      -1.510   6.915  -0.182  0.00  0.00    -0.251 OA
ATOM     28  C   UNL     1       1.171   4.872  -1.056  0.00  0.00    +0.117 C 
ENDBRANCH  17  26
ENDBRANCH  16  20
ENDBRANCH   1  16
TORSDOF 5
ENDMDL
MODEL 6
REMARK VINA RESULT:      -8.2      4.248      8.914
REMARK  Name = 
REMARK  5 active torsions:
REMARK  status: ('A' for Active; 'I' for Inactive)
REMARK    1  A    between atoms: N_6  and  C_7
REMARK    2  A    between atoms: C_10  and  C_11
REMARK    3  A    between atoms: C_11  and  C_12
REMARK    4  A    between atoms: C_12  and  N_13
REMARK    5  A    between atoms: N_16  and  C_17
REMARK                            x       y       z     vdW  Elec       q    Type
REMARK                         _______ _______ _______ _____ _____    ______ ____
ROOT
ATOM      1  C   UNL     1       3.307   6.508 -10.088  0.00  0.00    +0.072 C 
ENDROOT
BRANCH   1   2
ATOM      2  N   UNL     1       3.028   6.296  -8.684  0.00  0.00    -0.270 NA
ATOM      3  C   UNL     1       2.527   4.973  -8.406  0.00  0.00    +0.094 C 
ATOM      4  C   UNL     1       2.492   4.810  -6.905  0.00  0.00    +0.108 C 
ATOM      5  N   UNL     1       2.482   6.097  -6.257  0.00  0.00    -0.304 N 
ATOM      6  C   UNL     1       1.759   7.224  -6.810  0.00  0.00    +0.108 C 
ATOM      7  C   UNL     1       2.149   7.351  -8.254  0.00  0.00    +0.094 C 
BRANCH   5   8
ATOM      8  C   UNL     1       3.271   6.368  -5.092  0.00  0.00    +0.059 A 
ATOM      9  C   UNL     1       2.602   6.491  -3.893  0.00  0.00    +0.081 A 
ATOM     10 CL   UNL     1       1.198   5.480  -3.644  0.00  0.00    -0.080 Cl
ATOM     11  C   UNL     1       3.150   7.197  -2.828  0.00  0.00    +0.069 A 
ATOM     12 CL   UNL     1       2.510   6.994  -1.210  0.00  0.00    -0.081 Cl
ATOM     13  C   UNL     1       4.311   7.932  -3.035  0.00  0.00    +0.012 A 
ATOM     14  C   UNL     1       5.085   7.680  -4.142  0.00  0.00    +0.002 A 
ATOM     15  C   UNL     1       4.523   6.932  -5.162  0.00  0.00    +0.015 A 
ENDBRANCH   5   8
ENDBRANCH   1   2
BRANCH   1  16
ATOM     16  C   UNL     1       4.725   6.927 -10.341  0.00  0.00    +0.017 C 
BRANCH  16  20
ATOM     17  C   UNL     1       7.610   6.728 -12.688  0.00  0.00    +0.097 C 
ATOM     18  C   UNL     1       6.998   5.224 -12.380  0.00  0.00    +0.022 C 
ATOM     19  C   UNL     1       5.601   5.417 -11.925  0.00  0.00    +0.002 C 
ATOM     20  C   UNL     1       5.608   5.545 -10.292  0.00  0.00    +0.001 C 
ATOM     21  C   UNL     1       7.034   6.357 -10.251  0.00  0.00    +0.002 C 
ATOM     22  C   UNL     1       6.981   7.388 -11.313  0.00  0.00    +0.022 C 
BRANCH  17  26
ATOM     23  C   UNL     1       5.498   8.194 -16.350  0.00  0.00    +0.117 C 
ATOM     24  N   UNL     1       5.350   7.512 -15.717  0.00  0.00    -0.259 N 
ATOM     25  C   UNL     1       6.433   7.025 -14.915  0.00  0.00    +0.323 C 
ATOM     26  N   UNL     1       6.342   7.164 -13.526  0.00  0.00    -0.190 NA
ATOM     27  O   UNL     1       7.540   6.817 -15.470  0.00  0.00    -0.251 OA
ATOM     28  C   UNL     1       4.067   6.811 -15.723  0.00  0.00    +0.117 C 
ENDBRANCH  17  26
ENDBRANCH  16  20
ENDBRANCH   1  16
TORSDOF 5
ENDMDL
MODEL 7
REMARK VINA RESULT:      -8.2      4.144      8.844
REMARK  Name = 
REMARK  5 active torsions:
REMARK  status: ('A' for Active; 'I' for Inactive)
REMARK    1  A    between atoms: N_6  and  C_7
REMARK    2  A    between atoms: C_10  and  C_11
REMARK    3  A    between atoms: C_11  and  C_12
REMARK    4  A    between atoms: C_12  and  N_13
REMARK    5  A    between atoms: N_16  and  C_17
REMARK                            x       y       z     vdW  Elec       q    Type
REMARK                         _______ _______ _______ _____ _____    ______ ____
ROOT
ATOM      1  C   UNL     1       5.622   5.129  -8.439  0.00  0.00    +0.072 C 
ENDROOT
BRANCH   1   2
ATOM      2  N   UNL     1       4.224   5.072  -8.071  0.00  0.00    -0.270 NA
ATOM      3  C   UNL     1       3.482   4.103  -8.840  0.00  0.00    +0.094 C 
ATOM      4  C   UNL     1       2.112   3.985  -8.214  0.00  0.00    +0.108 C 
ATOM      5  N   UNL     1       1.815   5.151  -7.422  0.00  0.00    -0.304 N 
ATOM      6  C   UNL     1       2.236   6.476  -7.828  0.00  0.00    +0.108 C 
ATOM      7  C   UNL     1       3.699   6.407  -8.159  0.00  0.00    +0.094 C 
BRANCH   5   8
ATOM      8  C   UNL     1       1.185   5.057  -6.138  0.00  0.00    +0.059 A 
ATOM      9  C   UNL     1      -0.118   5.495  -6.043  0.00  0.00    +0.081 A 
ATOM     10 CL   UNL     1      -1.160   5.236  -7.423  0.00  0.00    -0.080 Cl
ATOM     11  C   UNL     1      -0.660   5.897  -4.828  0.00  0.00    +0.069 A 
ATOM     12 CL   UNL     1      -2.395   6.039  -4.636  0.00  0.00    -0.081 Cl
ATOM     13  C   UNL     1       0.179   6.021  -3.726  0.00  0.00    +0.012 A 
ATOM     14  C   UNL     1       1.416   5.423  -3.745  0.00  0.00    +0.002 A 
ATOM     15  C   UNL     1       1.902   4.991  -4.966  0.00  0.00    +0.015 A 
ENDBRANCH   5   8
ENDBRANCH   1   2
BRANCH   1  16
ATOM     16  C   UNL     1       5.895   6.120  -9.531  0.00  0.00    +0.017 C 
BRANCH  16  20
ATOM     17  C   UNL     1       6.634   7.189 -13.021  0.00  0.00    +0.097 C 
ATOM     18  C   UNL     1       7.480   5.824 -12.633  0.00  0.00    +0.022 C 
ATOM     19  C   UNL     1       6.757   5.178 -11.512  0.00  0.00    +0.002 C 
ATOM     20  C   UNL     1       7.383   5.741 -10.108  0.00  0.00    +0.001 C 
ATOM     21  C   UNL     1       7.634   7.253 -10.696  0.00  0.00    +0.002 C 
ATOM     22  C   UNL     1       6.416   7.637 -11.448  0.00  0.00    +0.022 C 
BRANCH  17  26
ATOM     23  C   UNL     1       2.589   6.199 -14.658  0.00  0.00    +0.117 C 
ATOM     24  N   UNL     1       3.319   5.704 -14.327  0.00  0.00    -0.259 N 
ATOM     25  C   UNL     1       4.627   6.289 -14.284  0.00  0.00    +0.323 C 
ATOM     26  N   UNL     1       5.249   6.427 -13.038  0.00  0.00    -0.190 NA
ATOM     27  O   UNL     1       5.016   6.955 -15.275  0.00  0.00    -0.251 OA
ATOM     28  C   UNL     1       3.145   4.275 -14.073  0.00  0.00    +0.117 C 
ENDBRANCH  17  26
ENDBRANCH  16  20
ENDBRANCH   1  16
TORSDOF 5
ENDMDL
MODEL 8
REMARK VINA RESULT:      -8.1      2.417      4.480
REMARK  Name = 
REMARK  5 active torsions:
REMARK  status: ('A' for Active; 'I' for Inactive)
REMARK    1  A    between atoms: N_6  and  C_7
REMARK    2  A    between atoms: C_10  and  C_11
REMARK    3  A    between atoms: C_11  and  C_12
REMARK    4  A    between atoms: C_12  and  N_13
REMARK    5  A    between atoms: N_16  and  C_17
REMARK                            x       y       z     vdW  Elec       q    Type
REMARK                         _______ _______ _______ _____ _____    ______ ____
ROOT
ATOM      1  C   UNL     1       4.375   6.587  -5.541  0.00  0.00    +0.072 C 
ENDROOT
BRANCH   1   2
ATOM      2  N   UNL     1       3.348   6.245  -6.501  0.00  0.00    -0.270 NA
ATOM      3  C   UNL     1       2.253   7.183  -6.508  0.00  0.00    +0.094 C 
ATOM      4  C   UNL     1       1.376   6.843  -7.690  0.00  0.00    +0.108 C 
ATOM      5  N   UNL     1       1.600   5.483  -8.112  0.00  0.00    -0.304 N 
ATOM      6  C   UNL     1       1.857   4.422  -7.160  0.00  0.00    +0.108 C 
ATOM      7  C   UNL     1       2.948   4.888  -6.241  0.00  0.00    +0.094 C 
BRANCH   5   8
ATOM      8  C   UNL     1       1.693   5.123  -9.496  0.00  0.00    +0.059 A 
ATOM      9  C   UNL     1       2.759   5.628 -10.208  0.00  0.00    +0.081 A 
ATOM     10 CL   UNL     1       4.280   5.810  -9.365  0.00  0.00    -0.080 Cl
ATOM     11  C   UNL     1       2.710   5.756 -11.591  0.00  0.00    +0.069 A 
ATOM     12 CL   UNL     1       4.184   5.988 -12.510  0.00  0.00    -0.081 Cl
ATOM     13  C   UNL     1       1.505   5.530 -12.244  0.00  0.00    +0.012 A 
ATOM     14  C   UNL     1       0.497   4.857 -11.596  0.00  0.00    +0.002 A 
ATOM     15  C   UNL     1       0.604   4.706 -10.225  0.00  0.00    +0.015 A 
ENDBRANCH   5   8
ENDBRANCH   1   2
BRANCH   1  16
ATOM     16  C   UNL     1       4.468   5.602  -4.414  0.00  0.00    +0.017 C 
BRANCH  16  20
ATOM     17  C   UNL     1       1.998   6.028  -1.659  0.00  0.00    +0.097 C 
ATOM     18  C   UNL     1       3.038   7.311  -1.720  0.00  0.00    +0.022 C 
ATOM     19  C   UNL     1       3.591   7.347  -3.094  0.00  0.00    +0.002 C 
ATOM     20  C   UNL     1       4.971   6.466  -3.113  0.00  0.00    +0.001 C 
ATOM     21  C   UNL     1       4.407   5.352  -2.048  0.00  0.00    +0.002 C 
ATOM     22  C   UNL     1       3.024   5.014  -2.459  0.00  0.00    +0.022 C 
BRANCH  17  26
ATOM     23  C   UNL     1      -0.936   5.499  -4.997  0.00  0.00    +0.117 C 
ATOM     24  N   UNL     1      -0.661   6.216  -4.450  0.00  0.00    -0.259 N 
ATOM     25  C   UNL     1      -0.020   5.963  -3.194  0.00  0.00    +0.323 C 
ATOM     26  N   UNL     1       1.283   6.437  -3.009  0.00  0.00    -0.190 NA
ATOM     27  O   UNL     1      -0.488   5.059  -2.457  0.00  0.00    -0.251 OA
ATOM     28  C   UNL     1      -1.096   7.569  -4.793  0.00  0.00    +0.117 C 
ENDBRANCH  17  26
ENDBRANCH  16  20
ENDBRANCH   1  16
TORSDOF 5
ENDMDL
MODEL 9
REMARK VINA RESULT:      -8.0      4.224      8.412
REMARK  Name = 
REMARK  5 active torsions:
REMARK  status: ('A' for Active; 'I' for Inactive)
REMARK    1  A    between atoms: N_6  and  C_7
REMARK    2  A    between atoms: C_10  and  C_11
REMARK    3  A    between atoms: C_11  and  C_12
REMARK    4  A    between atoms: C_12  and  N_13
REMARK    5  A    between atoms: N_16  and  C_17
REMARK                            x       y       z     vdW  Elec       q    Type
REMARK                         _______ _______ _______ _____ _____    ______ ____
ROOT
ATOM      1  C   UNL     1       3.690   5.001  -8.034  0.00  0.00    +0.072 C 
ENDROOT
BRANCH   1   2
ATOM      2  N   UNL     1       2.765   5.399  -6.996  0.00  0.00    -0.270 NA
ATOM      3  C   UNL     1       3.216   6.551  -6.255  0.00  0.00    +0.094 C 
ATOM      4  C   UNL     1       2.075   6.992  -5.368  0.00  0.00    +0.108 C 
ATOM      5  N   UNL     1       1.142   5.912  -5.170  0.00  0.00    -0.304 N 
ATOM      6  C   UNL     1       1.582   4.539  -5.035  0.00  0.00    +0.108 C 
ATOM      7  C   UNL     1       2.512   4.244  -6.176  0.00  0.00    +0.094 C 
BRANCH   5   8
ATOM      8  C   UNL     1      -0.276   6.117  -5.205  0.00  0.00    +0.059 A 
ATOM      9  C   UNL     1      -0.966   5.945  -4.024  0.00  0.00    +0.081 A 
ATOM     10 CL   UNL     1      -0.164   6.416  -2.544  0.00  0.00    -0.080 Cl
ATOM     11  C   UNL     1      -2.324   5.648  -4.016  0.00  0.00    +0.069 A 
ATOM     12 CL   UNL     1      -3.265   5.850  -2.552  0.00  0.00    -0.081 Cl
ATOM     13  C   UNL     1      -2.954   5.351  -5.219  0.00  0.00    +0.012 A 
ATOM     14  C   UNL     1      -2.348   5.693  -6.404  0.00  0.00    +0.002 A 
ATOM     15  C   UNL     1      -1.007   6.031  -6.366  0.00  0.00    +0.015 A 
ENDBRANCH   5   8
ENDBRANCH   1   2
BRANCH   1  16
ATOM     16  C   UNL     1       4.715   6.054  -8.332  0.00  0.00    +0.017 C 
BRANCH  16  20
ATOM     17  C   UNL     1       4.007   6.688 -11.933  0.00  0.00    +0.097 C 
ATOM     18  C   UNL     1       4.758   5.230 -11.730  0.00  0.00    +0.022 C 
ATOM     19  C   UNL     1       4.513   4.816 -10.328  0.00  0.00    +0.002 C 
ATOM     20  C   UNL     1       5.749   5.372  -9.408  0.00  0.00    +0.001 C 
ATOM     21  C   UNL     1       5.910   6.762 -10.265  0.00  0.00    +0.002 C 
ATOM     22  C   UNL     1       4.546   7.293 -10.497  0.00  0.00    +0.022 C 
BRANCH  17  26
ATOM     23  C   UNL     1      -0.417   6.684 -11.261  0.00  0.00    +0.117 C 
ATOM     24  N   UNL     1       0.244   6.025 -11.389  0.00  0.00    -0.259 N 
ATOM     25  C   UNL     1       1.492   6.364 -12.005  0.00  0.00    +0.323 C 
ATOM     26  N   UNL     1       2.666   6.185 -11.264  0.00  0.00    -0.190 NA
ATOM     27  O   UNL     1       1.476   7.111 -13.015  0.00  0.00    -0.251 OA
ATOM     28  C   UNL     1      -0.105   4.624 -11.160  0.00  0.00    +0.117 C 
ENDBRANCH  17  26
ENDBRANCH  16  20
ENDBRANCH   1  16
TORSDOF 5
ENDMDL
