MODEL 1
REMARK VINA RESULT:      -7.8      0.000      0.000
REMARK  Name = 
REMARK  5 active torsions:
REMARK  status: ('A' for Active; 'I' for Inactive)
REMARK    1  A    between atoms: C_2  and  C_3
REMARK    2  A    between atoms: C_2  and  C_10
REMARK    3  A    between atoms: C_10  and  C_12
REMARK    4  A    between atoms: C_10  and  C_18
REMARK    5  A    between atoms: C_12  and  N_13
REMARK                            x       y       z     vdW  Elec       q    Type
REMARK                         _______ _______ _______ _____ _____    ______ ____
ROOT
ATOM      1  C   UNL     1       3.238   6.131  -5.202  0.00  0.00    +0.175 C 
ATOM      2  O   UNL     1       2.683   7.324  -4.876  0.00  0.00    -0.219 OA
ENDROOT
BRANCH   1   3
ATOM      3  C   UNL     1       3.649   6.261  -6.640  0.00  0.00    +0.035 A 
ATOM      4  C   UNL     1       2.981   7.053  -7.541  0.00  0.00    +0.141 A 
ATOM      5  F   UNL     1       2.010   7.875  -7.124  0.00  0.00    -0.204 F 
ATOM      6  C   UNL     1       2.891   6.597  -8.850  0.00  0.00    +0.059 A 
ATOM      7  C   UNL     1       3.687   5.550  -9.292  0.00  0.00    +0.142 A 
ATOM      8  F   UNL     1       3.364   4.793 -10.369  0.00  0.00    -0.204 F 
ATOM      9  C   UNL     1       4.709   5.129  -8.462  0.00  0.00    +0.030 A 
ATOM     10  C   UNL     1       4.752   5.588  -7.151  0.00  0.00    +0.003 A 
ENDBRANCH   1   3
BRANCH   1  12
ATOM     11  C   UNL     1       5.114   7.514  -4.507  0.00  0.00    +0.009 C 
ATOM     12  C   UNL     1       4.651   5.930  -4.392  0.00  0.00    +0.077 C 
BRANCH  12  13
ATOM     13  C   UNL     1       3.997   6.039  -2.915  0.00  0.00    +0.092 A 
ATOM     14  C   UNL     1       4.476   6.980  -2.061  0.00  0.00    +0.173 A 
ATOM     15  F   UNL     1       4.518   8.218  -2.643  0.00  0.00    -0.201 F 
ATOM     16  C   UNL     1       4.161   6.832  -0.715  0.00  0.00    +0.131 A 
ATOM     17  N   UNL     1       4.254   5.584  -0.218  0.00  0.00    -0.220 NA
ATOM     18  C   UNL     1       3.970   4.578  -1.071  0.00  0.00    +0.199 A 
ATOM     19  N   UNL     1       3.951   4.778  -2.406  0.00  0.00    -0.226 NA
ENDBRANCH  12  13
ENDBRANCH   1  12
BRANCH   1  20
ATOM     20  C   UNL     1       2.403   4.931  -5.096  0.00  0.00    +0.164 C 
BRANCH  20  21
ATOM     21  N   UNL     1       1.039   5.386  -4.840  0.00  0.00    -0.227 N 
ATOM     22  N   UNL     1       0.478   5.276  -3.635  0.00  0.00    -0.145 NA
ATOM     23  C   UNL     1      -0.813   5.668  -3.759  0.00  0.00    +0.221 A 
ATOM     24  N   UNL     1      -1.104   5.407  -5.056  0.00  0.00    -0.201 NA
ATOM     25  C   UNL     1       0.049   5.517  -5.758  0.00  0.00    +0.197 A 
ENDBRANCH  20  21
ENDBRANCH   1  20
TORSDOF 5
ENDMDL
MODEL 2
REMARK VINA RESULT:      -7.8      2.526      5.579
REMARK  Name = 
REMARK  5 active torsions:
REMARK  status: ('A' for Active; 'I' for Inactive)
REMARK    1  A    between atoms: C_2  and  C_3
REMARK    2  A    between atoms: C_2  and  C_10
REMARK    3  A    between atoms: C_10  and  C_12
REMARK    4  A    between atoms: C_10  and  C_18
REMARK    5  A    between atoms: C_12  and  N_13
REMARK                            x       y       z     vdW  Elec       q    Type
REMARK                         _______ _______ _______ _____ _____    ______ ____
ROOT
ATOM      1  C   UNL     1       1.156   6.199  -5.588  0.00  0.00    +0.175 C 
ATOM      2  O   UNL     1       1.730   7.330  -5.111  0.00  0.00    -0.219 OA
ENDROOT
BRANCH   1   3
ATOM      3  C   UNL     1      -0.303   6.321  -5.257  0.00  0.00    +0.035 A 
ATOM      4  C   UNL     1      -1.279   5.601  -5.900  0.00  0.00    +0.141 A 
ATOM      5  F   UNL     1      -0.944   4.629  -6.758  0.00  0.00    -0.204 F 
ATOM      6  C   UNL     1      -2.500   6.228  -6.116  0.00  0.00    +0.059 A 
ATOM      7  C   UNL     1      -2.818   7.406  -5.455  0.00  0.00    +0.142 A 
ATOM      8  F   UNL     1      -3.753   8.271  -5.918  0.00  0.00    -0.204 F 
ATOM      9  C   UNL     1      -1.984   7.809  -4.430  0.00  0.00    +0.030 A 
ATOM     10  C   UNL     1      -0.759   7.174  -4.260  0.00  0.00    +0.003 A 
ENDBRANCH   1   3
BRANCH   1  12
ATOM     11  C   UNL     1       1.881   7.699  -7.361  0.00  0.00    +0.009 C 
ATOM     12  C   UNL     1       1.202   6.195  -7.229  0.00  0.00    +0.077 C 
BRANCH  12  13
ATOM     13  C   UNL     1       2.585   5.361  -7.341  0.00  0.00    +0.092 A 
ATOM     14  C   UNL     1       3.751   6.049  -7.454  0.00  0.00    +0.173 A 
ATOM     15  F   UNL     1       3.866   7.012  -6.489  0.00  0.00    -0.201 F 
ATOM     16  C   UNL     1       4.863   5.342  -7.896  0.00  0.00    +0.131 A 
ATOM     17  N   UNL     1       4.657   4.496  -8.923  0.00  0.00    -0.220 NA
ATOM     18  C   UNL     1       3.443   3.910  -8.982  0.00  0.00    +0.199 A 
ATOM     19  N   UNL     1       2.395   4.402  -8.287  0.00  0.00    -0.226 NA
ENDBRANCH  12  13
ENDBRANCH   1  12
BRANCH   1  20
ATOM     20  C   UNL     1       1.617   4.914  -5.053  0.00  0.00    +0.164 C 
BRANCH  20  21
ATOM     21  N   UNL     1       2.465   5.215  -3.903  0.00  0.00    -0.227 N 
ATOM     22  N   UNL     1       3.770   4.937  -3.902  0.00  0.00    -0.145 NA
ATOM     23  C   UNL     1       4.237   5.219  -2.662  0.00  0.00    +0.221 A 
ATOM     24  N   UNL     1       3.152   5.060  -1.867  0.00  0.00    -0.201 NA
ATOM     25  C   UNL     1       2.059   5.343  -2.615  0.00  0.00    +0.197 A 
ENDBRANCH  20  21
ENDBRANCH   1  20
TORSDOF 5
ENDMDL
MODEL 3
REMARK VINA RESULT:      -7.6      4.623      7.963
REMARK  Name = 
REMARK  5 active torsions:
REMARK  status: ('A' for Active; 'I' for Inactive)
REMARK    1  A    between atoms: C_2  and  C_3
REMARK    2  A    between atoms: C_2  and  C_10
REMARK    3  A    between atoms: C_10  and  C_12
REMARK    4  A    between atoms: C_10  and  C_18
REMARK    5  A    between atoms: C_12  and  N_13
REMARK                            x       y       z     vdW  Elec       q    Type
REMARK                         _______ _______ _______ _____ _____    ______ ____
ROOT
ATOM      1  C   UNL     1       3.165   5.780  -9.481  0.00  0.00    +0.175 C 
ATOM      2  O   UNL     1       3.252   7.127  -9.365  0.00  0.00    -0.219 OA
ENDROOT
BRANCH   1   3
ATOM      3  C   UNL     1       3.143   5.257  -8.074  0.00  0.00    +0.035 A 
ATOM      4  C   UNL     1       2.756   3.979  -7.756  0.00  0.00    +0.141 A 
ATOM      5  F   UNL     1       2.527   3.084  -8.725  0.00  0.00    -0.204 F 
ATOM      6  C   UNL     1       2.064   3.797  -6.565  0.00  0.00    +0.059 A 
ATOM      7  C   UNL     1       2.028   4.800  -5.606  0.00  0.00    +0.142 A 
ATOM      8  F   UNL     1       1.059   4.868  -4.660  0.00  0.00    -0.204 F 
ATOM      9  C   UNL     1       2.870   5.882  -5.780  0.00  0.00    +0.030 A 
ATOM     10  C   UNL     1       3.527   6.044  -6.994  0.00  0.00    +0.003 A 
ENDBRANCH   1   3
BRANCH   1  12
ATOM     11  C   UNL     1       0.843   6.432  -9.164  0.00  0.00    +0.009 C 
ATOM     12  C   UNL     1       1.700   5.363 -10.093  0.00  0.00    +0.077 C 
BRANCH  12  13
ATOM     13  C   UNL     1       1.807   6.306 -11.403  0.00  0.00    +0.092 A 
ATOM     14  C   UNL     1       0.668   6.847 -11.909  0.00  0.00    +0.173 A 
ATOM     15  F   UNL     1      -0.066   7.477 -10.942  0.00  0.00    -0.201 F 
ATOM     16  C   UNL     1       0.727   7.349 -13.204  0.00  0.00    +0.131 A 
ATOM     17  N   UNL     1       1.387   6.594 -14.102  0.00  0.00    -0.220 NA
ATOM     18  C   UNL     1       2.428   5.876 -13.631  0.00  0.00    +0.199 A 
ATOM     19  N   UNL     1       2.574   5.642 -12.310  0.00  0.00    -0.226 NA
ENDBRANCH  12  13
ENDBRANCH   1  12
BRANCH   1  20
ATOM     20  C   UNL     1       4.241   5.078 -10.188  0.00  0.00    +0.164 C 
BRANCH  20  21
ATOM     21  N   UNL     1       5.410   5.952 -10.152  0.00  0.00    -0.227 N 
ATOM     22  N   UNL     1       5.727   6.742 -11.179  0.00  0.00    -0.145 NA
ATOM     23  C   UNL     1       6.915   7.323 -10.885  0.00  0.00    +0.221 A 
ATOM     24  N   UNL     1       7.507   6.435 -10.051  0.00  0.00    -0.201 NA
ATOM     25  C   UNL     1       6.521   5.780  -9.393  0.00  0.00    +0.197 A 
ENDBRANCH  20  21
ENDBRANCH   1  20
TORSDOF 5
ENDMDL
MODEL 4
REMARK VINA RESULT:      -7.6      2.211      4.699
REMARK  Name = 
REMARK  5 active torsions:
REMARK  status: ('A' for Active; 'I' for Inactive)
REMARK    1  A    between atoms: C_2  and  C_3
REMARK    2  A    between atoms: C_2  and  C_10
REMARK    3  A    between atoms: C_10  and  C_12
REMARK    4  A    between atoms: C_10  and  C_18
REMARK    5  A    between atoms: C_12  and  N_13
REMARK                            x       y       z     vdW  Elec       q    Type
REMARK                         _______ _______ _______ _____ _____    ______ ____
ROOT
ATOM      1  C   UNL     1       1.054   5.764  -5.707  0.00  0.00    +0.175 C 
ATOM      2  O   UNL     1       0.902   4.467  -5.344  0.00  0.00    -0.219 OA
ENDROOT
BRANCH   1   3
ATOM      3  C   UNL     1       1.723   5.727  -7.050  0.00  0.00    +0.035 A 
ATOM      4  C   UNL     1       1.902   6.845  -7.828  0.00  0.00    +0.141 A 
ATOM      5  F   UNL     1       1.619   8.058  -7.339  0.00  0.00    -0.204 F 
ATOM      6  C   UNL     1       1.798   6.690  -9.205  0.00  0.00    +0.059 A 
ATOM      7  C   UNL     1       1.812   5.426  -9.779  0.00  0.00    +0.142 A 
ATOM      8  F   UNL     1       1.298   5.179 -11.008  0.00  0.00    -0.204 F 
ATOM      9  C   UNL     1       2.146   4.359  -8.967  0.00  0.00    +0.030 A 
ATOM     10  C   UNL     1       2.217   4.547  -7.592  0.00  0.00    +0.003 A 
ENDBRANCH   1   3
BRANCH   1  12
ATOM     11  C   UNL     1      -0.915   5.255  -7.040  0.00  0.00    +0.009 C 
ATOM     12  C   UNL     1      -0.412   6.440  -6.000  0.00  0.00    +0.077 C 
BRANCH  12  13
ATOM     13  C   UNL     1      -1.126   5.836  -4.679  0.00  0.00    +0.092 A 
ATOM     14  C   UNL     1      -2.470   5.641  -4.699  0.00  0.00    +0.173 A 
ATOM     15  F   UNL     1      -2.863   4.934  -5.804  0.00  0.00    -0.201 F 
ATOM     16  C   UNL     1      -3.102   5.463  -3.474  0.00  0.00    +0.131 A 
ATOM     17  N   UNL     1      -2.712   6.285  -2.482  0.00  0.00    -0.220 NA
ATOM     18  C   UNL     1      -1.420   6.675  -2.501  0.00  0.00    +0.199 A 
ATOM     19  N   UNL     1      -0.670   6.554  -3.617  0.00  0.00    -0.226 NA
ENDBRANCH  12  13
ENDBRANCH   1  12
BRANCH   1  20
ATOM     20  C   UNL     1       1.862   6.631  -4.843  0.00  0.00    +0.164 C 
BRANCH  20  21
ATOM     21  N   UNL     1       2.752   5.758  -4.083  0.00  0.00    -0.227 N 
ATOM     22  N   UNL     1       2.631   5.612  -2.762  0.00  0.00    -0.145 NA
ATOM     23  C   UNL     1       3.669   4.846  -2.349  0.00  0.00    +0.221 A 
ATOM     24  N   UNL     1       4.631   5.084  -3.273  0.00  0.00    -0.201 NA
ATOM     25  C   UNL     1       4.006   5.382  -4.436  0.00  0.00    +0.197 A 
ENDBRANCH  20  21
ENDBRANCH   1  20
TORSDOF 5
ENDMDL
MODEL 5
REMARK VINA RESULT:      -7.6      1.811      2.305
REMARK  Name = 
REMARK  5 active torsions:
REMARK  status: ('A' for Active; 'I' for Inactive)
REMARK    1  A    between atoms: C_2  and  C_3
REMARK    2  A    between atoms: C_2  and  C_10
REMARK    3  A    between atoms: C_10  and  C_12
REMARK    4  A    between atoms: C_10  and  C_18
REMARK    5  A    between atoms: C_12  and  N_13
REMARK                            x       y       z     vdW  Elec       q    Type
REMARK                         _______ _______ _______ _____ _____    ______ ____
ROOT
ATOM      1  C   UNL     1       1.743   5.884  -5.938  0.00  0.00    +0.175 C 
ATOM      2  O   UNL     1       1.537   7.218  -6.059  0.00  0.00    -0.219 OA
ENDROOT
BRANCH   1   3
ATOM      3  C   UNL     1       1.978   5.388  -7.335  0.00  0.00    +0.035 A 
ATOM      4  C   UNL     1       2.312   4.087  -7.622  0.00  0.00    +0.141 A 
ATOM      5  F   UNL     1       2.289   3.158  -6.658  0.00  0.00    -0.204 F 
ATOM      6  C   UNL     1       3.191   3.869  -8.675  0.00  0.00    +0.059 A 
ATOM      7  C   UNL     1       3.481   4.883  -9.578  0.00  0.00    +0.142 A 
ATOM      8  F   UNL     1       4.607   4.886 -10.332  0.00  0.00    -0.204 F 
ATOM      9  C   UNL     1       2.710   6.029  -9.521  0.00  0.00    +0.030 A 
ATOM     10  C   UNL     1       1.860   6.223  -8.440  0.00  0.00    +0.003 A 
ENDBRANCH   1   3
BRANCH   1  12
ATOM     11  C   UNL     1       4.066   6.571  -6.156  0.00  0.00    +0.009 C 
ATOM     12  C   UNL     1       3.161   5.603  -5.163  0.00  0.00    +0.077 C 
BRANCH  12  13
ATOM     13  C   UNL     1       2.923   6.706  -4.003  0.00  0.00    +0.092 A 
ATOM     14  C   UNL     1       3.982   7.445  -3.582  0.00  0.00    +0.173 A 
ATOM     15  F   UNL     1       4.653   8.012  -4.632  0.00  0.00    -0.201 F 
ATOM     16  C   UNL     1       3.844   8.118  -2.374  0.00  0.00    +0.131 A 
ATOM     17  N   UNL     1       3.263   7.428  -1.375  0.00  0.00    -0.220 NA
ATOM     18  C   UNL     1       2.321   6.531  -1.736  0.00  0.00    +0.199 A 
ATOM     19  N   UNL     1       2.225   6.093  -3.009  0.00  0.00    -0.226 NA
ENDBRANCH  12  13
ENDBRANCH   1  12
BRANCH   1  20
ATOM     20  C   UNL     1       0.667   5.070  -5.363  0.00  0.00    +0.164 C 
BRANCH  20  21
ATOM     21  N   UNL     1      -0.589   5.745  -5.680  0.00  0.00    -0.227 N 
ATOM     22  N   UNL     1      -1.265   6.435  -4.760  0.00  0.00    -0.145 NA
ATOM     23  C   UNL     1      -2.429   6.827  -5.330  0.00  0.00    +0.221 A 
ATOM     24  N   UNL     1      -2.652   5.887  -6.280  0.00  0.00    -0.201 NA
ATOM     25  C   UNL     1      -1.445   5.425  -6.681  0.00  0.00    +0.197 A 
ENDBRANCH  20  21
ENDBRANCH   1  20
TORSDOF 5
ENDMDL
MODEL 6
REMARK VINA RESULT:      -7.5      2.378      4.835
REMARK  Name = 
REMARK  5 active torsions:
REMARK  status: ('A' for Active; 'I' for Inactive)
REMARK    1  A    between atoms: C_2  and  C_3
REMARK    2  A    between atoms: C_2  and  C_10
REMARK    3  A    between atoms: C_10  and  C_12
REMARK    4  A    between atoms: C_10  and  C_18
REMARK    5  A    between atoms: C_12  and  N_13
REMARK                            x       y       z     vdW  Elec       q    Type
REMARK                         _______ _______ _______ _____ _____    ______ ____
ROOT
ATOM      1  C   UNL     1       0.964   5.772  -5.615  0.00  0.00    +0.175 C 
ATOM      2  O   UNL     1       0.810   4.480  -5.235  0.00  0.00    -0.219 OA
ENDROOT
BRANCH   1   3
ATOM      3  C   UNL     1       1.604   5.717  -6.972  0.00  0.00    +0.035 A 
ATOM      4  C   UNL     1       2.192   4.584  -7.476  0.00  0.00    +0.141 A 
ATOM      5  F   UNL     1       2.080   3.419  -6.825  0.00  0.00    -0.204 F 
ATOM      6  C   UNL     1       3.323   4.748  -8.266  0.00  0.00    +0.059 A 
ATOM      7  C   UNL     1       3.664   5.997  -8.766  0.00  0.00    +0.142 A 
ATOM      8  F   UNL     1       4.925   6.307  -9.154  0.00  0.00    -0.204 F 
ATOM      9  C   UNL     1       2.736   7.013  -8.634  0.00  0.00    +0.030 A 
ATOM     10  C   UNL     1       1.630   6.821  -7.815  0.00  0.00    +0.003 A 
ENDBRANCH   1   3
BRANCH   1  12
ATOM     11  C   UNL     1      -1.032   5.271  -6.911  0.00  0.00    +0.009 C 
ATOM     12  C   UNL     1      -0.503   6.456  -5.884  0.00  0.00    +0.077 C 
BRANCH  12  13
ATOM     13  C   UNL     1      -1.197   5.861  -4.548  0.00  0.00    +0.092 A 
ATOM     14  C   UNL     1      -2.538   5.645  -4.554  0.00  0.00    +0.173 A 
ATOM     15  F   UNL     1      -2.928   4.916  -5.645  0.00  0.00    -0.201 F 
ATOM     16  C   UNL     1      -3.157   5.476  -3.322  0.00  0.00    +0.131 A 
ATOM     17  N   UNL     1      -2.772   6.318  -2.345  0.00  0.00    -0.220 NA
ATOM     18  C   UNL     1      -1.486   6.728  -2.380  0.00  0.00    +0.199 A 
ATOM     19  N   UNL     1      -0.744   6.602  -3.501  0.00  0.00    -0.226 NA
ENDBRANCH  12  13
ENDBRANCH   1  12
BRANCH   1  20
ATOM     20  C   UNL     1       1.797   6.641  -4.777  0.00  0.00    +0.164 C 
BRANCH  20  21
ATOM     21  N   UNL     1       2.674   5.768  -4.003  0.00  0.00    -0.227 N 
ATOM     22  N   UNL     1       2.549   5.642  -2.681  0.00  0.00    -0.145 NA
ATOM     23  C   UNL     1       3.576   4.868  -2.255  0.00  0.00    +0.221 A 
ATOM     24  N   UNL     1       4.542   5.080  -3.181  0.00  0.00    -0.201 NA
ATOM     25  C   UNL     1       3.923   5.370  -4.350  0.00  0.00    +0.197 A 
ENDBRANCH  20  21
ENDBRANCH   1  20
TORSDOF 5
ENDMDL
MODEL 7
REMARK VINA RESULT:      -7.2      3.578      5.518
REMARK  Name = 
REMARK  5 active torsions:
REMARK  status: ('A' for Active; 'I' for Inactive)
REMARK    1  A    between atoms: C_2  and  C_3
REMARK    2  A    between atoms: C_2  and  C_10
REMARK    3  A    between atoms: C_10  and  C_12
REMARK    4  A    between atoms: C_10  and  C_18
REMARK    5  A    between atoms: C_12  and  N_13
REMARK                            x       y       z     vdW  Elec       q    Type
REMARK                         _______ _______ _______ _____ _____    ______ ____
ROOT
ATOM      1  C   UNL     1       3.373   6.260  -9.567  0.00  0.00    +0.175 C 
ATOM      2  O   UNL     1       2.782   7.331 -10.150  0.00  0.00    -0.219 OA
ENDROOT
BRANCH   1   3
ATOM      3  C   UNL     1       4.790   6.265 -10.065  0.00  0.00    +0.035 A 
ATOM      4  C   UNL     1       5.776   5.479  -9.523  0.00  0.00    +0.141 A 
ATOM      5  F   UNL     1       5.470   4.546  -8.613  0.00  0.00    -0.204 F 
ATOM      6  C   UNL     1       7.057   6.012  -9.460  0.00  0.00    +0.059 A 
ATOM      7  C   UNL     1       7.386   7.155 -10.176  0.00  0.00    +0.142 A 
ATOM      8  F   UNL     1       8.430   7.950  -9.839  0.00  0.00    -0.204 F 
ATOM      9  C   UNL     1       6.472   7.610 -11.108  0.00  0.00    +0.030 A 
ATOM     10  C   UNL     1       5.192   7.069 -11.125  0.00  0.00    +0.003 A 
ENDBRANCH   1   3
BRANCH   1  12
ATOM     11  C   UNL     1       2.523   7.835  -7.919  0.00  0.00    +0.009 C 
ATOM     12  C   UNL     1       3.509   6.505  -7.950  0.00  0.00    +0.077 C 
BRANCH  12  13
ATOM     13  C   UNL     1       2.374   5.428  -7.536  0.00  0.00    +0.092 A 
ATOM     14  C   UNL     1       1.137   5.883  -7.206  0.00  0.00    +0.173 A 
ATOM     15  F   UNL     1       0.643   6.739  -8.152  0.00  0.00    -0.201 F 
ATOM     16  C   UNL     1       0.300   5.004  -6.528  0.00  0.00    +0.131 A 
ATOM     17  N   UNL     1       0.870   4.285  -5.543  0.00  0.00    -0.220 NA
ATOM     18  C   UNL     1       2.166   3.951  -5.718  0.00  0.00    +0.199 A 
ATOM     19  N   UNL     1       2.936   4.590  -6.624  0.00  0.00    -0.226 NA
ENDBRANCH  12  13
ENDBRANCH   1  12
BRANCH   1  20
ATOM     20  C   UNL     1       2.819   4.931  -9.846  0.00  0.00    +0.164 C 
BRANCH  20  21
ATOM     21  N   UNL     1       1.722   5.120 -10.791  0.00  0.00    -0.227 N 
ATOM     22  N   UNL     1       0.501   4.638 -10.552  0.00  0.00    -0.145 NA
ATOM     23  C   UNL     1      -0.243   4.871 -11.660  0.00  0.00    +0.221 A 
ATOM     24  N   UNL     1       0.672   4.906 -12.658  0.00  0.00    -0.201 NA
ATOM     25  C   UNL     1       1.836   5.342 -12.123  0.00  0.00    +0.197 A 
ENDBRANCH  20  21
ENDBRANCH   1  20
TORSDOF 5
ENDMDL
MODEL 8
REMARK VINA RESULT:      -7.2      3.476      5.351
REMARK  Name = 
REMARK  5 active torsions:
REMARK  status: ('A' for Active; 'I' for Inactive)
REMARK    1  A    between atoms: C_2  and  C_3
REMARK    2  A    between atoms: C_2  and  C_10
REMARK    3  A    between atoms: C_10  and  C_12
REMARK    4  A    between atoms: C_10  and  C_18
REMARK    5  A    between atoms: C_12  and  N_13
REMARK                            x       y       z     vdW  Elec       q    Type
REMARK                         _______ _______ _______ _____ _____    ______ ____
ROOT
ATOM      1  C   UNL     1       2.294   6.179  -8.923  0.00  0.00    +0.175 C 
ATOM      2  O   UNL     1       2.182   7.529  -8.863  0.00  0.00    -0.219 OA
ENDROOT
BRANCH   1   3
ATOM      3  C   UNL     1       3.657   5.916  -9.494  0.00  0.00    +0.035 A 
ATOM      4  C   UNL     1       4.320   4.725  -9.332  0.00  0.00    +0.141 A 
ATOM      5  F   UNL     1       3.697   3.678  -8.778  0.00  0.00    -0.204 F 
ATOM      6  C   UNL     1       5.700   4.775  -9.187  0.00  0.00    +0.059 A 
ATOM      7  C   UNL     1       6.403   5.933  -9.490  0.00  0.00    +0.142 A 
ATOM      8  F   UNL     1       7.633   6.192  -8.982  0.00  0.00    -0.204 F 
ATOM      9  C   UNL     1       5.720   6.945 -10.137  0.00  0.00    +0.030 A 
ATOM     10  C   UNL     1       4.336   6.872 -10.241  0.00  0.00    +0.003 A 
ENDBRANCH   1   3
BRANCH   1  12
ATOM     11  C   UNL     1       3.325   6.752  -6.796  0.00  0.00    +0.009 C 
ATOM     12  C   UNL     1       2.361   5.554  -7.407  0.00  0.00    +0.077 C 
BRANCH  12  13
ATOM     13  C   UNL     1       0.953   6.186  -6.919  0.00  0.00    +0.092 A 
ATOM     14  C   UNL     1       0.790   6.466  -5.599  0.00  0.00    +0.173 A 
ATOM     15  F   UNL     1       1.830   7.209  -5.107  0.00  0.00    -0.201 F 
ATOM     16  C   UNL     1      -0.510   6.669  -5.151  0.00  0.00    +0.131 A 
ATOM     17  N   UNL     1      -1.438   5.814  -5.619  0.00  0.00    -0.220 NA
ATOM     18  C   UNL     1      -1.242   5.343  -6.869  0.00  0.00    +0.199 A 
ATOM     19  N   UNL     1      -0.035   5.429  -7.467  0.00  0.00    -0.226 NA
ENDBRANCH  12  13
ENDBRANCH   1  12
BRANCH   1  20
ATOM     20  C   UNL     1       1.328   5.444  -9.746  0.00  0.00    +0.164 C 
BRANCH  20  21
ATOM     21  N   UNL     1       0.851   6.371 -10.768  0.00  0.00    -0.227 N 
ATOM     22  N   UNL     1      -0.372   6.902 -10.717  0.00  0.00    -0.145 NA
ATOM     23  C   UNL     1      -0.547   7.610 -11.859  0.00  0.00    +0.221 A 
ATOM     24  N   UNL     1       0.271   6.995 -12.746  0.00  0.00    -0.201 NA
ATOM     25  C   UNL     1       1.299   6.463 -12.045  0.00  0.00    +0.197 A 
ENDBRANCH  20  21
ENDBRANCH   1  20
TORSDOF 5
ENDMDL
MODEL 9
REMARK VINA RESULT:      -7.2      2.914      6.604
REMARK  Name = 
REMARK  5 active torsions:
REMARK  status: ('A' for Active; 'I' for Inactive)
REMARK    1  A    between atoms: C_2  and  C_3
REMARK    2  A    between atoms: C_2  and  C_10
REMARK    3  A    between atoms: C_10  and  C_12
REMARK    4  A    between atoms: C_10  and  C_18
REMARK    5  A    between atoms: C_12  and  N_13
REMARK                            x       y       z     vdW  Elec       q    Type
REMARK                         _______ _______ _______ _____ _____    ______ ____
ROOT
ATOM      1  C   UNL     1       0.781   6.051  -4.930  0.00  0.00    +0.175 C 
ATOM      2  O   UNL     1       0.945   7.164  -5.686  0.00  0.00    -0.219 OA
ENDROOT
BRANCH   1   3
ATOM      3  C   UNL     1      -0.290   6.397  -3.937  0.00  0.00    +0.035 A 
ATOM      4  C   UNL     1      -0.604   5.597  -2.865  0.00  0.00    +0.141 A 
ATOM      5  F   UNL     1       0.155   4.534  -2.574  0.00  0.00    -0.204 F 
ATOM      6  C   UNL     1      -1.938   5.533  -2.484  0.00  0.00    +0.059 A 
ATOM      7  C   UNL     1      -2.858   6.455  -2.964  0.00  0.00    +0.142 A 
ATOM      8  F   UNL     1      -4.191   6.208  -2.990  0.00  0.00    -0.204 F 
ATOM      9  C   UNL     1      -2.367   7.550  -3.650  0.00  0.00    +0.030 A 
ATOM     10  C   UNL     1      -1.033   7.568  -4.037  0.00  0.00    +0.003 A 
ENDBRANCH   1   3
BRANCH   1  12
ATOM     11  C   UNL     1      -1.182   5.737  -6.332  0.00  0.00    +0.009 C 
ATOM     12  C   UNL     1       0.124   4.850  -5.835  0.00  0.00    +0.077 C 
BRANCH  12  13
ATOM     13  C   UNL     1       1.038   5.126  -7.142  0.00  0.00    +0.092 A 
ATOM     14  C   UNL     1       0.433   5.189  -8.356  0.00  0.00    +0.173 A 
ATOM     15  F   UNL     1      -0.634   6.046  -8.346  0.00  0.00    -0.201 F 
ATOM     16  C   UNL     1       1.247   5.074  -9.477  0.00  0.00    +0.131 A 
ATOM     17  N   UNL     1       2.201   4.125  -9.420  0.00  0.00    -0.220 NA
ATOM     18  C   UNL     1       2.724   3.874  -8.202  0.00  0.00    +0.199 A 
ATOM     19  N   UNL     1       2.095   4.271  -7.076  0.00  0.00    -0.226 NA
ENDBRANCH  12  13
ENDBRANCH   1  12
BRANCH   1  20
ATOM     20  C   UNL     1       1.935   5.558  -4.171  0.00  0.00    +0.164 C 
BRANCH  20  21
ATOM     21  N   UNL     1       2.922   6.633  -4.156  0.00  0.00    -0.227 N 
ATOM     22  N   UNL     1       4.013   6.595  -4.922  0.00  0.00    -0.145 NA
ATOM     23  C   UNL     1       4.774   7.664  -4.587  0.00  0.00    +0.221 A 
ATOM     24  N   UNL     1       4.430   7.911  -3.301  0.00  0.00    -0.201 NA
ATOM     25  C   UNL     1       3.149   7.503  -3.140  0.00  0.00    +0.197 A 
ENDBRANCH  20  21
ENDBRANCH   1  20
TORSDOF 5
ENDMDL
