MODEL 1
REMARK VINA RESULT:      -4.9      0.000      0.000
REMARK  Name = 
REMARK  3 active torsions:
REMARK  status: ('A' for Active; 'I' for Inactive)
REMARK    1  A    between atoms: C_2  and  O_4
REMARK    2  A    between atoms: O_4  and  C_5
REMARK    3  A    between atoms: C_5  and  C_7
REMARK                            x       y       z     vdW  Elec       q    Type
REMARK                         _______ _______ _______ _____ _____    ______ ____
ROOT
ATOM      1  C   UNL     1       6.766   6.084 -11.280  0.00  0.00    +0.294 C 
ATOM      2 CL   UNL     1       6.422   5.781  -9.436  0.00  0.00    -0.073 Cl
ENDROOT
BRANCH   1   3
ATOM      3  C   UNL     1       6.378   7.650 -11.232  0.00  0.00    +0.437 C 
ATOM      4  F   UNL     1       5.117   7.744 -10.730  0.00  0.00    -0.166 F 
ATOM      5  F   UNL     1       6.427   8.022 -12.570  0.00  0.00    -0.166 F 
ATOM      6  F   UNL     1       7.341   8.316 -10.549  0.00  0.00    -0.166 F 
ENDBRANCH   1   3
BRANCH   1   7
ATOM      7  O   UNL     1       8.213   6.350 -11.063  0.00  0.00    -0.278 OA
BRANCH   7   9
ATOM      8  F   UNL     1       8.021   5.471 -13.166  0.00  0.00    -0.166 F 
ATOM      9  C   UNL     1       8.787   5.722 -12.141  0.00  0.00    +0.451 C 
ATOM     10  F   UNL     1      10.063   6.095 -12.429  0.00  0.00    -0.166 F 
ENDBRANCH   7   9
ENDBRANCH   1   7
TORSDOF 3
ENDMDL
MODEL 2
REMARK VINA RESULT:      -4.8      1.131      3.499
REMARK  Name = 
REMARK  3 active torsions:
REMARK  status: ('A' for Active; 'I' for Inactive)
REMARK    1  A    between atoms: C_2  and  O_4
REMARK    2  A    between atoms: O_4  and  C_5
REMARK    3  A    between atoms: C_5  and  C_7
REMARK                            x       y       z     vdW  Elec       q    Type
REMARK                         _______ _______ _______ _____ _____    ______ ____
ROOT
ATOM      1  C   UNL     1       7.775   6.735 -11.054  0.00  0.00    +0.294 C 
ATOM      2 CL   UNL     1       7.796   5.444  -9.660  0.00  0.00    -0.073 Cl
ENDROOT
BRANCH   1   3
ATOM      3  C   UNL     1       8.425   5.752 -12.157  0.00  0.00    +0.437 C 
ATOM      4  F   UNL     1       9.772   5.749 -11.958  0.00  0.00    -0.166 F 
ATOM      5  F   UNL     1       8.084   6.365 -13.357  0.00  0.00    -0.166 F 
ATOM      6  F   UNL     1       7.811   4.547 -12.081  0.00  0.00    -0.166 F 
ENDBRANCH   1   3
BRANCH   1   7
ATOM      7  O   UNL     1       6.382   6.409 -11.462  0.00  0.00    -0.278 OA
BRANCH   7   9
ATOM      8  F   UNL     1       4.816   7.698 -10.405  0.00  0.00    -0.166 F 
ATOM      9  C   UNL     1       5.747   7.617 -11.315  0.00  0.00    +0.451 C 
ATOM     10  F   UNL     1       6.531   8.718 -11.462  0.00  0.00    -0.166 F 
ENDBRANCH   7   9
ENDBRANCH   1   7
TORSDOF 3
ENDMDL
MODEL 3
REMARK VINA RESULT:      -4.6     11.100     11.851
REMARK  Name = 
REMARK  3 active torsions:
REMARK  status: ('A' for Active; 'I' for Inactive)
REMARK    1  A    between atoms: C_2  and  O_4
REMARK    2  A    between atoms: O_4  and  C_5
REMARK    3  A    between atoms: C_5  and  C_7
REMARK                            x       y       z     vdW  Elec       q    Type
REMARK                         _______ _______ _______ _____ _____    ______ ____
ROOT
ATOM      1  C   UNL     1      -1.878   5.963  -4.771  0.00  0.00    +0.294 C 
ATOM      2 CL   UNL     1      -3.146   5.114  -3.638  0.00  0.00    -0.073 Cl
ENDROOT
BRANCH   1   3
ATOM      3  C   UNL     1      -2.553   5.441  -6.141  0.00  0.00    +0.437 C 
ATOM      4  F   UNL     1      -3.117   6.517  -6.755  0.00  0.00    -0.166 F 
ATOM      5  F   UNL     1      -3.514   4.545  -5.690  0.00  0.00    -0.166 F 
ATOM      6  F   UNL     1      -1.619   4.770  -6.858  0.00  0.00    -0.166 F 
ENDBRANCH   1   3
BRANCH   1   7
ATOM      7  O   UNL     1      -2.623   7.251  -4.797  0.00  0.00    -0.278 OA
BRANCH   7   9
ATOM      8  F   UNL     1      -0.513   8.072  -5.123  0.00  0.00    -0.166 F 
ATOM      9  C   UNL     1      -1.643   8.158  -4.476  0.00  0.00    +0.451 C 
ATOM     10  F   UNL     1      -2.074   9.417  -4.196  0.00  0.00    -0.166 F 
ENDBRANCH   7   9
ENDBRANCH   1   7
TORSDOF 3
ENDMDL
MODEL 4
REMARK VINA RESULT:      -4.6     10.054     11.142
REMARK  Name = 
REMARK  3 active torsions:
REMARK  status: ('A' for Active; 'I' for Inactive)
REMARK    1  A    between atoms: C_2  and  O_4
REMARK    2  A    between atoms: O_4  and  C_5
REMARK    3  A    between atoms: C_5  and  C_7
REMARK                            x       y       z     vdW  Elec       q    Type
REMARK                         _______ _______ _______ _____ _____    ______ ____
ROOT
ATOM      1  C   UNL     1      -2.121   6.113  -4.565  0.00  0.00    +0.294 C 
ATOM      2 CL   UNL     1      -1.020   5.802  -3.047  0.00  0.00    -0.073 Cl
ENDROOT
BRANCH   1   3
ATOM      3  C   UNL     1      -1.959   7.719  -4.521  0.00  0.00    +0.437 C 
ATOM      4  F   UNL     1      -2.223   8.121  -3.247  0.00  0.00    -0.166 F 
ATOM      5  F   UNL     1      -2.936   8.152  -5.409  0.00  0.00    -0.166 F 
ATOM      6  F   UNL     1      -0.737   8.046  -5.006  0.00  0.00    -0.166 F 
ENDBRANCH   1   3
BRANCH   1   7
ATOM      7  O   UNL     1      -1.000   5.943  -5.529  0.00  0.00    -0.278 OA
BRANCH   7   9
ATOM      8  F   UNL     1      -2.922   5.353  -6.621  0.00  0.00    -0.166 F 
ATOM      9  C   UNL     1      -1.618   5.317  -6.583  0.00  0.00    +0.451 C 
ATOM     10  F   UNL     1      -0.986   5.418  -7.783  0.00  0.00    -0.166 F 
ENDBRANCH   7   9
ENDBRANCH   1   7
TORSDOF 3
ENDMDL
MODEL 5
REMARK VINA RESULT:      -4.6     11.081     12.555
REMARK  Name = 
REMARK  3 active torsions:
REMARK  status: ('A' for Active; 'I' for Inactive)
REMARK    1  A    between atoms: C_2  and  O_4
REMARK    2  A    between atoms: O_4  and  C_5
REMARK    3  A    between atoms: C_5  and  C_7
REMARK                            x       y       z     vdW  Elec       q    Type
REMARK                         _______ _______ _______ _____ _____    ______ ____
ROOT
ATOM      1  C   UNL     1      -1.612   6.185  -4.230  0.00  0.00    +0.294 C 
ATOM      2 CL   UNL     1      -1.306   5.655  -6.030  0.00  0.00    -0.073 Cl
ENDROOT
BRANCH   1   3
ATOM      3  C   UNL     1      -1.868   7.738  -4.590  0.00  0.00    +0.437 C 
ATOM      4  F   UNL     1      -2.909   7.787  -5.465  0.00  0.00    -0.166 F 
ATOM      5  F   UNL     1      -0.674   8.117  -5.191  0.00  0.00    -0.166 F 
ATOM      6  F   UNL     1      -2.028   8.431  -3.437  0.00  0.00    -0.166 F 
ENDBRANCH   1   3
BRANCH   1   7
ATOM      7  O   UNL     1      -3.060   5.848  -4.278  0.00  0.00    -0.278 OA
BRANCH   7   9
ATOM      8  F   UNL     1      -2.413   5.150  -2.198  0.00  0.00    -0.166 F 
ATOM      9  C   UNL     1      -3.354   5.648  -2.951  0.00  0.00    +0.451 C 
ATOM     10  F   UNL     1      -4.140   6.595  -2.373  0.00  0.00    -0.166 F 
ENDBRANCH   7   9
ENDBRANCH   1   7
TORSDOF 3
ENDMDL
MODEL 6
REMARK VINA RESULT:      -4.5      2.248      2.950
REMARK  Name = 
REMARK  3 active torsions:
REMARK  status: ('A' for Active; 'I' for Inactive)
REMARK    1  A    between atoms: C_2  and  O_4
REMARK    2  A    between atoms: O_4  and  C_5
REMARK    3  A    between atoms: C_5  and  C_7
REMARK                            x       y       z     vdW  Elec       q    Type
REMARK                         _______ _______ _______ _____ _____    ______ ____
ROOT
ATOM      1  C   UNL     1       7.470   6.875 -11.004  0.00  0.00    +0.294 C 
ATOM      2 CL   UNL     1       7.993   5.817 -12.493  0.00  0.00    -0.073 Cl
ENDROOT
BRANCH   1   3
ATOM      3  C   UNL     1       6.406   7.759 -11.836  0.00  0.00    +0.437 C 
ATOM      4  F   UNL     1       6.594   9.061 -11.486  0.00  0.00    -0.166 F 
ATOM      5  F   UNL     1       5.183   7.278 -11.383  0.00  0.00    -0.166 F 
ATOM      6  F   UNL     1       6.538   7.473 -13.153  0.00  0.00    -0.166 F 
ENDBRANCH   1   3
BRANCH   1   7
ATOM      7  O   UNL     1       6.438   5.902 -10.556  0.00  0.00    -0.278 OA
BRANCH   7   9
ATOM      8  F   UNL     1       5.972   5.165  -8.441  0.00  0.00    -0.166 F 
ATOM      9  C   UNL     1       6.868   5.588  -9.290  0.00  0.00    +0.451 C 
ATOM     10  F   UNL     1       8.088   4.993  -9.212  0.00  0.00    -0.166 F 
ENDBRANCH   7   9
ENDBRANCH   1   7
TORSDOF 3
ENDMDL
MODEL 7
REMARK VINA RESULT:      -4.4      2.210      2.935
REMARK  Name = 
REMARK  3 active torsions:
REMARK  status: ('A' for Active; 'I' for Inactive)
REMARK    1  A    between atoms: C_2  and  O_4
REMARK    2  A    between atoms: O_4  and  C_5
REMARK    3  A    between atoms: C_5  and  C_7
REMARK                            x       y       z     vdW  Elec       q    Type
REMARK                         _______ _______ _______ _____ _____    ______ ____
ROOT
ATOM      1  C   UNL     1       7.260   5.602 -11.625  0.00  0.00    +0.294 C 
ATOM      2 CL   UNL     1       9.109   5.801 -12.013  0.00  0.00    -0.073 Cl
ENDROOT
BRANCH   1   3
ATOM      3  C   UNL     1       7.394   6.075 -10.087  0.00  0.00    +0.437 C 
ATOM      4  F   UNL     1       8.025   5.079  -9.407  0.00  0.00    -0.166 F 
ATOM      5  F   UNL     1       6.070   6.211  -9.688  0.00  0.00    -0.166 F 
ATOM      6  F   UNL     1       7.996   7.289 -10.057  0.00  0.00    -0.166 F 
ENDBRANCH   1   3
BRANCH   1   7
ATOM      7  O   UNL     1       6.916   6.968 -12.103  0.00  0.00    -0.278 OA
BRANCH   7   9
ATOM      8  F   UNL     1       6.469   7.578 -14.262  0.00  0.00    -0.166 F 
ATOM      9  C   UNL     1       6.302   6.709 -13.303  0.00  0.00    +0.451 C 
ATOM     10  F   UNL     1       6.275   5.403 -13.682  0.00  0.00    -0.166 F 
ENDBRANCH   7   9
ENDBRANCH   1   7
TORSDOF 3
ENDMDL
MODEL 8
REMARK VINA RESULT:      -4.4     10.487     11.182
REMARK  Name = 
REMARK  3 active torsions:
REMARK  status: ('A' for Active; 'I' for Inactive)
REMARK    1  A    between atoms: C_2  and  O_4
REMARK    2  A    between atoms: O_4  and  C_5
REMARK    3  A    between atoms: C_5  and  C_7
REMARK                            x       y       z     vdW  Elec       q    Type
REMARK                         _______ _______ _______ _____ _____    ______ ____
ROOT
ATOM      1  C   UNL     1      -1.129   6.633  -5.322  0.00  0.00    +0.294 C 
ATOM      2 CL   UNL     1      -2.329   5.605  -6.377  0.00  0.00    -0.073 Cl
ENDROOT
BRANCH   1   3
ATOM      3  C   UNL     1      -2.268   7.624  -4.751  0.00  0.00    +0.437 C 
ATOM      4  F   UNL     1      -3.222   7.748  -5.714  0.00  0.00    -0.166 F 
ATOM      5  F   UNL     1      -1.575   8.813  -4.559  0.00  0.00    -0.166 F 
ATOM      6  F   UNL     1      -2.691   7.156  -3.552  0.00  0.00    -0.166 F 
ENDBRANCH   1   3
BRANCH   1   7
ATOM      7  O   UNL     1      -1.223   5.717  -4.154  0.00  0.00    -0.278 OA
BRANCH   7   9
ATOM      8  F   UNL     1       0.750   4.651  -4.608  0.00  0.00    -0.166 F 
ATOM      9  C   UNL     1       0.099   5.493  -3.854  0.00  0.00    +0.451 C 
ATOM     10  F   UNL     1       0.800   6.579  -3.434  0.00  0.00    -0.166 F 
ENDBRANCH   7   9
ENDBRANCH   1   7
TORSDOF 3
ENDMDL
MODEL 9
REMARK VINA RESULT:      -4.4     11.057     12.492
REMARK  Name = 
REMARK  3 active torsions:
REMARK  status: ('A' for Active; 'I' for Inactive)
REMARK    1  A    between atoms: C_2  and  O_4
REMARK    2  A    between atoms: O_4  and  C_5
REMARK    3  A    between atoms: C_5  and  C_7
REMARK                            x       y       z     vdW  Elec       q    Type
REMARK                         _______ _______ _______ _____ _____    ______ ____
ROOT
ATOM      1  C   UNL     1      -1.624   6.284  -3.715  0.00  0.00    +0.294 C 
ATOM      2 CL   UNL     1      -1.926   8.049  -4.351  0.00  0.00    -0.073 Cl
ENDROOT
BRANCH   1   3
ATOM      3  C   UNL     1      -2.617   6.426  -2.450  0.00  0.00    +0.437 C 
ATOM      4  F   UNL     1      -2.540   5.269  -1.738  0.00  0.00    -0.166 F 
ATOM      5  F   UNL     1      -3.862   6.577  -3.050  0.00  0.00    -0.166 F 
ATOM      6  F   UNL     1      -2.305   7.561  -1.778  0.00  0.00    -0.166 F 
ENDBRANCH   1   3
BRANCH   1   7
ATOM      7  O   UNL     1      -2.678   5.691  -4.582  0.00  0.00    -0.278 OA
BRANCH   7   9
ATOM      8  F   UNL     1      -1.214   5.055  -6.220  0.00  0.00    -0.166 F 
ATOM      9  C   UNL     1      -2.156   5.874  -5.838  0.00  0.00    +0.451 C 
ATOM     10  F   UNL     1      -3.043   6.249  -6.798  0.00  0.00    -0.166 F 
ENDBRANCH   7   9
ENDBRANCH   1   7
TORSDOF 3
ENDMDL
