MODEL 1
REMARK VINA RESULT:      -6.3      0.000      0.000
REMARK  Name = 
REMARK  3 active torsions:
REMARK  status: ('A' for Active; 'I' for Inactive)
REMARK    1  A    between atoms: N_6  and  C_7
REMARK    2  A    between atoms: C_7  and  C_8
REMARK    3  A    between atoms: C_8  and  C_10
REMARK                            x       y       z     vdW  Elec       q    Type
REMARK                         _______ _______ _______ _____ _____    ______ ____
ROOT
ATOM      1  C   UNL     1       1.767   5.164  -8.418  0.00  0.00    +0.137 C 
ATOM      2  N   UNL     1       1.495   5.489  -7.060  0.00  0.00    -0.263 N 
ATOM      3  C   UNL     1       2.491   5.636  -6.155  0.00  0.00    +0.335 A 
ATOM      4  O   UNL     1       3.675   5.599  -6.555  0.00  0.00    -0.246 OA
ATOM      5  N   UNL     1       2.302   5.407  -4.839  0.00  0.00    -0.245 N 
ATOM      6  C   UNL     1       3.265   5.900  -3.890  0.00  0.00    +0.138 C 
ATOM      7  C   UNL     1       1.031   5.222  -4.407  0.00  0.00    +0.283 A 
ATOM      8  O   UNL     1       0.776   5.061  -3.198  0.00  0.00    -0.265 OA
ATOM      9  C   UNL     1      -0.040   5.383  -5.278  0.00  0.00    +0.153 A 
ATOM     10  N   UNL     1      -1.342   5.707  -5.117  0.00  0.00    -0.301 N 
ATOM     11  C   UNL     1      -1.910   5.507  -6.305  0.00  0.00    +0.180 A 
ATOM     12  N   UNL     1      -0.969   5.163  -7.218  0.00  0.00    -0.206 NA
ATOM     13  C   UNL     1       0.243   5.277  -6.627  0.00  0.00    +0.170 A 
ENDROOT
BRANCH  10  14
ATOM     14  C   UNL     1      -1.854   6.354  -3.913  0.00  0.00    +0.143 C 
BRANCH  14  15
ATOM     15  C   UNL     1      -3.159   5.356  -3.555  0.00  0.00    +0.207 C 
ATOM     16  O   UNL     1      -2.391   4.729  -2.368  0.00  0.00    -0.218 OA
BRANCH  15  17
ATOM     17  C   UNL     1      -3.833   6.526  -2.553  0.00  0.00    +0.217 C 
ATOM     18  O   UNL     1      -2.681   6.999  -1.904  0.00  0.00    -0.218 OA
ENDBRANCH  15  17
ENDBRANCH  14  15
ENDBRANCH  10  14
TORSDOF 3
ENDMDL
MODEL 2
REMARK VINA RESULT:      -6.2      1.730      5.321
REMARK  Name = 
REMARK  3 active torsions:
REMARK  status: ('A' for Active; 'I' for Inactive)
REMARK    1  A    between atoms: N_6  and  C_7
REMARK    2  A    between atoms: C_7  and  C_8
REMARK    3  A    between atoms: C_8  and  C_10
REMARK                            x       y       z     vdW  Elec       q    Type
REMARK                         _______ _______ _______ _____ _____    ______ ____
ROOT
ATOM      1  C   UNL     1      -3.177   5.912  -3.342  0.00  0.00    +0.137 C 
ATOM      2  N   UNL     1      -1.831   5.461  -3.441  0.00  0.00    -0.263 N 
ATOM      3  C   UNL     1      -1.061   5.289  -2.341  0.00  0.00    +0.335 A 
ATOM      4  O   UNL     1      -1.587   5.418  -1.214  0.00  0.00    -0.246 OA
ATOM      5  N   UNL     1       0.283   5.398  -2.384  0.00  0.00    -0.245 N 
ATOM      6  C   UNL     1       1.070   4.876  -1.298  0.00  0.00    +0.138 C 
ATOM      7  C   UNL     1       0.871   5.484  -3.602  0.00  0.00    +0.283 A 
ATOM      8  O   UNL     1       2.110   5.531  -3.720  0.00  0.00    -0.265 OA
ATOM      9  C   UNL     1       0.116   5.343  -4.760  0.00  0.00    +0.153 A 
ATOM     10  N   UNL     1       0.393   4.943  -6.021  0.00  0.00    -0.301 N 
ATOM     11  C   UNL     1      -0.701   5.213  -6.732  0.00  0.00    +0.180 A 
ATOM     12  N   UNL     1      -1.680   5.677  -5.917  0.00  0.00    -0.206 NA
ATOM     13  C   UNL     1      -1.242   5.574  -4.642  0.00  0.00    +0.170 A 
ENDROOT
BRANCH  10  14
ATOM     14  C   UNL     1       1.585   4.174  -6.363  0.00  0.00    +0.143 C 
BRANCH  14  15
ATOM     15  C   UNL     1       2.242   5.139  -7.572  0.00  0.00    +0.207 C 
ATOM     16  O   UNL     1       3.625   5.114  -6.881  0.00  0.00    -0.218 OA
BRANCH  15  17
ATOM     17  C   UNL     1       2.634   3.790  -8.496  0.00  0.00    +0.217 C 
ATOM     18  O   UNL     1       3.919   4.150  -8.937  0.00  0.00    -0.218 OA
ENDBRANCH  15  17
ENDBRANCH  14  15
ENDBRANCH  10  14
TORSDOF 3
ENDMDL
MODEL 3
REMARK VINA RESULT:      -6.2      2.613      5.176
REMARK  Name = 
REMARK  3 active torsions:
REMARK  status: ('A' for Active; 'I' for Inactive)
REMARK    1  A    between atoms: N_6  and  C_7
REMARK    2  A    between atoms: C_7  and  C_8
REMARK    3  A    between atoms: C_8  and  C_10
REMARK                            x       y       z     vdW  Elec       q    Type
REMARK                         _______ _______ _______ _____ _____    ______ ____
ROOT
ATOM      1  C   UNL     1      -3.177   5.279  -3.566  0.00  0.00    +0.137 C 
ATOM      2  N   UNL     1      -1.822   5.546  -3.911  0.00  0.00    -0.263 N 
ATOM      3  C   UNL     1      -1.433   5.667  -5.202  0.00  0.00    +0.335 A 
ATOM      4  O   UNL     1      -2.307   5.659  -6.096  0.00  0.00    -0.246 OA
ATOM      5  N   UNL     1      -0.176   5.382  -5.600  0.00  0.00    -0.245 N 
ATOM      6  C   UNL     1       0.283   5.847  -6.883  0.00  0.00    +0.138 C 
ATOM      7  C   UNL     1       0.756   5.165  -4.640  0.00  0.00    +0.283 A 
ATOM      8  O   UNL     1       1.949   4.952  -4.933  0.00  0.00    -0.265 OA
ATOM      9  C   UNL     1       0.443   5.350  -3.299  0.00  0.00    +0.153 A 
ATOM     10  N   UNL     1       1.164   5.652  -2.197  0.00  0.00    -0.301 N 
ATOM     11  C   UNL     1       0.332   5.494  -1.169  0.00  0.00    +0.180 A 
ATOM     12  N   UNL     1      -0.911   5.199  -1.619  0.00  0.00    -0.206 NA
ATOM     13  C   UNL     1      -0.899   5.302  -2.968  0.00  0.00    +0.170 A 
ENDROOT
BRANCH  10  14
ATOM     14  C   UNL     1       2.497   6.244  -2.262  0.00  0.00    +0.143 C 
BRANCH  14  15
ATOM     15  C   UNL     1       3.360   5.170  -1.299  0.00  0.00    +0.207 C 
ATOM     16  O   UNL     1       4.336   4.868  -2.460  0.00  0.00    -0.218 OA
BRANCH  15  17
ATOM     17  C   UNL     1       4.352   6.406  -0.735  0.00  0.00    +0.217 C 
ATOM     18  O   UNL     1       3.946   6.462   0.610  0.00  0.00    -0.218 OA
ENDBRANCH  15  17
ENDBRANCH  14  15
ENDBRANCH  10  14
TORSDOF 3
ENDMDL
MODEL 4
REMARK VINA RESULT:      -6.1      2.073      5.146
REMARK  Name = 
REMARK  3 active torsions:
REMARK  status: ('A' for Active; 'I' for Inactive)
REMARK    1  A    between atoms: N_6  and  C_7
REMARK    2  A    between atoms: C_7  and  C_8
REMARK    3  A    between atoms: C_8  and  C_10
REMARK                            x       y       z     vdW  Elec       q    Type
REMARK                         _______ _______ _______ _____ _____    ______ ____
ROOT
ATOM      1  C   UNL     1      -2.793   5.927  -3.723  0.00  0.00    +0.137 C 
ATOM      2  N   UNL     1      -1.511   5.847  -4.336  0.00  0.00    -0.263 N 
ATOM      3  C   UNL     1      -1.374   5.795  -5.682  0.00  0.00    +0.335 A 
ATOM      4  O   UNL     1      -2.391   5.939  -6.395  0.00  0.00    -0.246 OA
ATOM      5  N   UNL     1      -0.317   5.200  -6.271  0.00  0.00    -0.245 N 
ATOM      6  C   UNL     1      -0.037   5.466  -7.658  0.00  0.00    +0.138 C 
ATOM      7  C   UNL     1       0.720   4.828  -5.481  0.00  0.00    +0.283 A 
ATOM      8  O   UNL     1       1.752   4.323  -5.963  0.00  0.00    -0.265 OA
ATOM      9  C   UNL     1       0.732   5.161  -4.132  0.00  0.00    +0.153 A 
ATOM     10  N   UNL     1       1.710   5.351  -3.219  0.00  0.00    -0.301 N 
ATOM     11  C   UNL     1       1.089   5.455  -2.045  0.00  0.00    +0.180 A 
ATOM     12  N   UNL     1      -0.254   5.434  -2.227  0.00  0.00    -0.206 NA
ATOM     13  C   UNL     1      -0.493   5.450  -3.558  0.00  0.00    +0.170 A 
ENDROOT
BRANCH  10  14
ATOM     14  C   UNL     1       3.098   5.608  -3.588  0.00  0.00    +0.143 C 
BRANCH  14  15
ATOM     15  C   UNL     1       3.081   7.284  -3.716  0.00  0.00    +0.207 C 
ATOM     16  O   UNL     1       4.259   7.401  -2.720  0.00  0.00    -0.218 OA
BRANCH  15  17
ATOM     17  C   UNL     1       4.138   7.238  -5.023  0.00  0.00    +0.217 C 
ATOM     18  O   UNL     1       3.232   7.389  -6.087  0.00  0.00    -0.218 OA
ENDBRANCH  15  17
ENDBRANCH  14  15
ENDBRANCH  10  14
TORSDOF 3
ENDMDL
MODEL 5
REMARK VINA RESULT:      -6.1      4.821      7.493
REMARK  Name = 
REMARK  3 active torsions:
REMARK  status: ('A' for Active; 'I' for Inactive)
REMARK    1  A    between atoms: N_6  and  C_7
REMARK    2  A    between atoms: C_7  and  C_8
REMARK    3  A    between atoms: C_8  and  C_10
REMARK                            x       y       z     vdW  Elec       q    Type
REMARK                         _______ _______ _______ _____ _____    ______ ____
ROOT
ATOM      1  C   UNL     1       7.959   5.895 -11.687  0.00  0.00    +0.137 C 
ATOM      2  N   UNL     1       6.596   5.493 -11.620  0.00  0.00    -0.263 N 
ATOM      3  C   UNL     1       5.829   5.405 -12.732  0.00  0.00    +0.335 A 
ATOM      4  O   UNL     1       6.370   5.569 -13.848  0.00  0.00    -0.246 OA
ATOM      5  N   UNL     1       4.491   5.565 -12.693  0.00  0.00    -0.245 N 
ATOM      6  C   UNL     1       3.693   5.127 -13.809  0.00  0.00    +0.138 C 
ATOM      7  C   UNL     1       3.896   5.613 -11.476  0.00  0.00    +0.283 A 
ATOM      8  O   UNL     1       2.658   5.703 -11.365  0.00  0.00    -0.265 OA
ATOM      9  C   UNL     1       4.635   5.386 -10.322  0.00  0.00    +0.153 A 
ATOM     10  N   UNL     1       4.331   4.936  -9.084  0.00  0.00    -0.301 N 
ATOM     11  C   UNL     1       5.428   5.127  -8.354  0.00  0.00    +0.180 A 
ATOM     12  N   UNL     1       6.432   5.593  -9.137  0.00  0.00    -0.206 NA
ATOM     13  C   UNL     1       6.001   5.570 -10.419  0.00  0.00    +0.170 A 
ENDROOT
BRANCH  10  14
ATOM     14  C   UNL     1       3.107   4.197  -8.789  0.00  0.00    +0.143 C 
BRANCH  14  15
ATOM     15  C   UNL     1       2.477   5.129  -7.540  0.00  0.00    +0.207 C 
ATOM     16  O   UNL     1       1.071   5.096  -8.185  0.00  0.00    -0.218 OA
BRANCH  15  17
ATOM     17  C   UNL     1       2.134   3.755  -6.631  0.00  0.00    +0.217 C 
ATOM     18  O   UNL     1       0.986   4.185  -5.945  0.00  0.00    -0.218 OA
ENDBRANCH  15  17
ENDBRANCH  14  15
ENDBRANCH  10  14
TORSDOF 3
ENDMDL
MODEL 6
REMARK VINA RESULT:      -6.0      2.462      3.853
REMARK  Name = 
REMARK  3 active torsions:
REMARK  status: ('A' for Active; 'I' for Inactive)
REMARK    1  A    between atoms: N_6  and  C_7
REMARK    2  A    between atoms: C_7  and  C_8
REMARK    3  A    between atoms: C_8  and  C_10
REMARK                            x       y       z     vdW  Elec       q    Type
REMARK                         _______ _______ _______ _____ _____    ______ ____
ROOT
ATOM      1  C   UNL     1       4.335   4.851  -1.127  0.00  0.00    +0.137 C 
ATOM      2  N   UNL     1       3.386   5.029  -2.172  0.00  0.00    -0.263 N 
ATOM      3  C   UNL     1       3.770   5.117  -3.467  0.00  0.00    +0.335 A 
ATOM      4  O   UNL     1       4.972   4.920  -3.752  0.00  0.00    -0.246 OA
ATOM      5  N   UNL     1       3.048   5.794  -4.384  0.00  0.00    -0.245 N 
ATOM      6  C   UNL     1       3.298   5.575  -5.785  0.00  0.00    +0.138 C 
ATOM      7  C   UNL     1       1.812   6.219  -4.025  0.00  0.00    +0.283 A 
ATOM      8  O   UNL     1       1.067   6.801  -4.837  0.00  0.00    -0.265 OA
ATOM      9  C   UNL     1       1.273   5.860  -2.796  0.00  0.00    +0.153 A 
ATOM     10  N   UNL     1       0.014   5.717  -2.326  0.00  0.00    -0.301 N 
ATOM     11  C   UNL     1       0.139   5.548  -1.011  0.00  0.00    +0.180 A 
ATOM     12  N   UNL     1       1.450   5.483  -0.674  0.00  0.00    -0.206 NA
ATOM     13  C   UNL     1       2.172   5.477  -1.817  0.00  0.00    +0.170 A 
ENDROOT
BRANCH  10  14
ATOM     14  C   UNL     1      -1.144   5.562  -3.201  0.00  0.00    +0.143 C 
BRANCH  14  15
ATOM     15  C   UNL     1      -2.045   6.913  -2.766  0.00  0.00    +0.207 C 
ATOM     16  O   UNL     1      -2.226   7.306  -4.251  0.00  0.00    -0.218 OA
BRANCH  15  17
ATOM     17  C   UNL     1      -3.471   6.022  -2.787  0.00  0.00    +0.217 C 
ATOM     18  O   UNL     1      -2.954   4.716  -2.817  0.00  0.00    -0.218 OA
ENDBRANCH  15  17
ENDBRANCH  14  15
ENDBRANCH  10  14
TORSDOF 3
ENDMDL
MODEL 7
REMARK VINA RESULT:      -6.0      6.853     10.075
REMARK  Name = 
REMARK  3 active torsions:
REMARK  status: ('A' for Active; 'I' for Inactive)
REMARK    1  A    between atoms: N_6  and  C_7
REMARK    2  A    between atoms: C_7  and  C_8
REMARK    3  A    between atoms: C_8  and  C_10
REMARK                            x       y       z     vdW  Elec       q    Type
REMARK                         _______ _______ _______ _____ _____    ______ ____
ROOT
ATOM      1  C   UNL     1       0.564   6.466 -10.136  0.00  0.00    +0.137 C 
ATOM      2  N   UNL     1       1.436   6.550 -11.257  0.00  0.00    -0.263 N 
ATOM      3  C   UNL     1       0.986   6.926 -12.477  0.00  0.00    +0.335 A 
ATOM      4  O   UNL     1      -0.197   7.319 -12.585  0.00  0.00    -0.246 OA
ATOM      5  N   UNL     1       1.582   6.521 -13.616  0.00  0.00    -0.245 N 
ATOM      6  C   UNL     1       1.294   7.208 -14.849  0.00  0.00    +0.138 C 
ATOM      7  C   UNL     1       2.776   5.887 -13.514  0.00  0.00    +0.283 A 
ATOM      8  O   UNL     1       3.410   5.535 -14.527  0.00  0.00    -0.265 OA
ATOM      9  C   UNL     1       3.408   5.772 -12.282  0.00  0.00    +0.153 A 
ATOM     10  N   UNL     1       4.696   5.634 -11.895  0.00  0.00    -0.301 N 
ATOM     11  C   UNL     1       4.652   5.375 -10.589  0.00  0.00    +0.180 A 
ATOM     12  N   UNL     1       3.374   5.450 -10.144  0.00  0.00    -0.206 NA
ATOM     13  C   UNL     1       2.605   5.897 -11.163  0.00  0.00    +0.170 A 
ENDROOT
BRANCH  10  14
ATOM     14  C   UNL     1       5.822   5.956 -12.765  0.00  0.00    +0.143 C 
BRANCH  14  15
ATOM     15  C   UNL     1       7.060   5.123 -11.991  0.00  0.00    +0.207 C 
ATOM     16  O   UNL     1       7.666   4.701 -13.351  0.00  0.00    -0.218 OA
BRANCH  15  17
ATOM     17  C   UNL     1       8.020   6.503 -11.946  0.00  0.00    +0.217 C 
ATOM     18  O   UNL     1       9.205   6.007 -12.517  0.00  0.00    -0.218 OA
ENDBRANCH  15  17
ENDBRANCH  14  15
ENDBRANCH  10  14
TORSDOF 3
ENDMDL
MODEL 8
REMARK VINA RESULT:      -5.9      6.947      8.736
REMARK  Name = 
REMARK  3 active torsions:
REMARK  status: ('A' for Active; 'I' for Inactive)
REMARK    1  A    between atoms: N_6  and  C_7
REMARK    2  A    between atoms: C_7  and  C_8
REMARK    3  A    between atoms: C_8  and  C_10
REMARK                            x       y       z     vdW  Elec       q    Type
REMARK                         _______ _______ _______ _____ _____    ______ ____
ROOT
ATOM      1  C   UNL     1       8.193   5.397 -11.780  0.00  0.00    +0.137 C 
ATOM      2  N   UNL     1       6.869   5.612 -11.307  0.00  0.00    -0.263 N 
ATOM      3  C   UNL     1       6.599   5.709  -9.984  0.00  0.00    +0.335 A 
ATOM      4  O   UNL     1       7.553   5.726  -9.176  0.00  0.00    -0.246 OA
ATOM      5  N   UNL     1       5.396   5.376  -9.473  0.00  0.00    -0.245 N 
ATOM      6  C   UNL     1       5.044   5.814  -8.147  0.00  0.00    +0.138 C 
ATOM      7  C   UNL     1       4.386   5.132 -10.343  0.00  0.00    +0.283 A 
ATOM      8  O   UNL     1       3.235   4.874  -9.941  0.00  0.00    -0.265 OA
ATOM      9  C   UNL     1       4.565   5.338 -11.705  0.00  0.00    +0.153 A 
ATOM     10  N   UNL     1       3.732   5.622 -12.731  0.00  0.00    -0.301 N 
ATOM     11  C   UNL     1       4.468   5.503 -13.835  0.00  0.00    +0.180 A 
ATOM     12  N   UNL     1       5.759   5.249 -13.506  0.00  0.00    -0.206 NA
ATOM     13  C   UNL     1       5.870   5.342 -12.161  0.00  0.00    +0.170 A 
ENDROOT
BRANCH  10  14
ATOM     14  C   UNL     1       2.391   6.164 -12.535  0.00  0.00    +0.143 C 
BRANCH  14  15
ATOM     15  C   UNL     1       1.496   5.145 -13.527  0.00  0.00    +0.207 C 
ATOM     16  O   UNL     1       0.410   4.989 -12.436  0.00  0.00    -0.218 OA
BRANCH  15  17
ATOM     17  C   UNL     1       0.682   6.451 -14.206  0.00  0.00    +0.217 C 
ATOM     18  O   UNL     1       0.960   6.243 -15.568  0.00  0.00    -0.218 OA
ENDBRANCH  15  17
ENDBRANCH  14  15
ENDBRANCH  10  14
TORSDOF 3
ENDMDL
MODEL 9
REMARK VINA RESULT:      -5.9      2.047      2.676
REMARK  Name = 
REMARK  3 active torsions:
REMARK  status: ('A' for Active; 'I' for Inactive)
REMARK    1  A    between atoms: N_6  and  C_7
REMARK    2  A    between atoms: C_7  and  C_8
REMARK    3  A    between atoms: C_8  and  C_10
REMARK                            x       y       z     vdW  Elec       q    Type
REMARK                         _______ _______ _______ _____ _____    ______ ____
ROOT
ATOM      1  C   UNL     1       4.098   6.372  -6.283  0.00  0.00    +0.137 C 
ATOM      2  N   UNL     1       3.387   6.681  -5.089  0.00  0.00    -0.263 N 
ATOM      3  C   UNL     1       3.931   7.459  -4.124  0.00  0.00    +0.335 A 
ATOM      4  O   UNL     1       5.033   8.008  -4.346  0.00  0.00    -0.246 OA
ATOM      5  N   UNL     1       3.576   7.345  -2.828  0.00  0.00    -0.245 N 
ATOM      6  C   UNL     1       3.909   8.400  -1.907  0.00  0.00    +0.138 C 
ATOM      7  C   UNL     1       2.505   6.568  -2.533  0.00  0.00    +0.283 A 
ATOM      8  O   UNL     1       2.086   6.462  -1.364  0.00  0.00    -0.265 OA
ATOM      9  C   UNL     1       1.737   6.012  -3.549  0.00  0.00    +0.153 A 
ATOM     10  N   UNL     1       0.451   5.607  -3.641  0.00  0.00    -0.301 N 
ATOM     11  C   UNL     1       0.357   4.975  -4.810  0.00  0.00    +0.180 A 
ATOM     12  N   UNL     1       1.530   5.069  -5.484  0.00  0.00    -0.206 NA
ATOM     13  C   UNL     1       2.345   5.893  -4.785  0.00  0.00    +0.170 A 
ENDROOT
BRANCH  10  14
ATOM     14  C   UNL     1      -0.583   6.035  -2.705  0.00  0.00    +0.143 C 
BRANCH  14  15
ATOM     15  C   UNL     1      -1.949   5.375  -3.427  0.00  0.00    +0.207 C 
ATOM     16  O   UNL     1      -2.526   4.981  -2.047  0.00  0.00    -0.218 OA
BRANCH  15  17
ATOM     17  C   UNL     1      -2.743   6.857  -3.381  0.00  0.00    +0.217 C 
ATOM     18  O   UNL     1      -2.698   7.211  -4.740  0.00  0.00    -0.218 OA
ENDBRANCH  15  17
ENDBRANCH  14  15
ENDBRANCH  10  14
TORSDOF 3
ENDMDL
