MODEL 1
REMARK VINA RESULT:      42.3      0.000      0.000
REMARK  Name = 
REMARK  3 active torsions:
REMARK  status: ('A' for Active; 'I' for Inactive)
REMARK    1  A    between atoms: C_21  and  O_22
REMARK    2  A    between atoms: O_22  and  C_23
REMARK    3  A    between atoms: C_62  and  C_63
REMARK                            x       y       z     vdW  Elec       q    Type
REMARK                         _______ _______ _______ _____ _____    ______ ____
ROOT
ATOM      1  C   UNL     1       0.924   3.505  -6.327  0.00  0.00    +0.006 C 
ATOM      2  C   UNL     1       1.788   4.811  -6.665  0.00  0.00    +0.071 C 
ATOM      3  C   UNL     1       2.164   4.478  -8.287  0.00  0.00    +0.171 C 
ATOM      4  C   UNL     1       2.253   2.846  -8.168  0.00  0.00    +0.047 C 
ATOM      5  O   UNL     1       3.658   4.605  -7.986  0.00  0.00    -0.452 OA
ATOM      6  C   UNL     1       4.448   5.137  -8.986  0.00  0.00    +0.319 C 
ATOM      7  O   UNL     1       5.500   5.683  -8.520  0.00  0.00    -0.250 OA
ATOM      8  C   UNL     1       3.903   5.739 -10.209  0.00  0.00    +0.142 C 
ATOM      9  C   UNL     1       4.818   5.198 -11.470  0.00  0.00    +0.166 C 
ATOM     10  O   UNL     1       6.110   5.284 -10.683  0.00  0.00    -0.222 OA
ATOM     11  C   UNL     1       5.021   6.723 -12.028  0.00  0.00    +0.066 C 
ATOM     12  C   UNL     1       3.940   6.852 -13.254  0.00  0.00    +0.155 C 
ATOM     13  O   UNL     1       3.070   5.668 -12.871  0.00  0.00    -0.223 OA
ATOM     14  C   UNL     1       4.884   5.919 -14.236  0.00  0.00    +0.036 C 
ATOM     15  C   UNL     1       4.593   6.658 -15.537  0.00  0.00    +0.038 C 
ATOM     16  C   UNL     1       5.209   8.135 -15.184  0.00  0.00    +0.182 C 
ATOM     17  O   UNL     1       6.454   7.855 -15.984  0.00  0.00    -0.220 OA
ATOM     18  C   UNL     1       4.401   8.823 -16.535  0.00  0.00    +0.185 C 
ATOM     19  O   UNL     1       5.477   9.851 -16.777  0.00  0.00    -0.220 OA
ATOM     20  C   UNL     1       3.574   9.860 -15.572  0.00  0.00    +0.069 C 
ATOM     21  C   UNL     1       2.180   9.871 -16.449  0.00  0.00    +0.160 C 
ATOM     22  O   UNL     1       2.914  10.328 -17.696  0.00  0.00    -0.223 OA
ATOM     23  C   UNL     1       1.823  11.417 -16.002  0.00  0.00    +0.092 C 
ATOM     24  C   UNL     1       0.298  11.363 -16.134  0.00  0.00    +0.224 C 
ATOM     25  C   UNL     1       0.007  11.406 -17.511  0.00  0.00    +0.093 C 
ATOM     26  C   UNL     1      -0.198  12.870 -18.169  0.00  0.00    +0.170 C 
ATOM     27  C   UNL     1      -0.079  13.809 -16.758  0.00  0.00    +0.161 C 
ATOM     28  C   UNL     1      -1.311  13.042 -15.880  0.00  0.00    +0.134 C 
ATOM     29  C   UNL     1      -1.102  14.127 -14.689  0.00  0.00    +0.064 C 
ATOM     30  C   UNL     1      -2.401  14.047 -13.696  0.00  0.00    +0.142 C 
ATOM     31  C   UNL     1      -1.801  12.893 -12.726  0.00  0.00    +0.003 C 
ATOM     32  C   UNL     1      -2.425  13.268 -11.591  0.00  0.00    -0.002 C 
ATOM     33  C   UNL     1      -3.823  12.802 -11.573  0.00  0.00    -0.000 C 
ATOM     34  C   UNL     1      -3.881  11.415 -11.516  0.00  0.00    -0.000 C 
ATOM     35  C   UNL     1      -3.657  10.889 -10.165  0.00  0.00    -0.000 C 
ATOM     36  C   UNL     1      -3.145  11.647  -9.197  0.00  0.00    -0.000 C 
ATOM     37  C   UNL     1      -4.114  12.153  -8.238  0.00  0.00    +0.000 C 
ATOM     38  C   UNL     1      -4.944  11.337  -7.645  0.00  0.00    +0.000 C 
ATOM     39  C   UNL     1      -4.250  10.455  -6.688  0.00  0.00    -0.000 C 
ATOM     40  C   UNL     1      -3.666   9.473  -7.321  0.00  0.00    -0.000 C 
ATOM     41  C   UNL     1      -3.024   8.511  -6.446  0.00  0.00    -0.000 C 
ATOM     42  C   UNL     1      -1.935   8.984  -5.848  0.00  0.00    -0.000 C 
ATOM     43  C   UNL     1      -1.016   7.992  -5.257  0.00  0.00    -0.005 C 
ATOM     44  C   UNL     1      -1.135   6.828  -5.765  0.00  0.00    -0.024 C 
ATOM     45  C   UNL     1      -0.170   5.612  -5.497  0.00  0.00    +0.053 C 
ATOM     46  C   UNL     1       1.040   6.476  -4.839  0.00  0.00    +0.007 C 
ATOM     47  O   UNL     1       1.290  13.061 -18.390  0.00  0.00    -0.222 OA
ATOM     48  O   UNL     1      -0.189  10.089 -15.746  0.00  0.00    -0.195 OA
ATOM     49  O   UNL     1      -0.299  12.144 -15.217  0.00  0.00    -0.334 OA
ATOM     50  C   UNL     1       0.390   5.640  -7.116  0.00  0.00    +0.159 C 
ATOM     51  O   UNL     1       1.039   6.990  -7.082  0.00  0.00    -0.223 OA
ENDROOT
BRANCH  27  52
ATOM     52  C   UNL     1      -0.938  14.919 -17.489  0.00  0.00    +0.369 C 
ATOM     53  O   UNL     1      -1.495  14.616 -18.750  0.00  0.00    -0.245 OA
ATOM     54  O   UNL     1      -0.265  15.958 -17.670  0.00  0.00    -0.245 OA
ENDBRANCH  27  52
BRANCH  30  55
ATOM     55  O   UNL     1      -3.277  13.058 -14.477  0.00  0.00    -0.327 OA
BRANCH  55  56
ATOM     56  C   UNL     1      -3.817  14.417 -14.903  0.00  0.00    +0.268 C 
ATOM     57  C   UNL     1      -4.710  13.821 -16.236  0.00  0.00    +0.228 C 
ATOM     58  O   UNL     1      -5.872  13.263 -15.469  0.00  0.00    -0.216 OA
ATOM     59  C   UNL     1      -5.304  15.318 -16.731  0.00  0.00    +0.160 C 
ATOM     60  N   UNL     1      -6.838  14.961 -16.595  0.00  0.00    -0.127 NA
ATOM     61  C   UNL     1      -5.498  16.365 -15.436  0.00  0.00    +0.199 C 
ATOM     62  O   UNL     1      -4.292  17.166 -15.955  0.00  0.00    -0.219 OA
ATOM     63  C   UNL     1      -4.530  15.879 -14.136  0.00  0.00    +0.150 C 
ATOM     64  C   UNL     1      -5.667  16.515 -13.107  0.00  0.00    +0.035 C 
ATOM     65  O   UNL     1      -5.017  14.460 -13.957  0.00  0.00    -0.328 OA
ENDBRANCH  55  56
ENDBRANCH  30  55
TORSDOF 3
ENDMDL
MODEL 2
REMARK VINA RESULT:      44.8      8.940     14.951
REMARK  Name = 
REMARK  3 active torsions:
REMARK  status: ('A' for Active; 'I' for Inactive)
REMARK    1  A    between atoms: C_21  and  O_22
REMARK    2  A    between atoms: O_22  and  C_23
REMARK    3  A    between atoms: C_62  and  C_63
REMARK                            x       y       z     vdW  Elec       q    Type
REMARK                         _______ _______ _______ _____ _____    ______ ____
ROOT
ATOM      1  C   UNL     1       3.294   3.083  -8.630  0.00  0.00    +0.006 C 
ATOM      2  C   UNL     1       2.459   4.417  -8.332  0.00  0.00    +0.071 C 
ATOM      3  C   UNL     1       2.326   4.285  -6.645  0.00  0.00    +0.171 C 
ATOM      4  C   UNL     1       2.258   2.651  -6.550  0.00  0.00    +0.047 C 
ATOM      5  O   UNL     1       0.803   4.368  -6.740  0.00  0.00    -0.452 OA
ATOM      6  C   UNL     1       0.152   5.016  -5.708  0.00  0.00    +0.319 C 
ATOM      7  O   UNL     1      -0.967   5.496  -6.080  0.00  0.00    -0.250 OA
ATOM      8  C   UNL     1       0.852   5.767  -4.660  0.00  0.00    +0.142 C 
ATOM      9  C   UNL     1       0.140   5.382  -3.223  0.00  0.00    +0.166 C 
ATOM     10  O   UNL     1      -1.253   5.365  -3.819  0.00  0.00    -0.222 OA
ATOM     11  C   UNL     1      -0.015   6.964  -2.831  0.00  0.00    +0.066 C 
ATOM     12  C   UNL     1       1.227   7.248  -1.800  0.00  0.00    +0.155 C 
ATOM     13  O   UNL     1       2.059   6.030  -2.157  0.00  0.00    -0.223 OA
ATOM     14  C   UNL     1       0.455   6.440  -0.586  0.00  0.00    +0.036 C 
ATOM     15  C   UNL     1       0.912   7.335   0.560  0.00  0.00    +0.038 C 
ATOM     16  C   UNL     1       0.220   8.755   0.122  0.00  0.00    +0.182 C 
ATOM     17  O   UNL     1      -0.892   8.571   1.122  0.00  0.00    -0.220 OA
ATOM     18  C   UNL     1       1.196   9.609   1.248  0.00  0.00    +0.185 C 
ATOM     19  O   UNL     1       0.144  10.654   1.516  0.00  0.00    -0.220 OA
ATOM     20  C   UNL     1       1.855  10.522   0.057  0.00  0.00    +0.069 C 
ATOM     21  C   UNL     1       3.358  10.648   0.715  0.00  0.00    +0.160 C 
ATOM     22  O   UNL     1       2.800  11.252   1.989  0.00  0.00    -0.223 OA
ATOM     23  C   UNL     1       3.614  12.127   0.036  0.00  0.00    +0.092 C 
ATOM     24  C   UNL     1       5.143  12.097  -0.048  0.00  0.00    +0.224 C 
ATOM     25  C   UNL     1       5.627  12.311   1.257  0.00  0.00    +0.093 C 
ATOM     26  C   UNL     1       5.891  13.846   1.694  0.00  0.00    +0.170 C 
ATOM     27  C   UNL     1       5.550  14.603   0.212  0.00  0.00    +0.161 C 
ATOM     28  C   UNL     1       6.661  13.738  -0.735  0.00  0.00    +0.134 C 
ATOM     29  C   UNL     1       6.260  14.667  -2.007  0.00  0.00    +0.064 C 
ATOM     30  C   UNL     1       7.405  14.470  -3.160  0.00  0.00    +0.142 C 
ATOM     31  C   UNL     1       6.699  13.202  -3.885  0.00  0.00    +0.003 C 
ATOM     32  C   UNL     1       7.144  13.437  -5.136  0.00  0.00    -0.002 C 
ATOM     33  C   UNL     1       8.536  12.978  -5.299  0.00  0.00    -0.000 C 
ATOM     34  C   UNL     1       8.616  11.595  -5.194  0.00  0.00    -0.000 C 
ATOM     35  C   UNL     1       8.213  10.905  -6.425  0.00  0.00    -0.000 C 
ATOM     36  C   UNL     1       7.551  11.535  -7.393  0.00  0.00    -0.000 C 
ATOM     37  C   UNL     1       8.361  11.923  -8.536  0.00  0.00    +0.000 C 
ATOM     38  C   UNL     1       9.116  11.043  -9.140  0.00  0.00    +0.000 C 
ATOM     39  C   UNL     1       8.312  10.046  -9.872  0.00  0.00    -0.000 C 
ATOM     40  C   UNL     1       7.846   9.148  -9.046  0.00  0.00    -0.000 C 
ATOM     41  C   UNL     1       7.108   8.082  -9.694  0.00  0.00    -0.000 C 
ATOM     42  C   UNL     1       5.934   8.473 -10.182  0.00  0.00    -0.000 C 
ATOM     43  C   UNL     1       4.962   7.411 -10.509  0.00  0.00    -0.005 C 
ATOM     44  C   UNL     1       5.178   6.320  -9.885  0.00  0.00    -0.024 C 
ATOM     45  C   UNL     1       4.212   5.075  -9.861  0.00  0.00    +0.053 C 
ATOM     46  C   UNL     1       2.901   5.846 -10.437  0.00  0.00    +0.007 C 
ATOM     47  O   UNL     1       4.446  14.057   2.103  0.00  0.00    -0.222 OA
ATOM     48  O   UNL     1       5.598  10.787  -0.345  0.00  0.00    -0.195 OA
ATOM     49  O   UNL     1       5.585  12.761  -1.131  0.00  0.00    -0.334 OA
ATOM     50  C   UNL     1       3.889   5.301  -8.193  0.00  0.00    +0.159 C 
ATOM     51  O   UNL     1       3.211   6.634  -8.297  0.00  0.00    -0.223 OA
ENDROOT
BRANCH  27  52
ATOM     52  C   UNL     1       6.481  15.799   0.669  0.00  0.00    +0.369 C 
ATOM     53  O   UNL     1       7.043  15.755   1.963  0.00  0.00    -0.245 OA
ATOM     54  O   UNL     1       5.867  16.888   0.617  0.00  0.00    -0.245 OA
ENDBRANCH  27  52
BRANCH  30  55
ATOM     55  O   UNL     1       8.405  13.590  -2.400  0.00  0.00    -0.327 OA
BRANCH  55  56
ATOM     56  C   UNL     1       8.768  14.999  -1.952  0.00  0.00    +0.268 C 
ATOM     57  C   UNL     1       9.848  14.501  -0.720  0.00  0.00    +0.228 C 
ATOM     58  O   UNL     1      11.013  14.156  -1.599  0.00  0.00    -0.216 OA
ATOM     59  C   UNL     1      10.248  16.052  -0.201  0.00  0.00    +0.160 C 
ATOM     60  N   UNL     1      11.803  15.941  -0.470  0.00  0.00    -0.127 NA
ATOM     61  C   UNL     1      10.175  17.163  -1.456  0.00  0.00    +0.199 C 
ATOM     62  O   UNL     1       8.909  17.750  -0.808  0.00  0.00    -0.219 OA
ATOM     63  C   UNL     1       9.187  16.580  -2.700  0.00  0.00    +0.150 C 
ATOM     64  C   UNL     1      10.126  17.420  -3.780  0.00  0.00    +0.035 C 
ATOM     65  O   UNL     1       9.866  15.261  -2.983  0.00  0.00    -0.328 OA
ENDBRANCH  55  56
ENDBRANCH  30  55
TORSDOF 3
ENDMDL
MODEL 3
REMARK VINA RESULT:      44.8      3.025      9.470
REMARK  Name = 
REMARK  3 active torsions:
REMARK  status: ('A' for Active; 'I' for Inactive)
REMARK    1  A    between atoms: C_21  and  O_22
REMARK    2  A    between atoms: O_22  and  C_23
REMARK    3  A    between atoms: C_62  and  C_63
REMARK                            x       y       z     vdW  Elec       q    Type
REMARK                         _______ _______ _______ _____ _____    ______ ____
ROOT
ATOM      1  C   UNL     1      -2.008   8.648  -3.513  0.00  0.00    +0.006 C 
ATOM      2  C   UNL     1      -2.707   8.234  -4.894  0.00  0.00    +0.071 C 
ATOM      3  C   UNL     1      -2.702   9.745  -5.667  0.00  0.00    +0.171 C 
ATOM      4  C   UNL     1      -2.890  10.682  -4.336  0.00  0.00    +0.047 C 
ATOM      5  O   UNL     1      -4.217   9.673  -5.860  0.00  0.00    -0.452 OA
ATOM      6  C   UNL     1      -4.721  10.235  -7.016  0.00  0.00    +0.319 C 
ATOM      7  O   UNL     1      -5.828   9.705  -7.358  0.00  0.00    -0.250 OA
ATOM      8  C   UNL     1      -3.875  10.713  -8.115  0.00  0.00    +0.142 C 
ATOM      9  C   UNL     1      -4.488  12.162  -8.610  0.00  0.00    +0.166 C 
ATOM     10  O   UNL     1      -5.925  11.710  -8.445  0.00  0.00    -0.222 OA
ATOM     11  C   UNL     1      -4.483  11.676 -10.173  0.00  0.00    +0.066 C 
ATOM     12  C   UNL     1      -3.136  12.365 -10.806  0.00  0.00    +0.155 C 
ATOM     13  O   UNL     1      -2.437  12.668  -9.494  0.00  0.00    -0.223 OA
ATOM     14  C   UNL     1      -3.862  13.847 -10.833  0.00  0.00    +0.036 C 
ATOM     15  C   UNL     1      -3.237  14.342 -12.133  0.00  0.00    +0.038 C 
ATOM     16  C   UNL     1      -3.851  13.251 -13.191  0.00  0.00    +0.182 C 
ATOM     17  O   UNL     1      -4.882  14.236 -13.675  0.00  0.00    -0.220 OA
ATOM     18  C   UNL     1      -2.715  13.732 -14.386  0.00  0.00    +0.185 C 
ATOM     19  O   UNL     1      -3.655  13.450 -15.531  0.00  0.00    -0.220 OA
ATOM     20  C   UNL     1      -2.094  12.218 -14.473  0.00  0.00    +0.069 C 
ATOM     21  C   UNL     1      -0.533  12.662 -14.750  0.00  0.00    +0.160 C 
ATOM     22  O   UNL     1      -0.928  13.452 -15.983  0.00  0.00    -0.223 OA
ATOM     23  C   UNL     1      -0.223  11.302 -15.628  0.00  0.00    +0.092 C 
ATOM     24  C   UNL     1       1.286  11.195 -15.387  0.00  0.00    +0.224 C 
ATOM     25  C   UNL     1       1.898  12.180 -16.187  0.00  0.00    +0.093 C 
ATOM     26  C   UNL     1       2.319  11.742 -17.686  0.00  0.00    +0.170 C 
ATOM     27  C   UNL     1       1.911  10.095 -17.603  0.00  0.00    +0.161 C 
ATOM     28  C   UNL     1       2.864   9.702 -16.255  0.00  0.00    +0.134 C 
ATOM     29  C   UNL     1       2.428   8.147 -16.433  0.00  0.00    +0.064 C 
ATOM     30  C   UNL     1       3.448   7.228 -15.542  0.00  0.00    +0.142 C 
ATOM     31  C   UNL     1       2.584   7.296 -14.171  0.00  0.00    +0.003 C 
ATOM     32  C   UNL     1       2.936   6.093 -13.675  0.00  0.00    -0.002 C 
ATOM     33  C   UNL     1       4.267   6.147 -13.045  0.00  0.00    -0.000 C 
ATOM     34  C   UNL     1       4.246   6.955 -11.915  0.00  0.00    -0.000 C 
ATOM     35  C   UNL     1       3.685   6.280 -10.740  0.00  0.00    -0.000 C 
ATOM     36  C   UNL     1       2.992   5.148 -10.850  0.00  0.00    -0.000 C 
ATOM     37  C   UNL     1       3.727   3.944 -10.499  0.00  0.00    +0.000 C 
ATOM     38  C   UNL     1       4.355   3.864  -9.355  0.00  0.00    +0.000 C 
ATOM     39  C   UNL     1       3.415   3.787  -8.221  0.00  0.00    -0.000 C 
ATOM     40  C   UNL     1       2.953   4.976  -7.937  0.00  0.00    -0.000 C 
ATOM     41  C   UNL     1       2.079   5.004  -6.781  0.00  0.00    -0.000 C 
ATOM     42  C   UNL     1       0.902   4.423  -6.993  0.00  0.00    -0.000 C 
ATOM     43  C   UNL     1      -0.176   4.732  -6.033  0.00  0.00    -0.005 C 
ATOM     44  C   UNL     1       0.008   5.826  -5.403  0.00  0.00    -0.024 C 
ATOM     45  C   UNL     1      -1.048   6.529  -4.467  0.00  0.00    +0.053 C 
ATOM     46  C   UNL     1      -2.339   5.679  -4.973  0.00  0.00    +0.007 C 
ATOM     47  O   UNL     1       0.937  12.029 -18.239  0.00  0.00    -0.222 OA
ATOM     48  O   UNL     1       1.609  11.611 -14.069  0.00  0.00    -0.195 OA
ATOM     49  O   UNL     1       1.683   9.911 -15.342  0.00  0.00    -0.334 OA
ATOM     50  C   UNL     1      -1.205   7.843  -5.556  0.00  0.00    +0.159 C 
ATOM     51  O   UNL     1      -1.782   7.082  -6.711  0.00  0.00    -0.223 OA
ENDROOT
BRANCH  27  52
ATOM     52  C   UNL     1       2.969   9.830 -18.750  0.00  0.00    +0.369 C 
ATOM     53  O   UNL     1       3.666   8.603 -18.750  0.00  0.00    -0.245 OA
ATOM     54  O   UNL     1       3.859  10.710 -18.750  0.00  0.00    -0.245 OA
ENDBRANCH  27  52
BRANCH  30  55
ATOM     55  O   UNL     1       4.438   8.303 -15.074  0.00  0.00    -0.327 OA
BRANCH  55  56
ATOM     56  C   UNL     1       5.296   7.389 -15.940  0.00  0.00    +0.268 C 
ATOM     57  C   UNL     1       5.928   8.645 -16.916  0.00  0.00    +0.228 C 
ATOM     58  O   UNL     1       6.939   9.171 -15.942  0.00  0.00    -0.216 OA
ATOM     59  C   UNL     1       6.870   7.647 -17.894  0.00  0.00    +0.160 C 
ATOM     60  N   UNL     1       8.260   8.323 -17.561  0.00  0.00    -0.127 NA
ATOM     61  C   UNL     1       7.403   6.291 -17.063  0.00  0.00    +0.199 C 
ATOM     62  O   UNL     1       6.426   5.446 -17.899  0.00  0.00    -0.219 OA
ATOM     63  C   UNL     1       6.409   5.994 -15.726  0.00  0.00    +0.150 C 
ATOM     64  C   UNL     1       7.727   5.353 -14.945  0.00  0.00    +0.035 C 
ATOM     65  O   UNL     1       6.513   7.324 -15.016  0.00  0.00    -0.328 OA
ENDBRANCH  55  56
ENDBRANCH  30  55
TORSDOF 3
ENDMDL
