MODEL 1
REMARK VINA RESULT:      -6.4      0.000      0.000
REMARK  Name = 
REMARK  9 active torsions:
REMARK  status: ('A' for Active; 'I' for Inactive)
REMARK    1  A    between atoms: C_2  and  N_3
REMARK    2  A    between atoms: N_3  and  C_4
REMARK    3  A    between atoms: N_3  and  C_6
REMARK    4  A    between atoms: C_9  and  C_10
REMARK    5  A    between atoms: C_10  and  C_11
REMARK    6  A    between atoms: C_13  and  S_14
REMARK    7  A    between atoms: C_20  and  S_21
REMARK    8  A    between atoms: N_29  and  C_30
REMARK    9  A    between atoms: N_29  and  C_32
REMARK                            x       y       z     vdW  Elec       q    Type
REMARK                         _______ _______ _______ _____ _____    ______ ____
ROOT
ATOM      1  C   UNL     1       1.756   6.017  -3.272  0.00  0.00    +0.001 C 
ATOM      2  C   UNL     1       2.458   6.531  -2.258  0.00  0.00    +0.000 C 
ATOM      3  C   UNL     1       3.607   5.716  -1.837  0.00  0.00    +0.006 C 
ATOM      4  C   UNL     1       4.300   6.154  -0.811  0.00  0.00    +0.069 C 
ATOM      5  C   UNL     1       4.201   7.566  -0.445  0.00  0.00    +0.221 C 
ATOM      6  N   UNL     1       4.788   7.996   0.627  0.00  0.00    -0.189 N 
ATOM      7  C   UNL     1       3.686   8.475  -1.477  0.00  0.00    +0.069 C 
ATOM      8  C   UNL     1       2.706   7.979  -2.233  0.00  0.00    +0.006 C 
ENDROOT
BRANCH   1  12
ATOM      9  C   UNL     1       3.541   5.414  -7.005  0.00  0.00    +0.048 A 
ATOM     10  C   UNL     1       2.799   4.410  -6.393  0.00  0.00    +0.015 A 
ATOM     11  C   UNL     1       2.381   4.574  -5.090  0.00  0.00    +0.001 A 
ATOM     12  C   UNL     1       2.586   5.801  -4.470  0.00  0.00    +0.000 A 
ATOM     13  C   UNL     1       3.217   6.812  -5.141  0.00  0.00    +0.001 A 
ATOM     14  C   UNL     1       4.030   6.437  -6.203  0.00  0.00    +0.015 A 
BRANCH   9  15
ATOM     15  N   UNL     1       4.385   4.988  -8.080  0.00  0.00    -0.307 N 
BRANCH  15  17
ATOM     16  C   UNL     1       6.254   5.697  -9.366  0.00  0.00    +0.023 C 
ATOM     17  C   UNL     1       5.831   5.106  -8.028  0.00  0.00    +0.091 C 
ENDBRANCH  15  17
BRANCH  15  18
ATOM     18  C   UNL     1       3.819   4.472  -9.308  0.00  0.00    +0.091 C 
ATOM     19  C   UNL     1       2.707   5.379  -9.818  0.00  0.00    +0.023 C 
ENDBRANCH  15  18
ENDBRANCH   9  15
ENDBRANCH   1  12
BRANCH   1  20
ATOM     20  C   UNL     1       0.375   6.441  -3.546  0.00  0.00    +0.021 A 
ATOM     21  C   UNL     1      -0.488   6.651  -2.479  0.00  0.00    +0.136 A 
ATOM     22  C   UNL     1      -1.683   7.291  -2.779  0.00  0.00    +0.022 A 
ATOM     23  C   UNL     1      -2.186   7.335  -4.074  0.00  0.00    +0.022 A 
ATOM     24  C   UNL     1      -1.483   6.701  -5.091  0.00  0.00    +0.136 A 
ATOM     25  C   UNL     1      -0.152   6.464  -4.828  0.00  0.00    +0.022 A 
BRANCH  24  26
ATOM     26  S   UNL     1      -2.318   5.893  -6.413  0.00  0.00    +0.141 S 
ATOM     27  O   UNL     1      -1.254   5.428  -7.617  0.00  0.00    -0.043 OA
ATOM     28  O   UNL     1      -3.017   4.694  -5.830  0.00  0.00    -0.140 OA
ATOM     29  O   UNL     1      -3.405   6.793  -6.956  0.00  0.00    -0.140 OA
ENDBRANCH  24  26
BRANCH  21  30
ATOM     30  S   UNL     1      -0.230   5.878  -0.942  0.00  0.00    +0.141 S 
ATOM     31  O   UNL     1      -1.704   5.706  -0.127  0.00  0.00    -0.043 OA
ATOM     32  O   UNL     1       0.620   6.730  -0.025  0.00  0.00    -0.140 OA
ATOM     33  O   UNL     1       0.320   4.489  -1.078  0.00  0.00    -0.140 OA
ENDBRANCH  21  30
ENDBRANCH   1  20
BRANCH   6  34
ATOM     34  C   UNL     1       3.936   8.472   1.713  0.00  0.00    +0.317 C 
ATOM     35  C   UNL     1       3.661   9.958   1.561  0.00  0.00    +0.092 C 
ENDBRANCH   6  34
BRANCH   6  36
ATOM     36  C   UNL     1       6.080   7.472   1.012  0.00  0.00    +0.317 C 
ATOM     37  C   UNL     1       6.575   8.050   2.308  0.00  0.00    +0.092 C 
ENDBRANCH   6  36
TORSDOF 9
ENDMDL
MODEL 2
REMARK VINA RESULT:      -6.3      3.619      8.486
REMARK  Name = 
REMARK  9 active torsions:
REMARK  status: ('A' for Active; 'I' for Inactive)
REMARK    1  A    between atoms: C_2  and  N_3
REMARK    2  A    between atoms: N_3  and  C_4
REMARK    3  A    between atoms: N_3  and  C_6
REMARK    4  A    between atoms: C_9  and  C_10
REMARK    5  A    between atoms: C_10  and  C_11
REMARK    6  A    between atoms: C_13  and  S_14
REMARK    7  A    between atoms: C_20  and  S_21
REMARK    8  A    between atoms: N_29  and  C_30
REMARK    9  A    between atoms: N_29  and  C_32
REMARK                            x       y       z     vdW  Elec       q    Type
REMARK                         _______ _______ _______ _____ _____    ______ ____
ROOT
ATOM      1  C   UNL     1       2.025   6.088  -5.137  0.00  0.00    +0.001 C 
ATOM      2  C   UNL     1       1.944   6.116  -6.471  0.00  0.00    +0.000 C 
ATOM      3  C   UNL     1       1.075   5.082  -7.051  0.00  0.00    +0.006 C 
ATOM      4  C   UNL     1       1.000   5.037  -8.361  0.00  0.00    +0.069 C 
ATOM      5  C   UNL     1       1.383   6.220  -9.129  0.00  0.00    +0.221 C 
ATOM      6  N   UNL     1       1.422   6.163 -10.423  0.00  0.00    -0.189 N 
ATOM      7  C   UNL     1       1.412   7.493  -8.398  0.00  0.00    +0.069 C 
ATOM      8  C   UNL     1       1.862   7.419  -7.145  0.00  0.00    +0.006 C 
ENDROOT
BRANCH   1  12
ATOM      9  C   UNL     1      -1.381   6.727  -2.798  0.00  0.00    +0.048 A 
ATOM     10  C   UNL     1      -0.496   5.696  -2.509  0.00  0.00    +0.015 A 
ATOM     11  C   UNL     1       0.512   5.398  -3.402  0.00  0.00    +0.001 A 
ATOM     12  C   UNL     1       0.707   6.232  -4.496  0.00  0.00    +0.000 A 
ATOM     13  C   UNL     1      -0.111   7.311  -4.690  0.00  0.00    +0.001 A 
ATOM     14  C   UNL     1      -1.358   7.261  -4.080  0.00  0.00    +0.015 A 
BRANCH   9  15
ATOM     15  N   UNL     1      -2.665   6.631  -2.171  0.00  0.00    -0.307 N 
BRANCH  15  17
ATOM     16  C   UNL     1      -3.515   5.090  -3.769  0.00  0.00    +0.023 C 
ATOM     17  C   UNL     1      -3.869   6.297  -2.911  0.00  0.00    +0.091 C 
ENDBRANCH  15  17
BRANCH  15  18
ATOM     18  C   UNL     1      -2.827   6.928  -0.764  0.00  0.00    +0.091 C 
ATOM     19  C   UNL     1      -1.759   7.902  -0.287  0.00  0.00    +0.023 C 
ENDBRANCH  15  18
ENDBRANCH   9  15
ENDBRANCH   1  12
BRANCH   1  20
ATOM     20  C   UNL     1       3.134   6.733  -4.419  0.00  0.00    +0.021 A 
ATOM     21  C   UNL     1       4.432   6.302  -4.661  0.00  0.00    +0.136 A 
ATOM     22  C   UNL     1       5.445   7.109  -4.158  0.00  0.00    +0.022 A 
ATOM     23  C   UNL     1       5.215   8.023  -3.137  0.00  0.00    +0.022 A 
ATOM     24  C   UNL     1       3.941   8.116  -2.590  0.00  0.00    +0.136 A 
ATOM     25  C   UNL     1       2.924   7.626  -3.380  0.00  0.00    +0.022 A 
BRANCH  24  26
ATOM     26  S   UNL     1       3.703   8.435  -0.876  0.00  0.00    +0.141 S 
ATOM     27  O   UNL     1       3.654  10.076  -0.558  0.00  0.00    -0.043 OA
ATOM     28  O   UNL     1       2.408   7.778  -0.478  0.00  0.00    -0.140 OA
ATOM     29  O   UNL     1       4.787   7.751  -0.074  0.00  0.00    -0.140 OA
ENDBRANCH  24  26
BRANCH  21  30
ATOM     30  S   UNL     1       4.756   4.703  -5.265  0.00  0.00    +0.141 S 
ATOM     31  O   UNL     1       3.414   3.704  -5.005  0.00  0.00    -0.043 OA
ATOM     32  O   UNL     1       5.883   4.038  -4.506  0.00  0.00    -0.140 OA
ATOM     33  O   UNL     1       4.995   4.681  -6.746  0.00  0.00    -0.140 OA
ENDBRANCH  21  30
ENDBRANCH   1  20
BRANCH   6  34
ATOM     34  C   UNL     1       2.728   6.302 -11.061  0.00  0.00    +0.317 C 
ATOM     35  C   UNL     1       3.773   5.488 -10.317  0.00  0.00    +0.092 C 
ENDBRANCH   6  34
BRANCH   6  36
ATOM     36  C   UNL     1       0.435   5.395 -11.150  0.00  0.00    +0.317 C 
ATOM     37  C   UNL     1       0.844   5.128 -12.572  0.00  0.00    +0.092 C 
ENDBRANCH   6  36
TORSDOF 9
ENDMDL
MODEL 3
REMARK VINA RESULT:      -6.2      4.216      7.668
REMARK  Name = 
REMARK  9 active torsions:
REMARK  status: ('A' for Active; 'I' for Inactive)
REMARK    1  A    between atoms: C_2  and  N_3
REMARK    2  A    between atoms: N_3  and  C_4
REMARK    3  A    between atoms: N_3  and  C_6
REMARK    4  A    between atoms: C_9  and  C_10
REMARK    5  A    between atoms: C_10  and  C_11
REMARK    6  A    between atoms: C_13  and  S_14
REMARK    7  A    between atoms: C_20  and  S_21
REMARK    8  A    between atoms: N_29  and  C_30
REMARK    9  A    between atoms: N_29  and  C_32
REMARK                            x       y       z     vdW  Elec       q    Type
REMARK                         _______ _______ _______ _____ _____    ______ ____
ROOT
ATOM      1  C   UNL     1       2.848   5.784 -10.521  0.00  0.00    +0.001 C 
ATOM      2  C   UNL     1       2.918   5.869  -9.189  0.00  0.00    +0.000 C 
ATOM      3  C   UNL     1       3.826   4.896  -8.563  0.00  0.00    +0.006 C 
ATOM      4  C   UNL     1       3.892   4.906  -7.252  0.00  0.00    +0.069 C 
ATOM      5  C   UNL     1       3.454   6.101  -6.534  0.00  0.00    +0.221 C 
ATOM      6  N   UNL     1       3.407   6.093  -5.239  0.00  0.00    -0.189 N 
ATOM      7  C   UNL     1       3.376   7.342  -7.315  0.00  0.00    +0.069 C 
ATOM      8  C   UNL     1       2.939   7.199  -8.567  0.00  0.00    +0.006 C 
ENDROOT
BRANCH   1  12
ATOM      9  C   UNL     1       6.240   6.426 -12.879  0.00  0.00    +0.048 A 
ATOM     10  C   UNL     1       5.442   5.304 -13.062  0.00  0.00    +0.015 A 
ATOM     11  C   UNL     1       4.443   5.028 -12.153  0.00  0.00    +0.001 A 
ATOM     12  C   UNL     1       4.164   5.959 -11.159  0.00  0.00    +0.000 A 
ATOM     13  C   UNL     1       4.893   7.113 -11.077  0.00  0.00    +0.001 A 
ATOM     14  C   UNL     1       6.152   7.094 -11.664  0.00  0.00    +0.015 A 
BRANCH   9  15
ATOM     15  N   UNL     1       7.540   6.362 -13.477  0.00  0.00    -0.307 N 
BRANCH  15  17
ATOM     16  C   UNL     1       6.777   7.410 -15.469  0.00  0.00    +0.023 C 
ATOM     17  C   UNL     1       7.736   6.365 -14.916  0.00  0.00    +0.091 C 
ENDBRANCH  15  17
BRANCH  15  18
ATOM     18  C   UNL     1       8.726   6.227 -12.660  0.00  0.00    +0.091 C 
ATOM     19  C   UNL     1       8.531   5.165 -11.587  0.00  0.00    +0.023 C 
ENDBRANCH  15  18
ENDBRANCH   9  15
ENDBRANCH   1  12
BRANCH   1  20
ATOM     20  C   UNL     1       1.718   6.352 -11.271  0.00  0.00    +0.021 A 
ATOM     21  C   UNL     1       0.424   6.085 -10.842  0.00  0.00    +0.136 A 
ATOM     22  C   UNL     1      -0.580   6.847 -11.424  0.00  0.00    +0.022 A 
ATOM     23  C   UNL     1      -0.392   7.510 -12.631  0.00  0.00    +0.022 A 
ATOM     24  C   UNL     1       0.829   7.386 -13.283  0.00  0.00    +0.136 A 
ATOM     25  C   UNL     1       1.884   6.991 -12.490  0.00  0.00    +0.022 A 
BRANCH  24  26
ATOM     26  S   UNL     1       0.925   7.323 -15.040  0.00  0.00    +0.141 S 
ATOM     27  O   UNL     1       0.486   8.782 -15.730  0.00  0.00    -0.043 OA
ATOM     28  O   UNL     1       2.346   6.974 -15.394  0.00  0.00    -0.140 OA
ATOM     29  O   UNL     1       0.070   6.189 -15.557  0.00  0.00    -0.140 OA
ENDBRANCH  24  26
BRANCH  21  30
ATOM     30  S   UNL     1       0.061   4.676  -9.887  0.00  0.00    +0.141 S 
ATOM     31  O   UNL     1      -1.209   3.810 -10.595  0.00  0.00    -0.043 OA
ATOM     32  O   UNL     1      -0.448   5.051  -8.512  0.00  0.00    -0.140 OA
ATOM     33  O   UNL     1       1.212   3.716  -9.811  0.00  0.00    -0.140 OA
ENDBRANCH  21  30
ENDBRANCH   1  20
BRANCH   6  34
ATOM     34  C   UNL     1       2.092   6.202  -4.615  0.00  0.00    +0.317 C 
ATOM     35  C   UNL     1       1.177   5.092  -5.105  0.00  0.00    +0.092 C 
ENDBRANCH   6  34
BRANCH   6  36
ATOM     36  C   UNL     1       4.421   5.398  -4.476  0.00  0.00    +0.317 C 
ATOM     37  C   UNL     1       4.213   5.521  -2.992  0.00  0.00    +0.092 C 
ENDBRANCH   6  36
TORSDOF 9
ENDMDL
MODEL 4
REMARK VINA RESULT:      -6.1      2.397      7.785
REMARK  Name = 
REMARK  9 active torsions:
REMARK  status: ('A' for Active; 'I' for Inactive)
REMARK    1  A    between atoms: C_2  and  N_3
REMARK    2  A    between atoms: N_3  and  C_4
REMARK    3  A    between atoms: N_3  and  C_6
REMARK    4  A    between atoms: C_9  and  C_10
REMARK    5  A    between atoms: C_10  and  C_11
REMARK    6  A    between atoms: C_13  and  S_14
REMARK    7  A    between atoms: C_20  and  S_21
REMARK    8  A    between atoms: N_29  and  C_30
REMARK    9  A    between atoms: N_29  and  C_32
REMARK                            x       y       z     vdW  Elec       q    Type
REMARK                         _______ _______ _______ _____ _____    ______ ____
ROOT
ATOM      1  C   UNL     1       2.308   6.198  -7.035  0.00  0.00    +0.001 C 
ATOM      2  C   UNL     1       3.108   5.916  -8.068  0.00  0.00    +0.000 C 
ATOM      3  C   UNL     1       4.318   6.749  -8.146  0.00  0.00    +0.006 C 
ATOM      4  C   UNL     1       5.113   6.543  -9.171  0.00  0.00    +0.069 C 
ATOM      5  C   UNL     1       5.021   5.274  -9.891  0.00  0.00    +0.221 C 
ATOM      6  N   UNL     1       5.716   5.093 -10.969  0.00  0.00    -0.189 N 
ATOM      7  C   UNL     1       4.369   4.166  -9.182  0.00  0.00    +0.069 C 
ATOM      8  C   UNL     1       3.321   4.509  -8.432  0.00  0.00    +0.006 C 
ENDROOT
BRANCH   1  12
ATOM      9  C   UNL     1       3.668   5.759  -3.106  0.00  0.00    +0.048 A 
ATOM     10  C   UNL     1       3.025   6.920  -3.517  0.00  0.00    +0.015 A 
ATOM     11  C   UNL     1       2.756   7.108  -4.855  0.00  0.00    +0.001 A 
ATOM     12  C   UNL     1       3.000   6.066  -5.742  0.00  0.00    +0.000 A 
ATOM     13  C   UNL     1       3.526   4.888  -5.287  0.00  0.00    +0.001 A 
ATOM     14  C   UNL     1       4.221   4.943  -4.085  0.00  0.00    +0.015 A 
BRANCH   9  15
ATOM     15  N   UNL     1       4.394   5.858  -1.876  0.00  0.00    -0.307 N 
BRANCH  15  17
ATOM     16  C   UNL     1       3.191   4.023  -0.962  0.00  0.00    +0.023 C 
ATOM     17  C   UNL     1       4.535   4.738  -0.962  0.00  0.00    +0.091 C 
ENDBRANCH  15  17
BRANCH  15  18
ATOM     18  C   UNL     1       4.974   7.116  -1.456  0.00  0.00    +0.091 C 
ATOM     19  C   UNL     1       4.826   7.310   0.046  0.00  0.00    +0.023 C 
ENDBRANCH  15  18
ENDBRANCH   9  15
ENDBRANCH   1  12
BRANCH   1  20
ATOM     20  C   UNL     1       0.895   5.794  -7.023  0.00  0.00    +0.021 A 
ATOM     21  C   UNL     1       0.227   5.647  -8.232  0.00  0.00    +0.136 A 
ATOM     22  C   UNL     1      -1.011   5.021  -8.171  0.00  0.00    +0.022 A 
ATOM     23  C   UNL     1      -1.732   4.934  -6.986  0.00  0.00    +0.022 A 
ATOM     24  C   UNL     1      -1.207   5.510  -5.835  0.00  0.00    +0.136 A 
ATOM     25  C   UNL     1       0.153   5.728  -5.853  0.00  0.00    +0.022 A 
BRANCH  24  26
ATOM     26  S   UNL     1      -2.247   6.279  -4.642  0.00  0.00    +0.141 S 
ATOM     27  O   UNL     1      -3.262   5.171  -3.908  0.00  0.00    -0.043 OA
ATOM     28  O   UNL     1      -1.348   6.932  -3.626  0.00  0.00    -0.140 OA
ATOM     29  O   UNL     1      -3.030   7.397  -5.293  0.00  0.00    -0.140 OA
ENDBRANCH  24  26
BRANCH  21  30
ATOM     30  S   UNL     1       0.759   6.478  -9.665  0.00  0.00    +0.141 S 
ATOM     31  O   UNL     1      -0.580   6.978 -10.573  0.00  0.00    -0.043 OA
ATOM     32  O   UNL     1       1.529   5.560 -10.588  0.00  0.00    -0.140 OA
ATOM     33  O   UNL     1       1.527   7.729  -9.357  0.00  0.00    -0.140 OA
ENDBRANCH  21  30
ENDBRANCH   1  20
BRANCH   6  34
ATOM     34  C   UNL     1       4.982   4.948 -12.223  0.00  0.00    +0.317 C 
ATOM     35  C   UNL     1       4.121   6.173 -12.480  0.00  0.00    +0.092 C 
ENDBRANCH   6  34
BRANCH   6  36
ATOM     36  C   UNL     1       7.056   5.628 -11.071  0.00  0.00    +0.317 C 
ATOM     37  C   UNL     1       7.732   5.248 -12.360  0.00  0.00    +0.092 C 
ENDBRANCH   6  36
TORSDOF 9
ENDMDL
MODEL 5
REMARK VINA RESULT:      -5.6      3.845      9.099
REMARK  Name = 
REMARK  9 active torsions:
REMARK  status: ('A' for Active; 'I' for Inactive)
REMARK    1  A    between atoms: C_2  and  N_3
REMARK    2  A    between atoms: N_3  and  C_4
REMARK    3  A    between atoms: N_3  and  C_6
REMARK    4  A    between atoms: C_9  and  C_10
REMARK    5  A    between atoms: C_10  and  C_11
REMARK    6  A    between atoms: C_13  and  S_14
REMARK    7  A    between atoms: C_20  and  S_21
REMARK    8  A    between atoms: N_29  and  C_30
REMARK    9  A    between atoms: N_29  and  C_32
REMARK                            x       y       z     vdW  Elec       q    Type
REMARK                         _______ _______ _______ _____ _____    ______ ____
ROOT
ATOM      1  C   UNL     1       1.210   6.311  -0.886  0.00  0.00    +0.001 C 
ATOM      2  C   UNL     1       0.973   6.099  -2.184  0.00  0.00    +0.000 C 
ATOM      3  C   UNL     1      -0.126   5.161  -2.458  0.00  0.00    +0.006 C 
ATOM      4  C   UNL     1      -0.365   4.883  -3.719  0.00  0.00    +0.069 C 
ATOM      5  C   UNL     1       0.119   5.800  -4.748  0.00  0.00    +0.221 C 
ATOM      6  N   UNL     1      -0.009   5.490  -5.999  0.00  0.00    -0.189 N 
ATOM      7  C   UNL     1       0.457   7.159  -4.306  0.00  0.00    +0.069 C 
ATOM      8  C   UNL     1       1.036   7.240  -3.108  0.00  0.00    +0.006 C 
ENDROOT
BRANCH   1  12
ATOM      9  C   UNL     1      -1.737   8.197   1.405  0.00  0.00    +0.048 A 
ATOM     10  C   UNL     1      -0.801   7.354   1.993  0.00  0.00    +0.015 A 
ATOM     11  C   UNL     1       0.036   6.608   1.191  0.00  0.00    +0.001 A 
ATOM     12  C   UNL     1       0.024   6.827  -0.181  0.00  0.00    +0.000 A 
ATOM     13  C   UNL     1      -0.829   7.751  -0.720  0.00  0.00    +0.001 A 
ATOM     14  C   UNL     1      -1.948   8.077   0.037  0.00  0.00    +0.015 A 
BRANCH   9  15
ATOM     15  N   UNL     1      -2.888   8.492   2.203  0.00  0.00    -0.307 N 
BRANCH  15  17
ATOM     16  C   UNL     1      -1.766  10.537   2.654  0.00  0.00    +0.023 C 
ATOM     17  C   UNL     1      -3.042   9.749   2.913  0.00  0.00    +0.091 C 
ENDBRANCH  15  17
BRANCH  15  18
ATOM     18  C   UNL     1      -3.934   7.508   2.388  0.00  0.00    +0.091 C 
ATOM     19  C   UNL     1      -3.813   6.834   3.747  0.00  0.00    +0.023 C 
ENDBRANCH  15  18
ENDBRANCH   9  15
ENDBRANCH   1  12
BRANCH   1  20
ATOM     20  C   UNL     1       2.492   6.854  -0.414  0.00  0.00    +0.021 A 
ATOM     21  C   UNL     1       3.666   6.191  -0.748  0.00  0.00    +0.136 A 
ATOM     22  C   UNL     1       4.846   6.880  -0.501  0.00  0.00    +0.022 A 
ATOM     23  C   UNL     1       4.901   7.943   0.392  0.00  0.00    +0.022 A 
ATOM     24  C   UNL     1       3.747   8.311   1.073  0.00  0.00    +0.136 A 
ATOM     25  C   UNL     1       2.566   7.896   0.497  0.00  0.00    +0.022 A 
BRANCH  24  26
ATOM     26  S   UNL     1       3.809   8.881   2.737  0.00  0.00    +0.141 S 
ATOM     27  O   UNL     1       3.322  10.477   2.856  0.00  0.00    -0.043 OA
ATOM     28  O   UNL     1       2.906   7.989   3.546  0.00  0.00    -0.140 OA
ATOM     29  O   UNL     1       5.202   8.687   3.291  0.00  0.00    -0.140 OA
ENDBRANCH  24  26
BRANCH  21  30
ATOM     30  S   UNL     1       3.666   4.496  -1.142  0.00  0.00    +0.141 S 
ATOM     31  O   UNL     1       5.079   3.767  -0.560  0.00  0.00    -0.043 OA
ATOM     32  O   UNL     1       3.706   4.272  -2.638  0.00  0.00    -0.140 OA
ATOM     33  O   UNL     1       2.533   3.752  -0.499  0.00  0.00    -0.140 OA
ENDBRANCH  21  30
ENDBRANCH   1  20
BRANCH   6  34
ATOM     34  C   UNL     1       1.214   5.249  -6.759  0.00  0.00    +0.317 C 
ATOM     35  C   UNL     1       1.872   3.955  -6.312  0.00  0.00    +0.092 C 
ENDBRANCH   6  34
BRANCH   6  36
ATOM     36  C   UNL     1      -1.195   4.803  -6.463  0.00  0.00    +0.317 C 
ATOM     37  C   UNL     1      -2.416   5.680  -6.441  0.00  0.00    +0.092 C 
ENDBRANCH   6  36
TORSDOF 9
ENDMDL
MODEL 6
REMARK VINA RESULT:      -5.6      4.636      7.691
REMARK  Name = 
REMARK  9 active torsions:
REMARK  status: ('A' for Active; 'I' for Inactive)
REMARK    1  A    between atoms: C_2  and  N_3
REMARK    2  A    between atoms: N_3  and  C_4
REMARK    3  A    between atoms: N_3  and  C_6
REMARK    4  A    between atoms: C_9  and  C_10
REMARK    5  A    between atoms: C_10  and  C_11
REMARK    6  A    between atoms: C_13  and  S_14
REMARK    7  A    between atoms: C_20  and  S_21
REMARK    8  A    between atoms: N_29  and  C_30
REMARK    9  A    between atoms: N_29  and  C_32
REMARK                            x       y       z     vdW  Elec       q    Type
REMARK                         _______ _______ _______ _____ _____    ______ ____
ROOT
ATOM      1  C   UNL     1       2.458   6.199  -8.397  0.00  0.00    +0.001 C 
ATOM      2  C   UNL     1       1.656   5.948  -7.358  0.00  0.00    +0.000 C 
ATOM      3  C   UNL     1       0.444   6.780  -7.308  0.00  0.00    +0.006 C 
ATOM      4  C   UNL     1      -0.352   6.604  -6.279  0.00  0.00    +0.069 C 
ATOM      5  C   UNL     1      -0.259   5.359  -5.520  0.00  0.00    +0.221 C 
ATOM      6  N   UNL     1      -0.957   5.210  -4.439  0.00  0.00    -0.189 N 
ATOM      7  C   UNL     1       0.396   4.230  -6.193  0.00  0.00    +0.069 C 
ATOM      8  C   UNL     1       1.446   4.552  -6.951  0.00  0.00    +0.006 C 
ENDROOT
BRANCH   1  12
ATOM      9  C   UNL     1       1.088   5.494 -12.284  0.00  0.00    +0.048 A 
ATOM     10  C   UNL     1       1.936   6.560 -12.004  0.00  0.00    +0.015 A 
ATOM     11  C   UNL     1       2.220   6.873 -10.692  0.00  0.00    +0.001 A 
ATOM     12  C   UNL     1       1.769   6.025  -9.687  0.00  0.00    +0.000 A 
ATOM     13  C   UNL     1       1.034   4.916 -10.004  0.00  0.00    +0.001 A 
ATOM     14  C   UNL     1       0.378   4.937 -11.228  0.00  0.00    +0.015 A 
BRANCH   9  15
ATOM     15  N   UNL     1       0.409   5.560 -13.543  0.00  0.00    -0.307 N 
BRANCH  15  17
ATOM     16  C   UNL     1       1.340   3.484 -14.229  0.00  0.00    +0.023 C 
ATOM     17  C   UNL     1       0.111   4.377 -14.330  0.00  0.00    +0.091 C 
ENDBRANCH  15  17
BRANCH  15  18
ATOM     18  C   UNL     1       0.043   6.835 -14.122  0.00  0.00    +0.091 C 
ATOM     19  C   UNL     1       0.416   6.891 -15.596  0.00  0.00    +0.023 C 
ENDBRANCH  15  18
ENDBRANCH   9  15
ENDBRANCH   1  12
BRANCH   1  20
ATOM     20  C   UNL     1       3.873   5.798  -8.393  0.00  0.00    +0.021 A 
ATOM     21  C   UNL     1       4.544   5.711  -7.180  0.00  0.00    +0.136 A 
ATOM     22  C   UNL     1       5.783   5.086  -7.214  0.00  0.00    +0.022 A 
ATOM     23  C   UNL     1       6.501   4.942  -8.395  0.00  0.00    +0.022 A 
ATOM     24  C   UNL     1       5.972   5.460  -9.571  0.00  0.00    +0.136 A 
ATOM     25  C   UNL     1       4.611   5.677  -9.560  0.00  0.00    +0.022 A 
BRANCH  24  26
ATOM     26  S   UNL     1       7.007   6.173 -10.803  0.00  0.00    +0.141 S 
ATOM     27  O   UNL     1       7.885   5.005 -11.617  0.00  0.00    -0.043 OA
ATOM     28  O   UNL     1       6.113   6.925 -11.753  0.00  0.00    -0.140 OA
ATOM     29  O   UNL     1       7.915   7.204 -10.172  0.00  0.00    -0.140 OA
ENDBRANCH  24  26
BRANCH  21  30
ATOM     30  S   UNL     1       4.014   6.610  -5.788  0.00  0.00    +0.141 S 
ATOM     31  O   UNL     1       5.354   7.198  -4.936  0.00  0.00    -0.043 OA
ATOM     32  O   UNL     1       3.286   5.727  -4.799  0.00  0.00    -0.140 OA
ATOM     33  O   UNL     1       3.205   7.820  -6.154  0.00  0.00    -0.140 OA
ENDBRANCH  21  30
ENDBRANCH   1  20
BRANCH   6  34
ATOM     34  C   UNL     1      -0.226   5.106  -3.179  0.00  0.00    +0.317 C 
ATOM     35  C   UNL     1       0.561   6.378  -2.914  0.00  0.00    +0.092 C 
ENDBRANCH   6  34
BRANCH   6  36
ATOM     36  C   UNL     1      -2.299   5.745  -4.356  0.00  0.00    +0.317 C 
ATOM     37  C   UNL     1      -3.017   5.311  -3.109  0.00  0.00    +0.092 C 
ENDBRANCH   6  36
TORSDOF 9
ENDMDL
MODEL 7
REMARK VINA RESULT:      -5.3      1.629      7.340
REMARK  Name = 
REMARK  9 active torsions:
REMARK  status: ('A' for Active; 'I' for Inactive)
REMARK    1  A    between atoms: C_2  and  N_3
REMARK    2  A    between atoms: N_3  and  C_4
REMARK    3  A    between atoms: N_3  and  C_6
REMARK    4  A    between atoms: C_9  and  C_10
REMARK    5  A    between atoms: C_10  and  C_11
REMARK    6  A    between atoms: C_13  and  S_14
REMARK    7  A    between atoms: C_20  and  S_21
REMARK    8  A    between atoms: N_29  and  C_30
REMARK    9  A    between atoms: N_29  and  C_32
REMARK                            x       y       z     vdW  Elec       q    Type
REMARK                         _______ _______ _______ _____ _____    ______ ____
ROOT
ATOM      1  C   UNL     1       1.686   6.837  -2.896  0.00  0.00    +0.001 C 
ATOM      2  C   UNL     1       2.203   6.311  -4.010  0.00  0.00    +0.000 C 
ATOM      3  C   UNL     1       3.204   7.158  -4.677  0.00  0.00    +0.006 C 
ATOM      4  C   UNL     1       3.706   6.705  -5.803  0.00  0.00    +0.069 C 
ATOM      5  C   UNL     1       3.611   5.276  -6.093  0.00  0.00    +0.221 C 
ATOM      6  N   UNL     1       4.000   4.826  -7.244  0.00  0.00    -0.189 N 
ATOM      7  C   UNL     1       3.356   4.392  -4.949  0.00  0.00    +0.069 C 
ATOM      8  C   UNL     1       2.517   4.876  -4.033  0.00  0.00    +0.006 C 
ENDROOT
BRANCH   1  12
ATOM      9  C   UNL     1       4.118   7.861   0.348  0.00  0.00    +0.048 A 
ATOM     10  C   UNL     1       3.434   8.834  -0.371  0.00  0.00    +0.015 A 
ATOM     11  C   UNL     1       2.792   8.486  -1.540  0.00  0.00    +0.001 A 
ATOM     12  C   UNL     1       2.721   7.144  -1.893  0.00  0.00    +0.000 A 
ATOM     13  C   UNL     1       3.305   6.194  -1.100  0.00  0.00    +0.001 A 
ATOM     14  C   UNL     1       4.323   6.630  -0.261  0.00  0.00    +0.015 A 
BRANCH   9  15
ATOM     15  N   UNL     1       5.176   8.342   1.184  0.00  0.00    -0.307 N 
BRANCH  15  17
ATOM     16  C   UNL     1       5.889   7.118   3.092  0.00  0.00    +0.023 C 
ATOM     17  C   UNL     1       6.246   7.482   1.658  0.00  0.00    +0.091 C 
ENDBRANCH  15  17
BRANCH  15  18
ATOM     18  C   UNL     1       5.189   9.712   1.649  0.00  0.00    +0.091 C 
ATOM     19  C   UNL     1       4.132   9.933   2.723  0.00  0.00    +0.023 C 
ENDBRANCH  15  18
ENDBRANCH   9  15
ENDBRANCH   1  12
BRANCH   1  20
ATOM     20  C   UNL     1       0.409   6.365  -2.340  0.00  0.00    +0.021 A 
ATOM     21  C   UNL     1      -0.641   6.093  -3.208  0.00  0.00    +0.136 A 
ATOM     22  C   UNL     1      -1.721   5.413  -2.661  0.00  0.00    +0.022 A 
ATOM     23  C   UNL     1      -1.950   5.380  -1.290  0.00  0.00    +0.022 A 
ATOM     24  C   UNL     1      -1.086   6.068  -0.447  0.00  0.00    +0.136 A 
ATOM     25  C   UNL     1       0.154   6.352  -0.978  0.00  0.00    +0.022 A 
BRANCH  24  26
ATOM     26  S   UNL     1      -1.672   6.873   1.004  0.00  0.00    +0.141 S 
ATOM     27  O   UNL     1      -2.600   5.846   1.943  0.00  0.00    -0.043 OA
ATOM     28  O   UNL     1      -0.463   7.346   1.768  0.00  0.00    -0.140 OA
ATOM     29  O   UNL     1      -2.442   8.116   0.621  0.00  0.00    -0.140 OA
ENDBRANCH  24  26
BRANCH  21  30
ATOM     30  S   UNL     1      -0.733   6.839  -4.777  0.00  0.00    +0.141 S 
ATOM     31  O   UNL     1      -2.344   6.891  -5.298  0.00  0.00    -0.043 OA
ATOM     32  O   UNL     1      -0.016   6.018  -5.827  0.00  0.00    -0.140 OA
ATOM     33  O   UNL     1      -0.264   8.264  -4.770  0.00  0.00    -0.140 OA
ENDBRANCH  21  30
ENDBRANCH   1  20
BRANCH   6  34
ATOM     34  C   UNL     1       2.979   4.264  -8.124  0.00  0.00    +0.317 C 
ATOM     35  C   UNL     1       1.828   5.241  -8.294  0.00  0.00    +0.092 C 
ENDBRANCH   6  34
BRANCH   6  36
ATOM     36  C   UNL     1       5.163   5.390  -7.893  0.00  0.00    +0.317 C 
ATOM     37  C   UNL     1       5.067   5.342  -9.393  0.00  0.00    +0.092 C 
ENDBRANCH   6  36
TORSDOF 9
ENDMDL
MODEL 8
REMARK VINA RESULT:      -5.1      6.648     10.903
REMARK  Name = 
REMARK  9 active torsions:
REMARK  status: ('A' for Active; 'I' for Inactive)
REMARK    1  A    between atoms: C_2  and  N_3
REMARK    2  A    between atoms: N_3  and  C_4
REMARK    3  A    between atoms: N_3  and  C_6
REMARK    4  A    between atoms: C_9  and  C_10
REMARK    5  A    between atoms: C_10  and  C_11
REMARK    6  A    between atoms: C_13  and  S_14
REMARK    7  A    between atoms: C_20  and  S_21
REMARK    8  A    between atoms: N_29  and  C_30
REMARK    9  A    between atoms: N_29  and  C_32
REMARK                            x       y       z     vdW  Elec       q    Type
REMARK                         _______ _______ _______ _____ _____    ______ ____
ROOT
ATOM      1  C   UNL     1       2.299   6.620 -12.504  0.00  0.00    +0.001 C 
ATOM      2  C   UNL     1       1.726   6.181 -11.380  0.00  0.00    +0.000 C 
ATOM      3  C   UNL     1       0.638   7.033 -10.877  0.00  0.00    +0.006 C 
ATOM      4  C   UNL     1       0.075   6.669  -9.748  0.00  0.00    +0.069 C 
ATOM      5  C   UNL     1       0.216   5.284  -9.304  0.00  0.00    +0.221 C 
ATOM      6  N   UNL     1      -0.236   4.931  -8.142  0.00  0.00    -0.189 N 
ATOM      7  C   UNL     1       0.599   4.305 -10.328  0.00  0.00    +0.069 C 
ATOM      8  C   UNL     1       1.481   4.740 -11.229  0.00  0.00    +0.006 C 
ENDROOT
BRANCH   1  12
ATOM      9  C   UNL     1       0.068   7.214 -15.990  0.00  0.00    +0.048 A 
ATOM     10  C   UNL     1       0.593   8.289 -15.282  0.00  0.00    +0.015 A 
ATOM     11  C   UNL     1       1.163   8.072 -14.046  0.00  0.00    +0.001 A 
ATOM     12  C   UNL     1       1.330   6.766 -13.603  0.00  0.00    +0.000 A 
ATOM     13  C   UNL     1       0.907   5.720 -14.377  0.00  0.00    +0.001 A 
ATOM     14  C   UNL     1      -0.072   6.004 -15.321  0.00  0.00    +0.015 A 
BRANCH   9  15
ATOM     15  N   UNL     1      -0.956   7.540 -16.936  0.00  0.00    -0.307 N 
BRANCH  15  17
ATOM     16  C   UNL     1      -2.908   7.341 -18.277  0.00  0.00    +0.023 C 
ATOM     17  C   UNL     1      -2.124   6.702 -17.140  0.00  0.00    +0.091 C 
ENDBRANCH  15  17
BRANCH  15  18
ATOM     18  C   UNL     1      -0.835   8.705 -17.786  0.00  0.00    +0.091 C 
ATOM     19  C   UNL     1       0.334   8.557 -18.749  0.00  0.00    +0.023 C 
ENDBRANCH  15  18
ENDBRANCH   9  15
ENDBRANCH   1  12
BRANCH   1  20
ATOM     20  C   UNL     1       3.636   6.166 -12.916  0.00  0.00    +0.021 A 
ATOM     21  C   UNL     1       4.583   5.890 -11.938  0.00  0.00    +0.136 A 
ATOM     22  C   UNL     1       5.725   5.226 -12.367  0.00  0.00    +0.022 A 
ATOM     23  C   UNL     1       6.109   5.216 -13.702  0.00  0.00    +0.022 A 
ATOM     24  C   UNL     1       5.340   5.908 -14.630  0.00  0.00    +0.136 A 
ATOM     25  C   UNL     1       4.046   6.175 -14.240  0.00  0.00    +0.022 A 
BRANCH  24  26
ATOM     26  S   UNL     1       6.080   6.739 -15.993  0.00  0.00    +0.141 S 
ATOM     27  O   UNL     1       5.087   6.715 -17.339  0.00  0.00    -0.043 OA
ATOM     28  O   UNL     1       6.348   8.155 -15.557  0.00  0.00    -0.140 OA
ATOM     29  O   UNL     1       7.429   6.127 -16.292  0.00  0.00    -0.140 OA
ENDBRANCH  24  26
BRANCH  21  30
ATOM     30  S   UNL     1       4.488   6.613 -10.358  0.00  0.00    +0.141 S 
ATOM     31  O   UNL     1       6.038   6.744  -9.689  0.00  0.00    -0.043 OA
ATOM     32  O   UNL     1       3.723   5.738  -9.390  0.00  0.00    -0.140 OA
ATOM     33  O   UNL     1       3.944   8.011 -10.393  0.00  0.00    -0.140 OA
ENDBRANCH  21  30
ENDBRANCH   1  20
BRANCH   6  34
ATOM     34  C   UNL     1       0.741   4.519  -7.139  0.00  0.00    +0.317 C 
ATOM     35  C   UNL     1       1.723   5.644  -6.860  0.00  0.00    +0.092 C 
ENDBRANCH   6  34
BRANCH   6  36
ATOM     36  C   UNL     1      -1.471   5.492  -7.638  0.00  0.00    +0.317 C 
ATOM     37  C   UNL     1      -1.572   5.413  -6.140  0.00  0.00    +0.092 C 
ENDBRANCH   6  36
TORSDOF 9
ENDMDL
MODEL 9
REMARK VINA RESULT:      -5.0      2.742      4.179
REMARK  Name = 
REMARK  9 active torsions:
REMARK  status: ('A' for Active; 'I' for Inactive)
REMARK    1  A    between atoms: C_2  and  N_3
REMARK    2  A    between atoms: N_3  and  C_4
REMARK    3  A    between atoms: N_3  and  C_6
REMARK    4  A    between atoms: C_9  and  C_10
REMARK    5  A    between atoms: C_10  and  C_11
REMARK    6  A    between atoms: C_13  and  S_14
REMARK    7  A    between atoms: C_20  and  S_21
REMARK    8  A    between atoms: N_29  and  C_30
REMARK    9  A    between atoms: N_29  and  C_32
REMARK                            x       y       z     vdW  Elec       q    Type
REMARK                         _______ _______ _______ _____ _____    ______ ____
ROOT
ATOM      1  C   UNL     1       1.811   7.922   0.248  0.00  0.00    +0.001 C 
ATOM      2  C   UNL     1       2.478   8.892   0.881  0.00  0.00    +0.000 C 
ATOM      3  C   UNL     1       3.853   8.537   1.264  0.00  0.00    +0.006 C 
ATOM      4  C   UNL     1       4.533   9.440   1.932  0.00  0.00    +0.069 C 
ATOM      5  C   UNL     1       4.103  10.835   1.869  0.00  0.00    +0.221 C 
ATOM      6  N   UNL     1       4.691  11.724   2.606  0.00  0.00    -0.189 N 
ATOM      7  C   UNL     1       3.223  11.199   0.752  0.00  0.00    +0.069 C 
ATOM      8  C   UNL     1       2.321  10.276   0.415  0.00  0.00    +0.006 C 
ENDROOT
BRANCH   1  12
ATOM      9  C   UNL     1       3.166   6.755  -3.531  0.00  0.00    +0.048 A 
ATOM     10  C   UNL     1       2.342   5.927  -2.777  0.00  0.00    +0.015 A 
ATOM     11  C   UNL     1       2.065   6.258  -1.468  0.00  0.00    +0.001 A 
ATOM     12  C   UNL     1       2.496   7.486  -0.981  0.00  0.00    +0.000 A 
ATOM     13  C   UNL     1       3.207   8.333  -1.787  0.00  0.00    +0.001 A 
ATOM     14  C   UNL     1       3.863   7.754  -2.866  0.00  0.00    +0.015 A 
BRANCH   9  15
ATOM     15  N   UNL     1       3.846   6.121  -4.620  0.00  0.00    -0.307 N 
BRANCH  15  17
ATOM     16  C   UNL     1       5.300   4.416  -3.829  0.00  0.00    +0.023 C 
ATOM     17  C   UNL     1       5.249   5.753  -4.555  0.00  0.00    +0.091 C 
ENDBRANCH  15  17
BRANCH  15  18
ATOM     18  C   UNL     1       3.167   5.873  -5.874  0.00  0.00    +0.091 C 
ATOM     19  C   UNL     1       2.752   7.179  -6.536  0.00  0.00    +0.023 C 
ENDBRANCH  15  18
ENDBRANCH   9  15
ENDBRANCH   1  12
BRANCH   1  20
ATOM     20  C   UNL     1       0.343   7.920   0.170  0.00  0.00    +0.021 A 
ATOM     21  C   UNL     1      -0.392   8.000   1.346  0.00  0.00    +0.136 A 
ATOM     22  C   UNL     1      -1.750   8.253   1.198  0.00  0.00    +0.022 A 
ATOM     23  C   UNL     1      -2.414   8.019   0.000  0.00  0.00    +0.022 A 
ATOM     24  C   UNL     1      -1.702   7.495  -1.072  0.00  0.00    +0.136 A 
ATOM     25  C   UNL     1      -0.336   7.661  -1.010  0.00  0.00    +0.022 A 
BRANCH  24  26
ATOM     26  S   UNL     1      -2.441   6.353  -2.189  0.00  0.00    +0.141 S 
ATOM     27  O   UNL     1      -4.056   6.703  -2.446  0.00  0.00    -0.043 OA
ATOM     28  O   UNL     1      -1.668   6.432  -3.479  0.00  0.00    -0.140 OA
ATOM     29  O   UNL     1      -2.258   4.944  -1.673  0.00  0.00    -0.140 OA
ENDBRANCH  24  26
BRANCH  21  30
ATOM     30  S   UNL     1       0.280   7.496   2.869  0.00  0.00    +0.141 S 
ATOM     31  O   UNL     1      -0.871   6.619   3.748  0.00  0.00    -0.043 OA
ATOM     32  O   UNL     1       0.616   8.681   3.749  0.00  0.00    -0.140 OA
ATOM     33  O   UNL     1       1.453   6.575   2.708  0.00  0.00    -0.140 OA
ENDBRANCH  21  30
ENDBRANCH   1  20
BRANCH   6  34
ATOM     34  C   UNL     1       3.899  12.354   3.658  0.00  0.00    +0.317 C 
ATOM     35  C   UNL     1       3.907  13.864   3.498  0.00  0.00    +0.092 C 
ENDBRANCH   6  34
BRANCH   6  36
ATOM     36  C   UNL     1       6.118  11.653   2.836  0.00  0.00    +0.317 C 
ATOM     37  C   UNL     1       6.916  12.194   1.683  0.00  0.00    +0.092 C 
ENDBRANCH   6  36
TORSDOF 9
ENDMDL
