MODEL 1
REMARK VINA RESULT:      -5.8      0.000      0.000
REMARK  Name = 
REMARK  9 active torsions:
REMARK  status: ('A' for Active; 'I' for Inactive)
REMARK    1  A    between atoms: C_2  and  C_3
REMARK    2  A    between atoms: C_3  and  C_4
REMARK    3  A    between atoms: C_4  and  C_6
REMARK    4  A    between atoms: C_4  and  C_11
REMARK    5  A    between atoms: C_6  and  O_7
REMARK    6  A    between atoms: O_7  and  C_8
REMARK    7  A    between atoms: C_11  and  O_12
REMARK    8  A    between atoms: O_12  and  C_13
REMARK    9  A    between atoms: N_15  and  C_16
REMARK                            x       y       z     vdW  Elec       q    Type
REMARK                         _______ _______ _______ _____ _____    ______ ____
ROOT
ATOM      1  C   UNL     1      -2.054   6.395  -3.826  0.00  0.00    +0.081 C 
ATOM      2  C   UNL     1      -3.100   5.401  -3.370  0.00  0.00    +0.007 C 
ENDROOT
BRANCH   1   3
ATOM      3  C   UNL     1      -0.745   5.680  -3.937  0.00  0.00    +0.214 C 
BRANCH   3   4
ATOM      4  O   UNL     1       0.367   6.442  -3.553  0.00  0.00    -0.433 OA
BRANCH   4   5
ATOM      5  C   UNL     1       1.376   6.624  -4.481  0.00  0.00    +0.421 C 
ATOM      6  N   UNL     1       2.757   6.497  -4.189  0.00  0.00    -0.170 NA
ATOM      7  O   UNL     1       1.077   6.918  -5.677  0.00  0.00    -0.225 OA
BRANCH   6   8
ATOM      8  C   UNL     1       3.784   7.070  -5.050  0.00  0.00    +0.099 C 
ATOM      9  C   UNL     1       4.390   5.927  -5.845  0.00  0.00    +0.024 C 
ATOM     10  C   UNL     1       4.864   7.766  -4.257  0.00  0.00    +0.024 C 
ENDBRANCH   6   8
ENDBRANCH   4   5
ENDBRANCH   3   4
ENDBRANCH   1   3
BRANCH   1  11
ATOM     11  C   UNL     1      -2.029   7.604  -2.942  0.00  0.00    +0.214 C 
BRANCH  11  12
ATOM     12  O   UNL     1      -2.513   7.236  -1.659  0.00  0.00    -0.432 OA
BRANCH  12  13
ATOM     13  C   UNL     1      -1.711   7.415  -0.537  0.00  0.00    +0.441 C 
ATOM     14  O   UNL     1      -1.503   8.555  -0.067  0.00  0.00    -0.223 OA
ATOM     15  N   UNL     1      -0.790   6.376  -0.232  0.00  0.00    -0.048 NA
ENDBRANCH  12  13
ENDBRANCH  11  12
ENDBRANCH   1  11
BRANCH   1  16
ATOM     16  C   UNL     1      -2.453   6.816  -5.236  0.00  0.00    +0.007 C 
BRANCH  16  18
ATOM     17  C   UNL     1      -2.179   5.521  -6.633  0.00  0.00    +0.000 C 
ATOM     18  C   UNL     1      -2.167   5.616  -6.133  0.00  0.00    +0.000 C 
ENDBRANCH  16  18
ENDBRANCH   1  16
TORSDOF 9
ENDMDL
MODEL 2
REMARK VINA RESULT:      -5.8      2.474      6.708
REMARK  Name = 
REMARK  9 active torsions:
REMARK  status: ('A' for Active; 'I' for Inactive)
REMARK    1  A    between atoms: C_2  and  C_3
REMARK    2  A    between atoms: C_3  and  C_4
REMARK    3  A    between atoms: C_4  and  C_6
REMARK    4  A    between atoms: C_4  and  C_11
REMARK    5  A    between atoms: C_6  and  O_7
REMARK    6  A    between atoms: O_7  and  C_8
REMARK    7  A    between atoms: C_11  and  O_12
REMARK    8  A    between atoms: O_12  and  C_13
REMARK    9  A    between atoms: N_15  and  C_16
REMARK                            x       y       z     vdW  Elec       q    Type
REMARK                         _______ _______ _______ _____ _____    ______ ____
ROOT
ATOM      1  C   UNL     1       3.608   5.674  -5.076  0.00  0.00    +0.081 C 
ATOM      2  C   UNL     1       4.532   4.823  -4.232  0.00  0.00    +0.007 C 
ENDROOT
BRANCH   1   3
ATOM      3  C   UNL     1       2.246   5.058  -5.047  0.00  0.00    +0.214 C 
BRANCH   3   4
ATOM      4  O   UNL     1       1.560   5.220  -3.836  0.00  0.00    -0.433 OA
BRANCH   4   5
ATOM      5  C   UNL     1       0.181   5.318  -3.883  0.00  0.00    +0.421 C 
ATOM      6  N   UNL     1      -0.549   5.706  -5.034  0.00  0.00    -0.170 NA
ATOM      7  O   UNL     1      -0.498   5.045  -2.849  0.00  0.00    -0.225 OA
BRANCH   6   8
ATOM      8  C   UNL     1      -1.925   6.179  -4.952  0.00  0.00    +0.099 C 
ATOM      9  C   UNL     1      -2.596   5.837  -6.270  0.00  0.00    +0.024 C 
ATOM     10  C   UNL     1      -1.999   7.668  -4.716  0.00  0.00    +0.024 C 
ENDBRANCH   6   8
ENDBRANCH   4   5
ENDBRANCH   3   4
ENDBRANCH   1   3
BRANCH   1  11
ATOM     11  C   UNL     1       4.166   5.886  -6.450  0.00  0.00    +0.214 C 
BRANCH  11  12
ATOM     12  O   UNL     1       3.098   5.843  -7.384  0.00  0.00    -0.432 OA
BRANCH  12  13
ATOM     13  C   UNL     1       2.906   6.898  -8.268  0.00  0.00    +0.441 C 
ATOM     14  O   UNL     1       3.601   7.008  -9.302  0.00  0.00    -0.223 OA
ATOM     15  N   UNL     1       2.259   8.056  -7.758  0.00  0.00    -0.048 NA
ENDBRANCH  12  13
ENDBRANCH  11  12
ENDBRANCH   1  11
BRANCH   1  16
ATOM     16  C   UNL     1       3.504   7.020  -4.367  0.00  0.00    +0.007 C 
BRANCH  16  18
ATOM     17  C   UNL     1       5.171   7.935  -4.074  0.00  0.00    +0.000 C 
ATOM     18  C   UNL     1       4.912   7.606  -4.363  0.00  0.00    +0.000 C 
ENDBRANCH  16  18
ENDBRANCH   1  16
TORSDOF 9
ENDMDL
MODEL 3
REMARK VINA RESULT:      -5.5      5.620      7.393
REMARK  Name = 
REMARK  9 active torsions:
REMARK  status: ('A' for Active; 'I' for Inactive)
REMARK    1  A    between atoms: C_2  and  C_3
REMARK    2  A    between atoms: C_3  and  C_4
REMARK    3  A    between atoms: C_4  and  C_6
REMARK    4  A    between atoms: C_4  and  C_11
REMARK    5  A    between atoms: C_6  and  O_7
REMARK    6  A    between atoms: O_7  and  C_8
REMARK    7  A    between atoms: C_11  and  O_12
REMARK    8  A    between atoms: O_12  and  C_13
REMARK    9  A    between atoms: N_15  and  C_16
REMARK                            x       y       z     vdW  Elec       q    Type
REMARK                         _______ _______ _______ _____ _____    ______ ____
ROOT
ATOM      1  C   UNL     1       1.371   5.910 -10.107  0.00  0.00    +0.081 C 
ATOM      2  C   UNL     1       1.675   4.488  -9.689  0.00  0.00    +0.007 C 
ENDROOT
BRANCH   1   3
ATOM      3  C   UNL     1       2.382   6.326 -11.128  0.00  0.00    +0.214 C 
BRANCH   3   4
ATOM      4  O   UNL     1       3.526   5.518 -11.174  0.00  0.00    -0.433 OA
BRANCH   4   5
ATOM      5  C   UNL     1       4.759   6.143 -11.142  0.00  0.00    +0.421 C 
ATOM      6  N   UNL     1       5.987   5.495 -11.426  0.00  0.00    -0.170 NA
ATOM      7  O   UNL     1       4.825   7.375 -10.850  0.00  0.00    -0.225 OA
BRANCH   6   8
ATOM      8  C   UNL     1       7.268   6.049 -11.005  0.00  0.00    +0.099 C 
ATOM      9  C   UNL     1       8.322   5.504 -11.951  0.00  0.00    +0.024 C 
ATOM     10  C   UNL     1       7.611   5.668  -9.586  0.00  0.00    +0.024 C 
ENDBRANCH   6   8
ENDBRANCH   4   5
ENDBRANCH   3   4
ENDBRANCH   1   3
BRANCH   1  11
ATOM     11  C   UNL     1       1.279   6.819  -8.919  0.00  0.00    +0.214 C 
BRANCH  11  12
ATOM     12  O   UNL     1       2.587   7.248  -8.574  0.00  0.00    -0.432 OA
BRANCH  12  13
ATOM     13  C   UNL     1       3.176   6.802  -7.397  0.00  0.00    +0.441 C 
ATOM     14  O   UNL     1       3.105   7.474  -6.344  0.00  0.00    -0.223 OA
ATOM     15  N   UNL     1       4.217   5.842  -7.521  0.00  0.00    -0.048 NA
ENDBRANCH  12  13
ENDBRANCH  11  12
ENDBRANCH   1  11
BRANCH   1  16
ATOM     16  C   UNL     1       0.019   5.868 -10.809  0.00  0.00    +0.007 C 
BRANCH  16  18
ATOM     17  C   UNL     1      -0.610   7.519 -11.572  0.00  0.00    +0.000 C 
ATOM     18  C   UNL     1      -0.228   7.277 -11.338  0.00  0.00    +0.000 C 
ENDBRANCH  16  18
ENDBRANCH   1  16
TORSDOF 9
ENDMDL
MODEL 4
REMARK VINA RESULT:      -5.5      2.951      4.011
REMARK  Name = 
REMARK  9 active torsions:
REMARK  status: ('A' for Active; 'I' for Inactive)
REMARK    1  A    between atoms: C_2  and  C_3
REMARK    2  A    between atoms: C_3  and  C_4
REMARK    3  A    between atoms: C_4  and  C_6
REMARK    4  A    between atoms: C_4  and  C_11
REMARK    5  A    between atoms: C_6  and  O_7
REMARK    6  A    between atoms: O_7  and  C_8
REMARK    7  A    between atoms: C_11  and  O_12
REMARK    8  A    between atoms: O_12  and  C_13
REMARK    9  A    between atoms: N_15  and  C_16
REMARK                            x       y       z     vdW  Elec       q    Type
REMARK                         _______ _______ _______ _____ _____    ______ ____
ROOT
ATOM      1  C   UNL     1       0.397   5.645  -6.106  0.00  0.00    +0.081 C 
ATOM      2  C   UNL     1       1.082   4.307  -5.930  0.00  0.00    +0.007 C 
ENDROOT
BRANCH   1   3
ATOM      3  C   UNL     1       1.352   6.576  -6.782  0.00  0.00    +0.214 C 
BRANCH   3   4
ATOM      4  O   UNL     1       1.292   6.554  -8.182  0.00  0.00    -0.433 OA
BRANCH   4   5
ATOM      5  C   UNL     1       2.341   5.964  -8.864  0.00  0.00    +0.421 C 
ATOM      6  N   UNL     1       3.679   6.428  -8.818  0.00  0.00    -0.170 NA
ATOM      7  O   UNL     1       2.122   4.940  -9.577  0.00  0.00    -0.225 OA
BRANCH   6   8
ATOM      8  C   UNL     1       4.661   6.052  -9.828  0.00  0.00    +0.099 C 
ATOM      9  C   UNL     1       5.892   5.554  -9.091  0.00  0.00    +0.024 C 
ATOM     10  C   UNL     1       5.035   7.215 -10.714  0.00  0.00    +0.024 C 
ENDBRANCH   6   8
ENDBRANCH   4   5
ENDBRANCH   3   4
ENDBRANCH   1   3
BRANCH   1  11
ATOM     11  C   UNL     1      -0.149   6.151  -4.805  0.00  0.00    +0.214 C 
BRANCH  11  12
ATOM     12  O   UNL     1       0.452   5.422  -3.747  0.00  0.00    -0.432 OA
BRANCH  12  13
ATOM     13  C   UNL     1      -0.254   5.194  -2.572  0.00  0.00    +0.441 C 
ATOM     14  O   UNL     1       0.285   4.632  -1.593  0.00  0.00    -0.223 OA
ATOM     15  N   UNL     1      -1.673   5.184  -2.665  0.00  0.00    -0.048 NA
ENDBRANCH  12  13
ENDBRANCH  11  12
ENDBRANCH   1  11
BRANCH   1  16
ATOM     16  C   UNL     1      -0.757   5.408  -7.073  0.00  0.00    +0.007 C 
BRANCH  16  18
ATOM     17  C   UNL     1      -2.517   5.521  -6.305  0.00  0.00    +0.000 C 
ATOM     18  C   UNL     1      -2.033   5.677  -6.283  0.00  0.00    +0.000 C 
ENDBRANCH  16  18
ENDBRANCH   1  16
TORSDOF 9
ENDMDL
MODEL 5
REMARK VINA RESULT:      -5.5      1.850      2.610
REMARK  Name = 
REMARK  9 active torsions:
REMARK  status: ('A' for Active; 'I' for Inactive)
REMARK    1  A    between atoms: C_2  and  C_3
REMARK    2  A    between atoms: C_3  and  C_4
REMARK    3  A    between atoms: C_4  and  C_6
REMARK    4  A    between atoms: C_4  and  C_11
REMARK    5  A    between atoms: C_6  and  O_7
REMARK    6  A    between atoms: O_7  and  C_8
REMARK    7  A    between atoms: C_11  and  O_12
REMARK    8  A    between atoms: O_12  and  C_13
REMARK    9  A    between atoms: N_15  and  C_16
REMARK                            x       y       z     vdW  Elec       q    Type
REMARK                         _______ _______ _______ _____ _____    ______ ____
ROOT
ATOM      1  C   UNL     1      -0.994   5.851  -4.941  0.00  0.00    +0.081 C 
ATOM      2  C   UNL     1      -1.998   5.567  -6.037  0.00  0.00    +0.007 C 
ENDROOT
BRANCH   1   3
ATOM      3  C   UNL     1       0.275   5.131  -5.269  0.00  0.00    +0.214 C 
BRANCH   3   4
ATOM      4  O   UNL     1       1.367   5.969  -5.531  0.00  0.00    -0.433 OA
BRANCH   4   5
ATOM      5  C   UNL     1       2.394   5.999  -4.605  0.00  0.00    +0.421 C 
ATOM      6  N   UNL     1       2.765   7.150  -3.866  0.00  0.00    -0.170 NA
ATOM      7  O   UNL     1       3.059   4.944  -4.378  0.00  0.00    -0.225 OA
BRANCH   6   8
ATOM      8  C   UNL     1       4.065   7.264  -3.216  0.00  0.00    +0.099 C 
ATOM      9  C   UNL     1       3.900   8.225  -2.053  0.00  0.00    +0.024 C 
ATOM     10  C   UNL     1       5.125   7.783  -4.158  0.00  0.00    +0.024 C 
ENDBRANCH   6   8
ENDBRANCH   4   5
ENDBRANCH   3   4
ENDBRANCH   1   3
BRANCH   1  11
ATOM     11  C   UNL     1      -1.558   5.531  -3.590  0.00  0.00    +0.214 C 
BRANCH  11  12
ATOM     12  O   UNL     1      -0.533   4.954  -2.796  0.00  0.00    -0.432 OA
BRANCH  12  13
ATOM     13  C   UNL     1      -0.023   5.652  -1.707  0.00  0.00    +0.441 C 
ATOM     14  O   UNL     1       0.860   5.151  -0.976  0.00  0.00    -0.223 OA
ATOM     15  N   UNL     1      -0.824   6.703  -1.183  0.00  0.00    -0.048 NA
ENDBRANCH  12  13
ENDBRANCH  11  12
ENDBRANCH   1  11
BRANCH   1  16
ATOM     16  C   UNL     1      -0.693   7.343  -5.015  0.00  0.00    +0.007 C 
BRANCH  16  18
ATOM     17  C   UNL     1      -2.038   8.531  -4.321  0.00  0.00    +0.000 C 
ATOM     18  C   UNL     1      -1.910   8.050  -4.428  0.00  0.00    +0.000 C 
ENDBRANCH  16  18
ENDBRANCH   1  16
TORSDOF 9
ENDMDL
MODEL 6
REMARK VINA RESULT:      -5.4      4.965      6.593
REMARK  Name = 
REMARK  9 active torsions:
REMARK  status: ('A' for Active; 'I' for Inactive)
REMARK    1  A    between atoms: C_2  and  C_3
REMARK    2  A    between atoms: C_3  and  C_4
REMARK    3  A    between atoms: C_4  and  C_6
REMARK    4  A    between atoms: C_4  and  C_11
REMARK    5  A    between atoms: C_6  and  O_7
REMARK    6  A    between atoms: O_7  and  C_8
REMARK    7  A    between atoms: C_11  and  O_12
REMARK    8  A    between atoms: O_12  and  C_13
REMARK    9  A    between atoms: N_15  and  C_16
REMARK                            x       y       z     vdW  Elec       q    Type
REMARK                         _______ _______ _______ _____ _____    ______ ____
ROOT
ATOM      1  C   UNL     1       0.776   5.544  -7.326  0.00  0.00    +0.081 C 
ATOM      2  C   UNL     1       1.325   6.899  -6.938  0.00  0.00    +0.007 C 
ENDROOT
BRANCH   1   3
ATOM      3  C   UNL     1       1.909   4.568  -7.351  0.00  0.00    +0.214 C 
BRANCH   3   4
ATOM      4  O   UNL     1       3.180   5.152  -7.258  0.00  0.00    -0.433 OA
BRANCH   4   5
ATOM      5  C   UNL     1       4.066   4.937  -8.297  0.00  0.00    +0.421 C 
ATOM      6  N   UNL     1       5.201   5.746  -8.554  0.00  0.00    -0.170 NA
ATOM      7  O   UNL     1       3.881   3.959  -9.082  0.00  0.00    -0.225 OA
BRANCH   6   8
ATOM      8  C   UNL     1       5.872   5.746  -9.849  0.00  0.00    +0.099 C 
ATOM      9  C   UNL     1       7.366   5.738  -9.578  0.00  0.00    +0.024 C 
ATOM     10  C   UNL     1       5.512   6.957 -10.673  0.00  0.00    +0.024 C 
ENDBRANCH   6   8
ENDBRANCH   4   5
ENDBRANCH   3   4
ENDBRANCH   1   3
BRANCH   1  11
ATOM     11  C   UNL     1      -0.007   5.618  -8.601  0.00  0.00    +0.214 C 
BRANCH  11  12
ATOM     12  O   UNL     1       0.759   5.028  -9.639  0.00  0.00    -0.432 OA
BRANCH  12  13
ATOM     13  C   UNL     1       1.023   5.744 -10.801  0.00  0.00    +0.441 C 
ATOM     14  O   UNL     1       2.195   6.026 -11.134  0.00  0.00    -0.223 OA
ATOM     15  N   UNL     1      -0.040   6.525 -11.332  0.00  0.00    -0.048 NA
ENDBRANCH  12  13
ENDBRANCH  11  12
ENDBRANCH   1  11
BRANCH   1  16
ATOM     16  C   UNL     1      -0.153   5.120  -6.194  0.00  0.00    +0.007 C 
BRANCH  16  18
ATOM     17  C   UNL     1      -2.025   5.498  -6.431  0.00  0.00    +0.000 C 
ATOM     18  C   UNL     1      -1.563   5.486  -6.645  0.00  0.00    +0.000 C 
ENDBRANCH  16  18
ENDBRANCH   1  16
TORSDOF 9
ENDMDL
MODEL 7
REMARK VINA RESULT:      -5.4      2.223      4.163
REMARK  Name = 
REMARK  9 active torsions:
REMARK  status: ('A' for Active; 'I' for Inactive)
REMARK    1  A    between atoms: C_2  and  C_3
REMARK    2  A    between atoms: C_3  and  C_4
REMARK    3  A    between atoms: C_4  and  C_6
REMARK    4  A    between atoms: C_4  and  C_11
REMARK    5  A    between atoms: C_6  and  O_7
REMARK    6  A    between atoms: O_7  and  C_8
REMARK    7  A    between atoms: C_11  and  O_12
REMARK    8  A    between atoms: O_12  and  C_13
REMARK    9  A    between atoms: N_15  and  C_16
REMARK                            x       y       z     vdW  Elec       q    Type
REMARK                         _______ _______ _______ _____ _____    ______ ____
ROOT
ATOM      1  C   UNL     1      -1.813   6.197  -4.774  0.00  0.00    +0.081 C 
ATOM      2  C   UNL     1      -2.035   7.694  -4.764  0.00  0.00    +0.007 C 
ENDROOT
BRANCH   1   3
ATOM      3  C   UNL     1      -0.548   5.905  -4.032  0.00  0.00    +0.214 C 
BRANCH   3   4
ATOM      4  O   UNL     1       0.487   6.821  -4.266  0.00  0.00    -0.433 OA
BRANCH   4   5
ATOM      5  C   UNL     1       1.787   6.383  -4.095  0.00  0.00    +0.421 C 
ATOM      6  N   UNL     1       2.931   7.200  -4.274  0.00  0.00    -0.170 NA
ATOM      7  O   UNL     1       2.000   5.182  -3.749  0.00  0.00    -0.225 OA
BRANCH   6   8
ATOM      8  C   UNL     1       4.259   6.635  -4.478  0.00  0.00    +0.099 C 
ATOM      9  C   UNL     1       5.264   7.716  -4.126  0.00  0.00    +0.024 C 
ATOM     10  C   UNL     1       4.472   6.188  -5.904  0.00  0.00    +0.024 C 
ENDBRANCH   6   8
ENDBRANCH   4   5
ENDBRANCH   3   4
ENDBRANCH   1   3
BRANCH   1  11
ATOM     11  C   UNL     1      -1.857   5.649  -6.168  0.00  0.00    +0.214 C 
BRANCH  11  12
ATOM     12  O   UNL     1      -0.657   4.931  -6.410  0.00  0.00    -0.432 OA
BRANCH  12  13
ATOM     13  C   UNL     1       0.173   5.302  -7.462  0.00  0.00    +0.441 C 
ATOM     14  O   UNL     1      -0.300   5.631  -8.572  0.00  0.00    -0.223 OA
ATOM     15  N   UNL     1       1.523   4.862  -7.403  0.00  0.00    -0.048 NA
ENDBRANCH  12  13
ENDBRANCH  11  12
ENDBRANCH   1  11
BRANCH   1  16
ATOM     16  C   UNL     1      -2.955   5.592  -3.964  0.00  0.00    +0.007 C 
BRANCH  16  18
ATOM     17  C   UNL     1      -3.462   6.531  -2.363  0.00  0.00    +0.000 C 
ATOM     18  C   UNL     1      -3.120   6.482  -2.736  0.00  0.00    +0.000 C 
ENDBRANCH  16  18
ENDBRANCH   1  16
TORSDOF 9
ENDMDL
MODEL 8
REMARK VINA RESULT:      -5.3      7.173     10.366
REMARK  Name = 
REMARK  9 active torsions:
REMARK  status: ('A' for Active; 'I' for Inactive)
REMARK    1  A    between atoms: C_2  and  C_3
REMARK    2  A    between atoms: C_3  and  C_4
REMARK    3  A    between atoms: C_4  and  C_6
REMARK    4  A    between atoms: C_4  and  C_11
REMARK    5  A    between atoms: C_6  and  O_7
REMARK    6  A    between atoms: O_7  and  C_8
REMARK    7  A    between atoms: C_11  and  O_12
REMARK    8  A    between atoms: O_12  and  C_13
REMARK    9  A    between atoms: N_15  and  C_16
REMARK                            x       y       z     vdW  Elec       q    Type
REMARK                         _______ _______ _______ _____ _____    ______ ____
ROOT
ATOM      1  C   UNL     1       6.215   6.445 -11.330  0.00  0.00    +0.081 C 
ATOM      2  C   UNL     1       5.420   7.696 -11.023  0.00  0.00    +0.007 C 
ENDROOT
BRANCH   1   3
ATOM      3  C   UNL     1       5.929   6.041 -12.741  0.00  0.00    +0.214 C 
BRANCH   3   4
ATOM      4  O   UNL     1       4.997   5.003 -12.870  0.00  0.00    -0.433 OA
BRANCH   4   5
ATOM      5  C   UNL     1       3.714   5.333 -13.266  0.00  0.00    +0.421 C 
ATOM      6  N   UNL     1       2.680   5.717 -12.376  0.00  0.00    -0.170 NA
ATOM      7  O   UNL     1       3.416   5.306 -14.498  0.00  0.00    -0.225 OA
BRANCH   6   8
ATOM      8  C   UNL     1       1.274   5.670 -12.758  0.00  0.00    +0.099 C 
ATOM      9  C   UNL     1       0.767   7.100 -12.771  0.00  0.00    +0.024 C 
ATOM     10  C   UNL     1       0.453   4.847 -11.795  0.00  0.00    +0.024 C 
ENDBRANCH   6   8
ENDBRANCH   4   5
ENDBRANCH   3   4
ENDBRANCH   1   3
BRANCH   1  11
ATOM     11  C   UNL     1       5.959   5.374 -10.313  0.00  0.00    +0.214 C 
BRANCH  11  12
ATOM     12  O   UNL     1       5.387   5.972  -9.160  0.00  0.00    -0.432 OA
BRANCH  12  13
ATOM     13  C   UNL     1       4.360   5.327  -8.480  0.00  0.00    +0.441 C 
ATOM     14  O   UNL     1       4.181   5.511  -7.256  0.00  0.00    -0.223 OA
ATOM     15  N   UNL     1       3.838   4.146  -9.073  0.00  0.00    -0.048 NA
ENDBRANCH  12  13
ENDBRANCH  11  12
ENDBRANCH   1  11
BRANCH   1  16
ATOM     16  C   UNL     1       7.684   6.849 -11.270  0.00  0.00    +0.007 C 
BRANCH  16  18
ATOM     17  C   UNL     1       8.922   5.750 -12.250  0.00  0.00    +0.000 C 
ATOM     18  C   UNL     1       8.436   5.839 -12.131  0.00  0.00    +0.000 C 
ENDBRANCH  16  18
ENDBRANCH   1  16
TORSDOF 9
ENDMDL
MODEL 9
REMARK VINA RESULT:      -5.3      2.755      5.188
REMARK  Name = 
REMARK  9 active torsions:
REMARK  status: ('A' for Active; 'I' for Inactive)
REMARK    1  A    between atoms: C_2  and  C_3
REMARK    2  A    between atoms: C_3  and  C_4
REMARK    3  A    between atoms: C_4  and  C_6
REMARK    4  A    between atoms: C_4  and  C_11
REMARK    5  A    between atoms: C_6  and  O_7
REMARK    6  A    between atoms: O_7  and  C_8
REMARK    7  A    between atoms: C_11  and  O_12
REMARK    8  A    between atoms: O_12  and  C_13
REMARK    9  A    between atoms: N_15  and  C_16
REMARK                            x       y       z     vdW  Elec       q    Type
REMARK                         _______ _______ _______ _____ _____    ______ ____
ROOT
ATOM      1  C   UNL     1       0.421   5.376  -6.098  0.00  0.00    +0.081 C 
ATOM      2  C   UNL     1       0.811   6.731  -6.648  0.00  0.00    +0.007 C 
ENDROOT
BRANCH   1   3
ATOM      3  C   UNL     1       0.079   5.537  -4.651  0.00  0.00    +0.214 C 
BRANCH   3   4
ATOM      4  O   UNL     1       0.711   6.619  -4.022  0.00  0.00    -0.433 OA
BRANCH   4   5
ATOM      5  C   UNL     1       1.935   6.391  -3.421  0.00  0.00    +0.421 C 
ATOM      6  N   UNL     1       3.176   6.809  -3.962  0.00  0.00    -0.170 NA
ATOM      7  O   UNL     1       1.980   5.779  -2.312  0.00  0.00    -0.225 OA
BRANCH   6   8
ATOM      8  C   UNL     1       4.441   6.225  -3.533  0.00  0.00    +0.099 C 
ATOM      9  C   UNL     1       5.532   7.227  -3.865  0.00  0.00    +0.024 C 
ATOM     10  C   UNL     1       4.725   4.915  -4.227  0.00  0.00    +0.024 C 
ENDBRANCH   6   8
ENDBRANCH   4   5
ENDBRANCH   3   4
ENDBRANCH   1   3
BRANCH   1  11
ATOM     11  C   UNL     1       1.478   4.351  -6.376  0.00  0.00    +0.214 C 
BRANCH  11  12
ATOM     12  O   UNL     1       2.578   4.993  -7.003  0.00  0.00    -0.432 OA
BRANCH  12  13
ATOM     13  C   UNL     1       3.106   4.475  -8.179  0.00  0.00    +0.441 C 
ATOM     14  O   UNL     1       2.614   3.456  -8.714  0.00  0.00    -0.223 OA
ATOM     15  N   UNL     1       4.447   4.826  -8.493  0.00  0.00    -0.048 NA
ENDBRANCH  12  13
ENDBRANCH  11  12
ENDBRANCH   1  11
BRANCH   1  16
ATOM     16  C   UNL     1      -0.862   4.978  -6.818  0.00  0.00    +0.007 C 
BRANCH  16  18
ATOM     17  C   UNL     1      -2.473   5.879  -6.275  0.00  0.00    +0.000 C 
ATOM     18  C   UNL     1      -1.973   5.819  -6.199  0.00  0.00    +0.000 C 
ENDBRANCH  16  18
ENDBRANCH   1  16
TORSDOF 9
ENDMDL
