MODEL 1
REMARK VINA RESULT:      -6.6      0.000      0.000
REMARK  Name = 
REMARK  9 active torsions:
REMARK  status: ('A' for Active; 'I' for Inactive)
REMARK    1  A    between atoms: C_2  and  C_3
REMARK    2  A    between atoms: C_3  and  C_4
REMARK    3  A    between atoms: C_4  and  O_5
REMARK    4  A    between atoms: O_5  and  C_6
REMARK    5  A    between atoms: C_9  and  O_10
REMARK    6  A    between atoms: O_10  and  C_11
REMARK    7  A    between atoms: C_11  and  C_12
REMARK    8  A    between atoms: C_12  and  C_13
REMARK    9  A    between atoms: C_13  and  N_14
REMARK                            x       y       z     vdW  Elec       q    Type
REMARK                         _______ _______ _______ _____ _____    ______ ____
ROOT
ATOM      1  C   UNL     1       4.087   5.928  -9.323  0.00  0.00    +0.139 A 
ATOM      2  C   UNL     1       3.752   4.591  -9.241  0.00  0.00    +0.040 A 
ATOM      3  C   UNL     1       2.712   4.238  -8.410  0.00  0.00    +0.040 A 
ATOM      4  C   UNL     1       1.901   5.222  -7.900  0.00  0.00    +0.139 A 
ATOM      5  C   UNL     1       1.867   6.416  -8.608  0.00  0.00    +0.040 A 
ATOM      6  C   UNL     1       3.065   6.853  -9.144  0.00  0.00    +0.040 A 
ENDROOT
BRANCH   1   7
ATOM      7  O   UNL     1       5.308   6.374  -9.802  0.00  0.00    -0.475 OA
BRANCH   7   8
ATOM      8  C   UNL     1       5.359   7.288 -10.883  0.00  0.00    +0.205 C 
BRANCH   8   9
ATOM      9  C   UNL     1       6.770   7.737 -11.151  0.00  0.00    +0.047 C 
BRANCH   9  11
ATOM     10  C   UNL     1       8.341   5.980 -11.748  0.00  0.00    +0.000 C 
ATOM     11  C   UNL     1       7.713   6.701 -10.570  0.00  0.00    +0.004 C 
ENDBRANCH   9  11
ENDBRANCH   8   9
ENDBRANCH   7   8
ENDBRANCH   1   7
BRANCH   4  12
ATOM     12  O   UNL     1       0.959   4.927  -6.908  0.00  0.00    -0.475 OA
BRANCH  12  13
ATOM     13  C   UNL     1       1.499   4.479  -5.666  0.00  0.00    +0.207 C 
BRANCH  13  14
ATOM     14  C   UNL     1       0.980   5.328  -4.512  0.00  0.00    +0.065 C 
BRANCH  14  15
ATOM     15  C   UNL     1      -0.528   5.425  -4.708  0.00  0.00    +0.076 C 
BRANCH  15  16
ATOM     16  N   UNL     1      -0.991   6.497  -3.846  0.00  0.00    -0.268 NA
ATOM     17  C   UNL     1      -2.416   6.615  -4.007  0.00  0.00    +0.105 C 
ATOM     18  C   UNL     1      -3.114   5.374  -3.525  0.00  0.00    +0.159 C 
ATOM     19  O   UNL     1      -2.455   4.730  -2.494  0.00  0.00    -0.351 OA
ATOM     20  C   UNL     1      -1.682   5.558  -1.708  0.00  0.00    +0.159 C 
ATOM     21  C   UNL     1      -0.622   6.305  -2.465  0.00  0.00    +0.105 C 
ENDBRANCH  15  16
ENDBRANCH  14  15
ENDBRANCH  13  14
ENDBRANCH  12  13
ENDBRANCH   4  12
TORSDOF 9
ENDMDL
MODEL 2
REMARK VINA RESULT:      -6.5      2.951      9.261
REMARK  Name = 
REMARK  9 active torsions:
REMARK  status: ('A' for Active; 'I' for Inactive)
REMARK    1  A    between atoms: C_2  and  C_3
REMARK    2  A    between atoms: C_3  and  C_4
REMARK    3  A    between atoms: C_4  and  O_5
REMARK    4  A    between atoms: O_5  and  C_6
REMARK    5  A    between atoms: C_9  and  O_10
REMARK    6  A    between atoms: O_10  and  C_11
REMARK    7  A    between atoms: C_11  and  C_12
REMARK    8  A    between atoms: C_12  and  C_13
REMARK    9  A    between atoms: C_13  and  N_14
REMARK                            x       y       z     vdW  Elec       q    Type
REMARK                         _______ _______ _______ _____ _____    ______ ____
ROOT
ATOM      1  C   UNL     1       1.334   5.342  -5.205  0.00  0.00    +0.139 A 
ATOM      2  C   UNL     1       1.752   6.513  -5.806  0.00  0.00    +0.040 A 
ATOM      3  C   UNL     1       2.754   6.430  -6.748  0.00  0.00    +0.040 A 
ATOM      4  C   UNL     1       3.117   5.197  -7.230  0.00  0.00    +0.139 A 
ATOM      5  C   UNL     1       2.166   4.191  -7.117  0.00  0.00    +0.040 A 
ATOM      6  C   UNL     1       1.414   4.177  -5.956  0.00  0.00    +0.040 A 
ENDROOT
BRANCH   1   7
ATOM      7  O   UNL     1       0.632   5.314  -4.011  0.00  0.00    -0.475 OA
BRANCH   7   8
ATOM      8  C   UNL     1      -0.397   6.256  -3.766  0.00  0.00    +0.205 C 
BRANCH   8   9
ATOM      9  C   UNL     1      -1.740   5.716  -4.177  0.00  0.00    +0.047 C 
BRANCH   9  11
ATOM     10  C   UNL     1      -2.093   5.568  -6.579  0.00  0.00    +0.000 C 
ATOM     11  C   UNL     1      -2.213   6.499  -5.386  0.00  0.00    +0.004 C 
ENDBRANCH   9  11
ENDBRANCH   8   9
ENDBRANCH   7   8
ENDBRANCH   1   7
BRANCH   4  12
ATOM     12  O   UNL     1       4.249   5.052  -8.039  0.00  0.00    -0.475 OA
BRANCH  12  13
ATOM     13  C   UNL     1       3.998   4.592  -9.366  0.00  0.00    +0.207 C 
BRANCH  13  14
ATOM     14  C   UNL     1       4.340   5.671 -10.387  0.00  0.00    +0.065 C 
BRANCH  14  15
ATOM     15  C   UNL     1       5.856   5.641 -10.536  0.00  0.00    +0.076 C 
BRANCH  15  16
ATOM     16  N   UNL     1       6.189   6.598 -11.574  0.00  0.00    -0.268 NA
ATOM     17  C   UNL     1       7.617   6.780 -11.573  0.00  0.00    +0.105 C 
ATOM     18  C   UNL     1       8.319   5.506 -11.950  0.00  0.00    +0.159 C 
ATOM     19  O   UNL     1       7.595   4.708 -12.817  0.00  0.00    -0.351 OA
ATOM     20  C   UNL     1       6.718   5.396 -13.626  0.00  0.00    +0.159 C 
ATOM     21  C   UNL     1       5.701   6.208 -12.875  0.00  0.00    +0.105 C 
ENDBRANCH  15  16
ENDBRANCH  14  15
ENDBRANCH  13  14
ENDBRANCH  12  13
ENDBRANCH   4  12
TORSDOF 9
ENDMDL
MODEL 3
REMARK VINA RESULT:      -6.3      3.382      7.496
REMARK  Name = 
REMARK  9 active torsions:
REMARK  status: ('A' for Active; 'I' for Inactive)
REMARK    1  A    between atoms: C_2  and  C_3
REMARK    2  A    between atoms: C_3  and  C_4
REMARK    3  A    between atoms: C_4  and  O_5
REMARK    4  A    between atoms: O_5  and  C_6
REMARK    5  A    between atoms: C_9  and  O_10
REMARK    6  A    between atoms: O_10  and  C_11
REMARK    7  A    between atoms: C_11  and  C_12
REMARK    8  A    between atoms: C_12  and  C_13
REMARK    9  A    between atoms: C_13  and  N_14
REMARK                            x       y       z     vdW  Elec       q    Type
REMARK                         _______ _______ _______ _____ _____    ______ ____
ROOT
ATOM      1  C   UNL     1      -1.628   6.018  -5.489  0.00  0.00    +0.139 A 
ATOM      2  C   UNL     1      -0.622   6.910  -5.171  0.00  0.00    +0.040 A 
ATOM      3  C   UNL     1       0.632   6.677  -5.692  0.00  0.00    +0.040 A 
ATOM      4  C   UNL     1       0.780   5.739  -6.683  0.00  0.00    +0.139 A 
ATOM      5  C   UNL     1      -0.359   5.442  -7.421  0.00  0.00    +0.040 A 
ATOM      6  C   UNL     1      -1.552   5.385  -6.723  0.00  0.00    +0.040 A 
ENDROOT
BRANCH   1   7
ATOM      7  O   UNL     1      -2.800   5.911  -4.760  0.00  0.00    -0.475 OA
BRANCH   7   8
ATOM      8  C   UNL     1      -2.788   5.323  -3.471  0.00  0.00    +0.205 C 
BRANCH   8   9
ATOM      9  C   UNL     1      -3.297   6.281  -2.429  0.00  0.00    +0.047 C 
BRANCH   9  11
ATOM     10  C   UNL     1      -1.068   5.773  -1.601  0.00  0.00    +0.000 C 
ATOM     11  C   UNL     1      -2.101   6.879  -1.714  0.00  0.00    +0.004 C 
ENDBRANCH   9  11
ENDBRANCH   8   9
ENDBRANCH   7   8
ENDBRANCH   1   7
BRANCH   4  12
ATOM     12  O   UNL     1       2.053   5.338  -7.102  0.00  0.00    -0.475 OA
BRANCH  12  13
ATOM     13  C   UNL     1       3.056   6.352  -7.066  0.00  0.00    +0.207 C 
BRANCH  13  14
ATOM     14  C   UNL     1       4.220   5.932  -6.177  0.00  0.00    +0.065 C 
BRANCH  14  15
ATOM     15  C   UNL     1       4.373   7.035  -5.138  0.00  0.00    +0.076 C 
BRANCH  15  16
ATOM     16  N   UNL     1       4.930   6.414  -3.951  0.00  0.00    -0.268 NA
ATOM     17  C   UNL     1       4.949   7.396  -2.899  0.00  0.00    +0.105 C 
ATOM     18  C   UNL     1       3.553   7.808  -2.526  0.00  0.00    +0.159 C 
ATOM     19  O   UNL     1       2.613   6.808  -2.698  0.00  0.00    -0.351 OA
ATOM     20  C   UNL     1       3.116   5.530  -2.587  0.00  0.00    +0.159 C 
ATOM     21  C   UNL     1       4.221   5.221  -3.556  0.00  0.00    +0.105 C 
ENDBRANCH  15  16
ENDBRANCH  14  15
ENDBRANCH  13  14
ENDBRANCH  12  13
ENDBRANCH   4  12
TORSDOF 9
ENDMDL
MODEL 4
REMARK VINA RESULT:      -6.3      2.223      3.390
REMARK  Name = 
REMARK  9 active torsions:
REMARK  status: ('A' for Active; 'I' for Inactive)
REMARK    1  A    between atoms: C_2  and  C_3
REMARK    2  A    between atoms: C_3  and  C_4
REMARK    3  A    between atoms: C_4  and  O_5
REMARK    4  A    between atoms: O_5  and  C_6
REMARK    5  A    between atoms: C_9  and  O_10
REMARK    6  A    between atoms: O_10  and  C_11
REMARK    7  A    between atoms: C_11  and  C_12
REMARK    8  A    between atoms: C_12  and  C_13
REMARK    9  A    between atoms: C_13  and  N_14
REMARK                            x       y       z     vdW  Elec       q    Type
REMARK                         _______ _______ _______ _____ _____    ______ ____
ROOT
ATOM      1  C   UNL     1       3.452   6.188  -9.106  0.00  0.00    +0.139 A 
ATOM      2  C   UNL     1       2.759   7.244  -8.549  0.00  0.00    +0.040 A 
ATOM      3  C   UNL     1       2.550   7.229  -7.187  0.00  0.00    +0.040 A 
ATOM      4  C   UNL     1       3.234   6.323  -6.416  0.00  0.00    +0.139 A 
ATOM      5  C   UNL     1       4.413   5.826  -6.957  0.00  0.00    +0.040 A 
ATOM      6  C   UNL     1       4.411   5.568  -8.316  0.00  0.00    +0.040 A 
ENDROOT
BRANCH   1   7
ATOM      7  O   UNL     1       3.409   5.885 -10.457  0.00  0.00    -0.475 OA
BRANCH   7   8
ATOM      8  C   UNL     1       2.306   6.297 -11.245  0.00  0.00    +0.205 C 
BRANCH   8   9
ATOM      9  C   UNL     1       1.250   5.228 -11.308  0.00  0.00    +0.047 C 
BRANCH   9  11
ATOM     10  C   UNL     1      -0.240   7.146 -11.195  0.00  0.00    +0.000 C 
ATOM     11  C   UNL     1       0.002   5.758 -10.631  0.00  0.00    +0.004 C 
ENDBRANCH   9  11
ENDBRANCH   8   9
ENDBRANCH   7   8
ENDBRANCH   1   7
BRANCH   4  12
ATOM     12  O   UNL     1       2.912   6.146  -5.066  0.00  0.00    -0.475 OA
BRANCH  12  13
ATOM     13  C   UNL     1       1.626   6.624  -4.677  0.00  0.00    +0.207 C 
BRANCH  13  14
ATOM     14  C   UNL     1       0.871   5.565  -3.883  0.00  0.00    +0.065 C 
BRANCH  14  15
ATOM     15  C   UNL     1      -0.579   5.653  -4.342  0.00  0.00    +0.076 C 
BRANCH  15  16
ATOM     16  N   UNL     1      -1.217   6.658  -3.514  0.00  0.00    -0.268 NA
ATOM     17  C   UNL     1      -2.616   6.692  -3.849  0.00  0.00    +0.105 C 
ATOM     18  C   UNL     1      -3.282   5.391  -3.498  0.00  0.00    +0.159 C 
ATOM     19  O   UNL     1      -2.715   4.752  -2.411  0.00  0.00    -0.351 OA
ATOM     20  C   UNL     1      -2.103   5.595  -1.509  0.00  0.00    +0.159 C 
ATOM     21  C   UNL     1      -1.010   6.437  -2.103  0.00  0.00    +0.105 C 
ENDBRANCH  15  16
ENDBRANCH  14  15
ENDBRANCH  13  14
ENDBRANCH  12  13
ENDBRANCH   4  12
TORSDOF 9
ENDMDL
MODEL 5
REMARK VINA RESULT:      -6.2      3.950      9.124
REMARK  Name = 
REMARK  9 active torsions:
REMARK  status: ('A' for Active; 'I' for Inactive)
REMARK    1  A    between atoms: C_2  and  C_3
REMARK    2  A    between atoms: C_3  and  C_4
REMARK    3  A    between atoms: C_4  and  O_5
REMARK    4  A    between atoms: O_5  and  C_6
REMARK    5  A    between atoms: C_9  and  O_10
REMARK    6  A    between atoms: O_10  and  C_11
REMARK    7  A    between atoms: C_11  and  C_12
REMARK    8  A    between atoms: C_12  and  C_13
REMARK    9  A    between atoms: C_13  and  N_14
REMARK                            x       y       z     vdW  Elec       q    Type
REMARK                         _______ _______ _______ _____ _____    ______ ____
ROOT
ATOM      1  C   UNL     1       0.064   5.975 -10.523  0.00  0.00    +0.139 A 
ATOM      2  C   UNL     1      -0.043   7.072 -11.355  0.00  0.00    +0.040 A 
ATOM      3  C   UNL     1       0.604   7.022 -12.571  0.00  0.00    +0.040 A 
ATOM      4  C   UNL     1       1.106   5.824 -13.012  0.00  0.00    +0.139 A 
ATOM      5  C   UNL     1       0.532   4.682 -12.468  0.00  0.00    +0.040 A 
ATOM      6  C   UNL     1       0.207   4.731 -11.125  0.00  0.00    +0.040 A 
ENDROOT
BRANCH   1   7
ATOM      7  O   UNL     1      -0.201   6.028  -9.165  0.00  0.00    -0.475 OA
BRANCH   7   8
ATOM      8  C   UNL     1       0.705   5.456  -8.239  0.00  0.00    +0.205 C 
BRANCH   8   9
ATOM      9  C   UNL     1       0.093   5.352  -6.869  0.00  0.00    +0.047 C 
BRANCH   9  11
ATOM     10  C   UNL     1      -2.030   5.906  -5.822  0.00  0.00    +0.000 C 
ATOM     11  C   UNL     1      -1.410   5.233  -7.032  0.00  0.00    +0.004 C 
ENDBRANCH   9  11
ENDBRANCH   8   9
ENDBRANCH   7   8
ENDBRANCH   1   7
BRANCH   4  12
ATOM     12  O   UNL     1       1.929   5.768 -14.141  0.00  0.00    -0.475 OA
BRANCH  12  13
ATOM     13  C   UNL     1       3.101   4.966 -14.005  0.00  0.00    +0.207 C 
BRANCH  13  14
ATOM     14  C   UNL     1       4.351   5.836 -13.952  0.00  0.00    +0.065 C 
BRANCH  14  15
ATOM     15  C   UNL     1       5.133   5.370 -12.730  0.00  0.00    +0.076 C 
BRANCH  15  16
ATOM     16  N   UNL     1       6.495   5.838 -12.906  0.00  0.00    -0.268 NA
ATOM     17  C   UNL     1       6.520   7.252 -12.638  0.00  0.00    +0.105 C 
ATOM     18  C   UNL     1       6.176   7.530 -11.202  0.00  0.00    +0.159 C 
ATOM     19  O   UNL     1       6.557   6.524 -10.334  0.00  0.00    -0.351 OA
ATOM     20  C   UNL     1       7.641   5.786 -10.758  0.00  0.00    +0.159 C 
ATOM     21  C   UNL     1       7.445   5.122 -12.090  0.00  0.00    +0.105 C 
ENDBRANCH  15  16
ENDBRANCH  14  15
ENDBRANCH  13  14
ENDBRANCH  12  13
ENDBRANCH   4  12
TORSDOF 9
ENDMDL
MODEL 6
REMARK VINA RESULT:      -6.1      2.272      3.745
REMARK  Name = 
REMARK  9 active torsions:
REMARK  status: ('A' for Active; 'I' for Inactive)
REMARK    1  A    between atoms: C_2  and  C_3
REMARK    2  A    between atoms: C_3  and  C_4
REMARK    3  A    between atoms: C_4  and  O_5
REMARK    4  A    between atoms: O_5  and  C_6
REMARK    5  A    between atoms: C_9  and  O_10
REMARK    6  A    between atoms: O_10  and  C_11
REMARK    7  A    between atoms: C_11  and  C_12
REMARK    8  A    between atoms: C_12  and  C_13
REMARK    9  A    between atoms: C_13  and  N_14
REMARK                            x       y       z     vdW  Elec       q    Type
REMARK                         _______ _______ _______ _____ _____    ______ ____
ROOT
ATOM      1  C   UNL     1       3.112   5.592  -9.544  0.00  0.00    +0.139 A 
ATOM      2  C   UNL     1       2.587   6.659  -8.842  0.00  0.00    +0.040 A 
ATOM      3  C   UNL     1       1.620   6.394  -7.897  0.00  0.00    +0.040 A 
ATOM      4  C   UNL     1       1.398   5.094  -7.515  0.00  0.00    +0.139 A 
ATOM      5  C   UNL     1       2.446   4.207  -7.724  0.00  0.00    +0.040 A 
ATOM      6  C   UNL     1       3.170   4.367  -8.891  0.00  0.00    +0.040 A 
ENDROOT
BRANCH   1   7
ATOM      7  O   UNL     1       3.786   5.736 -10.745  0.00  0.00    -0.475 OA
BRANCH   7   8
ATOM      8  C   UNL     1       5.191   5.919 -10.757  0.00  0.00    +0.205 C 
BRANCH   8   9
ATOM      9  C   UNL     1       5.554   7.336 -11.106  0.00  0.00    +0.047 C 
BRANCH   9  11
ATOM     10  C   UNL     1       7.499   6.315 -10.063  0.00  0.00    +0.000 C 
ATOM     11  C   UNL     1       7.043   7.511 -10.879  0.00  0.00    +0.004 C 
ENDBRANCH   9  11
ENDBRANCH   8   9
ENDBRANCH   7   8
ENDBRANCH   1   7
BRANCH   4  12
ATOM     12  O   UNL     1       0.305   4.765  -6.706  0.00  0.00    -0.475 OA
BRANCH  12  13
ATOM     13  C   UNL     1       0.075   5.639  -5.603  0.00  0.00    +0.207 C 
BRANCH  13  14
ATOM     14  C   UNL     1       0.958   5.263  -4.420  0.00  0.00    +0.065 C 
BRANCH  14  15
ATOM     15  C   UNL     1       1.778   6.506  -4.097  0.00  0.00    +0.076 C 
BRANCH  15  16
ATOM     16  N   UNL     1       2.979   6.048  -3.425  0.00  0.00    -0.268 NA
ATOM     17  C   UNL     1       3.852   5.471  -4.413  0.00  0.00    +0.105 C 
ATOM     18  C   UNL     1       4.308   6.510  -5.398  0.00  0.00    +0.159 C 
ATOM     19  O   UNL     1       4.403   7.781  -4.861  0.00  0.00    -0.351 OA
ATOM     20  C   UNL     1       4.660   7.809  -3.507  0.00  0.00    +0.159 C 
ATOM     21  C   UNL     1       3.635   7.092  -2.675  0.00  0.00    +0.105 C 
ENDBRANCH  15  16
ENDBRANCH  14  15
ENDBRANCH  13  14
ENDBRANCH  12  13
ENDBRANCH   4  12
TORSDOF 9
ENDMDL
MODEL 7
REMARK VINA RESULT:      -6.0      3.392      3.896
REMARK  Name = 
REMARK  9 active torsions:
REMARK  status: ('A' for Active; 'I' for Inactive)
REMARK    1  A    between atoms: C_2  and  C_3
REMARK    2  A    between atoms: C_3  and  C_4
REMARK    3  A    between atoms: C_4  and  O_5
REMARK    4  A    between atoms: O_5  and  C_6
REMARK    5  A    between atoms: C_9  and  O_10
REMARK    6  A    between atoms: O_10  and  C_11
REMARK    7  A    between atoms: C_11  and  C_12
REMARK    8  A    between atoms: C_12  and  C_13
REMARK    9  A    between atoms: C_13  and  N_14
REMARK                            x       y       z     vdW  Elec       q    Type
REMARK                         _______ _______ _______ _____ _____    ______ ____
ROOT
ATOM      1  C   UNL     1       3.672   5.798  -9.943  0.00  0.00    +0.139 A 
ATOM      2  C   UNL     1       4.066   4.977  -8.905  0.00  0.00    +0.040 A 
ATOM      3  C   UNL     1       4.016   5.488  -7.626  0.00  0.00    +0.040 A 
ATOM      4  C   UNL     1       3.357   6.672  -7.405  0.00  0.00    +0.139 A 
ATOM      5  C   UNL     1       2.398   7.024  -8.346  0.00  0.00    +0.040 A 
ATOM      6  C   UNL     1       2.697   6.748  -9.668  0.00  0.00    +0.040 A 
ENDROOT
BRANCH   1   7
ATOM      7  O   UNL     1       4.017   5.564 -11.264  0.00  0.00    -0.475 OA
BRANCH   7   8
ATOM      8  C   UNL     1       5.367   5.669 -11.677  0.00  0.00    +0.205 C 
BRANCH   8   9
ATOM      9  C   UNL     1       5.966   6.984 -11.261  0.00  0.00    +0.047 C 
BRANCH   9  11
ATOM     10  C   UNL     1       7.461   6.101  -9.559  0.00  0.00    +0.000 C 
ATOM     11  C   UNL     1       7.427   6.754 -10.929  0.00  0.00    +0.004 C 
ENDBRANCH   9  11
ENDBRANCH   8   9
ENDBRANCH   7   8
ENDBRANCH   1   7
BRANCH   4  12
ATOM     12  O   UNL     1       3.445   7.317  -6.167  0.00  0.00    -0.475 OA
BRANCH  12  13
ATOM     13  C   UNL     1       4.350   6.730  -5.235  0.00  0.00    +0.207 C 
BRANCH  13  14
ATOM     14  C   UNL     1       4.774   7.743  -4.178  0.00  0.00    +0.065 C 
BRANCH  14  15
ATOM     15  C   UNL     1       4.671   7.020  -2.840  0.00  0.00    +0.076 C 
BRANCH  15  16
ATOM     16  N   UNL     1       3.559   7.622  -2.129  0.00  0.00    -0.268 NA
ATOM     17  C   UNL     1       2.571   6.600  -1.898  0.00  0.00    +0.105 C 
ATOM     18  C   UNL     1       3.108   5.532  -0.988  0.00  0.00    +0.159 C 
ATOM     19  O   UNL     1       4.038   5.996  -0.075  0.00  0.00    -0.351 OA
ATOM     20  C   UNL     1       3.888   7.323   0.266  0.00  0.00    +0.159 C 
ATOM     21  C   UNL     1       3.959   8.265  -0.901  0.00  0.00    +0.105 C 
ENDBRANCH  15  16
ENDBRANCH  14  15
ENDBRANCH  13  14
ENDBRANCH  12  13
ENDBRANCH   4  12
TORSDOF 9
ENDMDL
MODEL 8
REMARK VINA RESULT:      -6.0      3.134      8.169
REMARK  Name = 
REMARK  9 active torsions:
REMARK  status: ('A' for Active; 'I' for Inactive)
REMARK    1  A    between atoms: C_2  and  C_3
REMARK    2  A    between atoms: C_3  and  C_4
REMARK    3  A    between atoms: C_4  and  O_5
REMARK    4  A    between atoms: O_5  and  C_6
REMARK    5  A    between atoms: C_9  and  O_10
REMARK    6  A    between atoms: O_10  and  C_11
REMARK    7  A    between atoms: C_11  and  C_12
REMARK    8  A    between atoms: C_12  and  C_13
REMARK    9  A    between atoms: C_13  and  N_14
REMARK                            x       y       z     vdW  Elec       q    Type
REMARK                         _______ _______ _______ _____ _____    ______ ____
ROOT
ATOM      1  C   UNL     1      -0.112   6.657  -5.255  0.00  0.00    +0.139 A 
ATOM      2  C   UNL     1      -0.542   5.640  -6.085  0.00  0.00    +0.040 A 
ATOM      3  C   UNL     1       0.416   4.884  -6.725  0.00  0.00    +0.040 A 
ATOM      4  C   UNL     1       1.727   4.994  -6.333  0.00  0.00    +0.139 A 
ATOM      5  C   UNL     1       1.943   5.469  -5.045  0.00  0.00    +0.040 A 
ATOM      6  C   UNL     1       1.105   6.479  -4.608  0.00  0.00    +0.040 A 
ENDROOT
BRANCH   1   7
ATOM      7  O   UNL     1      -0.925   7.705  -4.860  0.00  0.00    -0.475 OA
BRANCH   7   8
ATOM      8  C   UNL     1      -2.209   7.448  -4.319  0.00  0.00    +0.205 C 
BRANCH   8   9
ATOM      9  C   UNL     1      -2.178   7.453  -2.816  0.00  0.00    +0.047 C 
BRANCH   9  11
ATOM     10  C   UNL     1      -3.153   5.320  -3.459  0.00  0.00    +0.000 C 
ATOM     11  C   UNL     1      -2.430   6.038  -2.334  0.00  0.00    +0.004 C 
ENDBRANCH   9  11
ENDBRANCH   8   9
ENDBRANCH   7   8
ENDBRANCH   1   7
BRANCH   4  12
ATOM     12  O   UNL     1       2.747   4.392  -7.076  0.00  0.00    -0.475 OA
BRANCH  12  13
ATOM     13  C   UNL     1       2.475   4.227  -8.467  0.00  0.00    +0.207 C 
BRANCH  13  14
ATOM     14  C   UNL     1       3.126   5.337  -9.282  0.00  0.00    +0.065 C 
BRANCH  14  15
ATOM     15  C   UNL     1       1.981   6.124  -9.908  0.00  0.00    +0.076 C 
BRANCH  15  16
ATOM     16  N   UNL     1       1.473   5.319 -11.002  0.00  0.00    -0.268 NA
ATOM     17  C   UNL     1       0.034   5.352 -10.950  0.00  0.00    +0.105 C 
ATOM     18  C   UNL     1      -0.478   6.743 -11.195  0.00  0.00    +0.159 C 
ATOM     19  O   UNL     1       0.330   7.495 -12.028  0.00  0.00    -0.351 OA
ATOM     20  C   UNL     1       1.067   6.754 -12.927  0.00  0.00    +0.159 C 
ATOM     21  C   UNL     1       1.972   5.740 -12.288  0.00  0.00    +0.105 C 
ENDBRANCH  15  16
ENDBRANCH  14  15
ENDBRANCH  13  14
ENDBRANCH  12  13
ENDBRANCH   4  12
TORSDOF 9
ENDMDL
MODEL 9
REMARK VINA RESULT:      -5.9      1.500      1.978
REMARK  Name = 
REMARK  9 active torsions:
REMARK  status: ('A' for Active; 'I' for Inactive)
REMARK    1  A    between atoms: C_2  and  C_3
REMARK    2  A    between atoms: C_3  and  C_4
REMARK    3  A    between atoms: C_4  and  O_5
REMARK    4  A    between atoms: O_5  and  C_6
REMARK    5  A    between atoms: C_9  and  O_10
REMARK    6  A    between atoms: O_10  and  C_11
REMARK    7  A    between atoms: C_11  and  C_12
REMARK    8  A    between atoms: C_12  and  C_13
REMARK    9  A    between atoms: C_13  and  N_14
REMARK                            x       y       z     vdW  Elec       q    Type
REMARK                         _______ _______ _______ _____ _____    ______ ____
ROOT
ATOM      1  C   UNL     1       3.245   6.382  -9.996  0.00  0.00    +0.139 A 
ATOM      2  C   UNL     1       3.701   6.372  -8.693  0.00  0.00    +0.040 A 
ATOM      3  C   UNL     1       2.762   6.364  -7.684  0.00  0.00    +0.040 A 
ATOM      4  C   UNL     1       1.448   6.117  -7.995  0.00  0.00    +0.139 A 
ATOM      5  C   UNL     1       1.219   5.431  -9.181  0.00  0.00    +0.040 A 
ATOM      6  C   UNL     1       2.032   5.755 -10.252  0.00  0.00    +0.040 A 
ENDROOT
BRANCH   1   7
ATOM      7  O   UNL     1       4.034   6.764 -11.069  0.00  0.00    -0.475 OA
BRANCH   7   8
ATOM      8  C   UNL     1       5.310   7.336 -10.849  0.00  0.00    +0.205 C 
BRANCH   8   9
ATOM      9  C   UNL     1       6.362   6.667 -11.690  0.00  0.00    +0.047 C 
BRANCH   9  11
ATOM     10  C   UNL     1       7.313   5.879  -9.595  0.00  0.00    +0.000 C 
ATOM     11  C   UNL     1       7.645   6.609 -10.884  0.00  0.00    +0.004 C 
ENDBRANCH   9  11
ENDBRANCH   8   9
ENDBRANCH   7   8
ENDBRANCH   1   7
BRANCH   4  12
ATOM     12  O   UNL     1       0.444   6.287  -7.037  0.00  0.00    -0.475 OA
BRANCH  12  13
ATOM     13  C   UNL     1      -0.386   5.149  -6.812  0.00  0.00    +0.207 C 
BRANCH  13  14
ATOM     14  C   UNL     1      -1.807   5.574  -6.464  0.00  0.00    +0.065 C 
BRANCH  14  15
ATOM     15  C   UNL     1      -1.710   6.311  -5.134  0.00  0.00    +0.076 C 
BRANCH  15  16
ATOM     16  N   UNL     1      -1.958   5.329  -4.096  0.00  0.00    -0.268 NA
ATOM     17  C   UNL     1      -0.971   5.511  -3.064  0.00  0.00    +0.105 C 
ATOM     18  C   UNL     1      -1.128   6.851  -2.403  0.00  0.00    +0.159 C 
ATOM     19  O   UNL     1      -2.432   7.310  -2.381  0.00  0.00    -0.351 OA
ATOM     20  C   UNL     1      -3.386   6.316  -2.388  0.00  0.00    +0.159 C 
ATOM     21  C   UNL     1      -3.300   5.393  -3.570  0.00  0.00    +0.105 C 
ENDBRANCH  15  16
ENDBRANCH  14  15
ENDBRANCH  13  14
ENDBRANCH  12  13
ENDBRANCH   4  12
TORSDOF 9
ENDMDL
