MODEL 1
REMARK VINA RESULT:      -8.9      0.000      0.000
REMARK  Name = 
REMARK  9 active torsions:
REMARK  status: ('A' for Active; 'I' for Inactive)
REMARK    1  A    between atoms: C_3  and  C_4
REMARK    2  A    between atoms: C_4  and  C_5
REMARK    3  A    between atoms: C_5  and  C_7
REMARK    4  A    between atoms: C_7  and  C_9
REMARK    5  A    between atoms: C_10  and  C_11
REMARK    6  A    between atoms: C_18  and  C_19
REMARK    7  A    between atoms: C_19  and  C_20
REMARK    8  A    between atoms: C_20  and  C_21
REMARK    9  A    between atoms: C_21  and  C_22
REMARK                            x       y       z     vdW  Elec       q    Type
REMARK                         _______ _______ _______ _____ _____    ______ ____
ROOT
ATOM      1  C   UNL     1       1.993   6.466  -5.312  0.00  0.00    +0.052 C 
ATOM      2  C   UNL     1       2.702   6.936  -6.747  0.00  0.00    +0.011 C 
ATOM      3  C   UNL     1       1.769   5.915  -7.693  0.00  0.00    +0.007 C 
ATOM      4  C   UNL     1       2.863   6.050  -8.893  0.00  0.00    +0.022 C 
ATOM      5  C   UNL     1       4.117   5.728  -8.194  0.00  0.00    -0.048 C 
ATOM      6  C   UNL     1       5.059   5.136  -8.920  0.00  0.00    -0.035 C 
ATOM      7  C   UNL     1       2.492   4.657  -7.020  0.00  0.00    +0.034 C 
ATOM      8  C   UNL     1       4.017   6.001  -6.738  0.00  0.00    +0.022 C 
ATOM      9  C   UNL     1       1.954   4.783  -5.503  0.00  0.00    +0.156 C 
ATOM     10  O   UNL     1       3.340   4.616  -4.894  0.00  0.00    -0.223 OA
ENDROOT
BRANCH   1  12
ATOM     11  C   UNL     1      -0.371   7.330  -5.167  0.00  0.00    +0.002 C 
ATOM     12  C   UNL     1       0.502   6.622  -5.862  0.00  0.00    -0.026 C 
BRANCH  11  13
ATOM     13  C   UNL     1      -1.836   6.633  -5.107  0.00  0.00    +0.175 C 
ATOM     14  O   UNL     1      -1.299   5.396  -5.801  0.00  0.00    -0.218 OA
BRANCH  13  15
ATOM     15  C   UNL     1      -1.688   6.013  -3.512  0.00  0.00    +0.048 C 
ATOM     16  C   UNL     1      -3.127   5.278  -3.429  0.00  0.00    +0.004 C 
BRANCH  15  17
ATOM     17  C   UNL     1      -2.244   7.368  -2.844  0.00  0.00    +0.079 C 
BRANCH  17  20
ATOM     18  C   UNL     1      -1.669   8.052   0.406  0.00  0.00    +0.090 C 
ATOM     19  C   UNL     1      -1.828   7.740  -0.320  0.00  0.00    -0.090 C 
ATOM     20  C   UNL     1      -2.014   7.255  -1.409  0.00  0.00    -0.091 C 
ENDBRANCH  17  20
ENDBRANCH  15  17
ENDBRANCH  13  15
ENDBRANCH  11  13
ENDBRANCH   1  12
BRANCH   6  21
ATOM     21  C   UNL     1       5.806   6.074  -9.744  0.00  0.00    +0.026 C 
BRANCH  21  22
ATOM     22  C   UNL     1       7.276   5.898  -9.850  0.00  0.00    +0.016 C 
BRANCH  22  23
ATOM     23  C   UNL     1       7.631   6.649 -11.130  0.00  0.00    +0.114 C 
BRANCH  23  24
ATOM     24  C   UNL     1       8.342   5.739 -12.046  0.00  0.00    +0.365 C 
ATOM     25  O   UNL     1       7.707   4.587 -12.445  0.00  0.00    -0.246 OA
ATOM     26  O   UNL     1       9.589   5.855 -12.187  0.00  0.00    -0.246 OA
ENDBRANCH  23  24
ENDBRANCH  22  23
ENDBRANCH  21  22
ENDBRANCH   6  21
TORSDOF 9
ENDMDL
MODEL 2
REMARK VINA RESULT:      -8.8      1.711      2.907
REMARK  Name = 
REMARK  9 active torsions:
REMARK  status: ('A' for Active; 'I' for Inactive)
REMARK    1  A    between atoms: C_3  and  C_4
REMARK    2  A    between atoms: C_4  and  C_5
REMARK    3  A    between atoms: C_5  and  C_7
REMARK    4  A    between atoms: C_7  and  C_9
REMARK    5  A    between atoms: C_10  and  C_11
REMARK    6  A    between atoms: C_18  and  C_19
REMARK    7  A    between atoms: C_19  and  C_20
REMARK    8  A    between atoms: C_20  and  C_21
REMARK    9  A    between atoms: C_21  and  C_22
REMARK                            x       y       z     vdW  Elec       q    Type
REMARK                         _______ _______ _______ _____ _____    ______ ____
ROOT
ATOM      1  C   UNL     1       2.618   6.650  -4.254  0.00  0.00    +0.052 C 
ATOM      2  C   UNL     1       2.896   6.656  -5.899  0.00  0.00    +0.011 C 
ATOM      3  C   UNL     1       2.384   5.077  -6.123  0.00  0.00    +0.007 C 
ATOM      4  C   UNL     1       3.176   5.035  -7.546  0.00  0.00    +0.022 C 
ATOM      5  C   UNL     1       4.518   5.495  -7.156  0.00  0.00    -0.048 C 
ATOM      6  C   UNL     1       5.535   5.003  -7.856  0.00  0.00    -0.035 C 
ATOM      7  C   UNL     1       3.641   4.565  -5.277  0.00  0.00    +0.034 C 
ATOM      8  C   UNL     1       4.475   6.324  -5.925  0.00  0.00    +0.022 C 
ATOM      9  C   UNL     1       3.274   5.150  -3.817  0.00  0.00    +0.156 C 
ATOM     10  O   UNL     1       4.658   5.745  -3.599  0.00  0.00    -0.223 OA
ENDROOT
BRANCH   1  12
ATOM     11  C   UNL     1       0.111   6.764  -4.016  0.00  0.00    +0.002 C 
ATOM     12  C   UNL     1       1.150   6.036  -4.386  0.00  0.00    -0.026 C 
BRANCH  11  13
ATOM     13  C   UNL     1      -0.995   5.904  -3.195  0.00  0.00    +0.175 C 
ATOM     14  O   UNL     1      -0.898   6.860  -2.021  0.00  0.00    -0.218 OA
BRANCH  13  15
ATOM     15  C   UNL     1      -2.375   6.643  -3.903  0.00  0.00    +0.048 C 
ATOM     16  C   UNL     1      -3.417   6.358  -2.698  0.00  0.00    +0.004 C 
BRANCH  15  17
ATOM     17  C   UNL     1      -2.790   5.304  -4.694  0.00  0.00    +0.079 C 
BRANCH  17  20
ATOM     18  C   UNL     1      -0.922   5.417  -7.497  0.00  0.00    +0.090 C 
ATOM     19  C   UNL     1      -1.490   5.416  -6.925  0.00  0.00    -0.090 C 
ATOM     20  C   UNL     1      -2.339   5.470  -6.070  0.00  0.00    -0.091 C 
ENDBRANCH  17  20
ENDBRANCH  15  17
ENDBRANCH  13  15
ENDBRANCH  11  13
ENDBRANCH   1  12
BRANCH   6  21
ATOM     21  C   UNL     1       5.717   5.680  -9.132  0.00  0.00    +0.026 C 
BRANCH  21  22
ATOM     22  C   UNL     1       7.097   5.822  -9.658  0.00  0.00    +0.016 C 
BRANCH  22  23
ATOM     23  C   UNL     1       6.884   6.085 -11.146  0.00  0.00    +0.114 C 
BRANCH  23  24
ATOM     24  C   UNL     1       7.917   5.373 -11.919  0.00  0.00    +0.365 C 
ATOM     25  O   UNL     1       9.194   5.882 -11.924  0.00  0.00    -0.246 OA
ATOM     26  O   UNL     1       7.567   4.534 -12.791  0.00  0.00    -0.246 OA
ENDBRANCH  23  24
ENDBRANCH  22  23
ENDBRANCH  21  22
ENDBRANCH   6  21
TORSDOF 9
ENDMDL
MODEL 3
REMARK VINA RESULT:      -8.5      2.079      3.022
REMARK  Name = 
REMARK  9 active torsions:
REMARK  status: ('A' for Active; 'I' for Inactive)
REMARK    1  A    between atoms: C_3  and  C_4
REMARK    2  A    between atoms: C_4  and  C_5
REMARK    3  A    between atoms: C_5  and  C_7
REMARK    4  A    between atoms: C_7  and  C_9
REMARK    5  A    between atoms: C_10  and  C_11
REMARK    6  A    between atoms: C_18  and  C_19
REMARK    7  A    between atoms: C_19  and  C_20
REMARK    8  A    between atoms: C_20  and  C_21
REMARK    9  A    between atoms: C_21  and  C_22
REMARK                            x       y       z     vdW  Elec       q    Type
REMARK                         _______ _______ _______ _____ _____    ______ ____
ROOT
ATOM      1  C   UNL     1       0.682   5.098  -8.851  0.00  0.00    +0.052 C 
ATOM      2  C   UNL     1       2.227   4.809  -8.295  0.00  0.00    +0.011 C 
ATOM      3  C   UNL     1       2.400   6.325  -7.602  0.00  0.00    +0.007 C 
ATOM      4  C   UNL     1       4.017   6.122  -7.595  0.00  0.00    +0.022 C 
ATOM      5  C   UNL     1       4.277   5.740  -8.992  0.00  0.00    -0.048 C 
ATOM      6  C   UNL     1       5.452   6.107  -9.492  0.00  0.00    -0.035 C 
ATOM      7  C   UNL     1       2.373   6.978  -9.061  0.00  0.00    +0.034 C 
ATOM      8  C   UNL     1       3.078   5.136  -9.625  0.00  0.00    +0.022 C 
ATOM      9  C   UNL     1       0.854   6.653  -9.502  0.00  0.00    +0.156 C 
ATOM     10  O   UNL     1       1.263   6.108 -10.865  0.00  0.00    -0.223 OA
ENDROOT
BRANCH   1  12
ATOM     11  C   UNL     1      -0.818   5.051  -6.825  0.00  0.00    +0.002 C 
ATOM     12  C   UNL     1       0.161   5.675  -7.457  0.00  0.00    -0.026 C 
BRANCH  11  13
ATOM     13  C   UNL     1      -1.907   6.074  -6.191  0.00  0.00    +0.175 C 
ATOM     14  O   UNL     1      -2.992   5.020  -6.299  0.00  0.00    -0.218 OA
BRANCH  13  15
ATOM     15  C   UNL     1      -1.528   5.760  -4.545  0.00  0.00    +0.048 C 
ATOM     16  C   UNL     1      -2.762   6.568  -3.879  0.00  0.00    +0.004 C 
BRANCH  15  17
ATOM     17  C   UNL     1      -0.534   7.023  -4.446  0.00  0.00    +0.079 C 
BRANCH  17  20
ATOM     18  C   UNL     1       2.399   5.407  -4.066  0.00  0.00    +0.090 C 
ATOM     19  C   UNL     1       1.739   5.868  -4.023  0.00  0.00    -0.090 C 
ATOM     20  C   UNL     1       0.731   6.524  -3.924  0.00  0.00    -0.091 C 
ENDBRANCH  17  20
ENDBRANCH  15  17
ENDBRANCH  13  15
ENDBRANCH  11  13
ENDBRANCH   1  12
BRANCH   6  21
ATOM     21  C   UNL     1       6.535   5.221  -9.090  0.00  0.00    +0.026 C 
BRANCH  21  22
ATOM     22  C   UNL     1       7.900   5.508  -9.597  0.00  0.00    +0.016 C 
BRANCH  22  23
ATOM     23  C   UNL     1       7.644   6.204 -10.930  0.00  0.00    +0.114 C 
BRANCH  23  24
ATOM     24  C   UNL     1       8.345   5.474 -12.002  0.00  0.00    +0.365 C 
ATOM     25  O   UNL     1       9.423   6.078 -12.605  0.00  0.00    -0.246 OA
ATOM     26  O   UNL     1       7.778   4.494 -12.555  0.00  0.00    -0.246 OA
ENDBRANCH  23  24
ENDBRANCH  22  23
ENDBRANCH  21  22
ENDBRANCH   6  21
TORSDOF 9
ENDMDL
MODEL 4
REMARK VINA RESULT:      -8.4      1.904     10.227
REMARK  Name = 
REMARK  9 active torsions:
REMARK  status: ('A' for Active; 'I' for Inactive)
REMARK    1  A    between atoms: C_3  and  C_4
REMARK    2  A    between atoms: C_4  and  C_5
REMARK    3  A    between atoms: C_5  and  C_7
REMARK    4  A    between atoms: C_7  and  C_9
REMARK    5  A    between atoms: C_10  and  C_11
REMARK    6  A    between atoms: C_18  and  C_19
REMARK    7  A    between atoms: C_19  and  C_20
REMARK    8  A    between atoms: C_20  and  C_21
REMARK    9  A    between atoms: C_21  and  C_22
REMARK                            x       y       z     vdW  Elec       q    Type
REMARK                         _______ _______ _______ _____ _____    ______ ____
ROOT
ATOM      1  C   UNL     1       4.491   4.906  -7.317  0.00  0.00    +0.052 C 
ATOM      2  C   UNL     1       2.886   5.059  -7.742  0.00  0.00    +0.011 C 
ATOM      3  C   UNL     1       2.919   6.734  -7.769  0.00  0.00    +0.007 C 
ATOM      4  C   UNL     1       1.294   6.755  -7.649  0.00  0.00    +0.022 C 
ATOM      5  C   UNL     1       1.068   5.881  -6.487  0.00  0.00    -0.048 C 
ATOM      6  C   UNL     1       0.005   6.160  -5.740  0.00  0.00    -0.035 C 
ATOM      7  C   UNL     1       3.151   6.740  -6.187  0.00  0.00    +0.034 C 
ATOM      8  C   UNL     1       2.190   4.929  -6.293  0.00  0.00    +0.022 C 
ATOM      9  C   UNL     1       4.621   6.078  -6.101  0.00  0.00    +0.156 C 
ATOM     10  O   UNL     1       4.220   5.090  -5.014  0.00  0.00    -0.223 OA
ENDROOT
BRANCH   1  12
ATOM     11  C   UNL     1       5.569   5.447  -9.531  0.00  0.00    +0.002 C 
ATOM     12  C   UNL     1       5.007   5.923  -8.434  0.00  0.00    -0.026 C 
BRANCH  11  13
ATOM     13  C   UNL     1       6.877   6.296  -9.983  0.00  0.00    +0.175 C 
ATOM     14  O   UNL     1       7.792   5.266  -9.348  0.00  0.00    -0.218 OA
BRANCH  13  15
ATOM     15  C   UNL     1       6.979   5.657 -11.575  0.00  0.00    +0.048 C 
ATOM     16  C   UNL     1       8.564   5.894 -11.803  0.00  0.00    +0.004 C 
BRANCH  15  17
ATOM     17  C   UNL     1       6.583   7.061 -12.254  0.00  0.00    +0.079 C 
BRANCH  17  20
ATOM     18  C   UNL     1       6.975   6.749 -15.587  0.00  0.00    +0.090 C 
ATOM     19  C   UNL     1       6.743   6.751 -14.815  0.00  0.00    -0.090 C 
ATOM     20  C   UNL     1       6.364   6.797 -13.670  0.00  0.00    -0.091 C 
ENDBRANCH  17  20
ENDBRANCH  15  17
ENDBRANCH  13  15
ENDBRANCH  11  13
ENDBRANCH   1  12
BRANCH   6  21
ATOM     21  C   UNL     1      -1.233   5.652  -6.312  0.00  0.00    +0.026 C 
BRANCH  21  22
ATOM     22  C   UNL     1      -2.516   6.103  -5.719  0.00  0.00    +0.016 C 
BRANCH  22  23
ATOM     23  C   UNL     1      -2.129   6.506  -4.300  0.00  0.00    +0.114 C 
BRANCH  23  24
ATOM     24  C   UNL     1      -3.009   5.815  -3.341  0.00  0.00    +0.365 C 
ATOM     25  O   UNL     1      -3.921   6.564  -2.635  0.00  0.00    -0.246 OA
ATOM     26  O   UNL     1      -2.709   4.654  -2.953  0.00  0.00    -0.246 OA
ENDBRANCH  23  24
ENDBRANCH  22  23
ENDBRANCH  21  22
ENDBRANCH   6  21
TORSDOF 9
ENDMDL
MODEL 5
REMARK VINA RESULT:      -8.2      2.720      9.993
REMARK  Name = 
REMARK  9 active torsions:
REMARK  status: ('A' for Active; 'I' for Inactive)
REMARK    1  A    between atoms: C_3  and  C_4
REMARK    2  A    between atoms: C_4  and  C_5
REMARK    3  A    between atoms: C_5  and  C_7
REMARK    4  A    between atoms: C_7  and  C_9
REMARK    5  A    between atoms: C_10  and  C_11
REMARK    6  A    between atoms: C_18  and  C_19
REMARK    7  A    between atoms: C_19  and  C_20
REMARK    8  A    between atoms: C_20  and  C_21
REMARK    9  A    between atoms: C_21  and  C_22
REMARK                            x       y       z     vdW  Elec       q    Type
REMARK                         _______ _______ _______ _____ _____    ______ ____
ROOT
ATOM      1  C   UNL     1       1.989   6.517 -11.164  0.00  0.00    +0.052 C 
ATOM      2  C   UNL     1       2.036   6.432  -9.499  0.00  0.00    +0.011 C 
ATOM      3  C   UNL     1       2.262   4.772  -9.461  0.00  0.00    +0.007 C 
ATOM      4  C   UNL     1       1.764   4.753  -7.909  0.00  0.00    +0.022 C 
ATOM      5  C   UNL     1       0.489   5.483  -7.996  0.00  0.00    -0.048 C 
ATOM      6  C   UNL     1      -0.452   5.126  -7.128  0.00  0.00    -0.035 C 
ATOM      7  C   UNL     1       0.791   4.574 -10.056  0.00  0.00    +0.034 C 
ATOM      8  C   UNL     1       0.458   6.393  -9.168  0.00  0.00    +0.022 C 
ATOM      9  C   UNL     1       0.981   5.205 -11.530  0.00  0.00    +0.156 C 
ATOM     10  O   UNL     1      -0.276   6.060 -11.433  0.00  0.00    -0.223 OA
ENDROOT
BRANCH   1  12
ATOM     11  C   UNL     1       4.402   6.210 -11.830  0.00  0.00    +0.002 C 
ATOM     12  C   UNL     1       3.306   5.636 -11.364  0.00  0.00    -0.026 C 
BRANCH  11  13
ATOM     13  C   UNL     1       5.173   5.292 -12.924  0.00  0.00    +0.175 C 
ATOM     14  O   UNL     1       4.412   5.961 -14.053  0.00  0.00    -0.218 OA
BRANCH  13  15
ATOM     15  C   UNL     1       6.572   6.280 -13.051  0.00  0.00    +0.048 C 
ATOM     16  C   UNL     1       6.974   5.893 -14.570  0.00  0.00    +0.004 C 
BRANCH  15  17
ATOM     17  C   UNL     1       7.529   5.150 -12.418  0.00  0.00    +0.079 C 
BRANCH  17  20
ATOM     18  C   UNL     1       7.379   5.936  -9.145  0.00  0.00    +0.090 C 
ATOM     19  C   UNL     1       7.570   5.774  -9.911  0.00  0.00    -0.090 C 
ATOM     20  C   UNL     1       7.857   5.585 -11.067  0.00  0.00    -0.091 C 
ENDBRANCH  17  20
ENDBRANCH  15  17
ENDBRANCH  13  15
ENDBRANCH  11  13
ENDBRANCH   1  12
BRANCH   6  21
ATOM     21  C   UNL     1      -0.252   5.711  -5.810  0.00  0.00    +0.026 C 
BRANCH  21  22
ATOM     22  C   UNL     1      -1.190   6.771  -5.364  0.00  0.00    +0.016 C 
BRANCH  22  23
ATOM     23  C   UNL     1      -2.441   5.993  -4.967  0.00  0.00    +0.114 C 
BRANCH  23  24
ATOM     24  C   UNL     1      -2.549   5.965  -3.497  0.00  0.00    +0.365 C 
ATOM     25  O   UNL     1      -2.691   4.746  -2.877  0.00  0.00    -0.246 OA
ATOM     26  O   UNL     1      -2.829   7.026  -2.878  0.00  0.00    -0.246 OA
ENDBRANCH  23  24
ENDBRANCH  22  23
ENDBRANCH  21  22
ENDBRANCH   6  21
TORSDOF 9
ENDMDL
MODEL 6
REMARK VINA RESULT:      -8.0      2.888      3.911
REMARK  Name = 
REMARK  9 active torsions:
REMARK  status: ('A' for Active; 'I' for Inactive)
REMARK    1  A    between atoms: C_3  and  C_4
REMARK    2  A    between atoms: C_4  and  C_5
REMARK    3  A    between atoms: C_5  and  C_7
REMARK    4  A    between atoms: C_7  and  C_9
REMARK    5  A    between atoms: C_10  and  C_11
REMARK    6  A    between atoms: C_18  and  C_19
REMARK    7  A    between atoms: C_19  and  C_20
REMARK    8  A    between atoms: C_20  and  C_21
REMARK    9  A    between atoms: C_21  and  C_22
REMARK                            x       y       z     vdW  Elec       q    Type
REMARK                         _______ _______ _______ _____ _____    ______ ____
ROOT
ATOM      1  C   UNL     1       2.611   6.539  -3.671  0.00  0.00    +0.052 C 
ATOM      2  C   UNL     1       2.573   6.562  -5.338  0.00  0.00    +0.011 C 
ATOM      3  C   UNL     1       2.261   4.922  -5.483  0.00  0.00    +0.007 C 
ATOM      4  C   UNL     1       2.771   4.976  -7.030  0.00  0.00    +0.022 C 
ATOM      5  C   UNL     1       4.081   5.630  -6.891  0.00  0.00    -0.048 C 
ATOM      6  C   UNL     1       5.010   5.280  -7.776  0.00  0.00    -0.035 C 
ATOM      7  C   UNL     1       3.715   4.610  -4.894  0.00  0.00    +0.034 C 
ATOM      8  C   UNL     1       4.150   6.461  -5.664  0.00  0.00    +0.022 C 
ATOM      9  C   UNL     1       3.546   5.156  -3.384  0.00  0.00    +0.156 C 
ATOM     10  O   UNL     1       4.846   5.947  -3.421  0.00  0.00    -0.223 OA
ENDROOT
BRANCH   1  12
ATOM     11  C   UNL     1       0.098   6.341  -3.722  0.00  0.00    +0.002 C 
ATOM     12  C   UNL     1       1.248   5.718  -3.534  0.00  0.00    -0.026 C 
BRANCH  11  13
ATOM     13  C   UNL     1      -1.032   5.908  -2.640  0.00  0.00    +0.175 C 
ATOM     14  O   UNL     1      -0.639   7.062  -1.737  0.00  0.00    -0.218 OA
BRANCH  13  15
ATOM     15  C   UNL     1      -2.343   6.721  -3.396  0.00  0.00    +0.048 C 
ATOM     16  C   UNL     1      -3.423   6.550  -2.203  0.00  0.00    +0.004 C 
BRANCH  15  17
ATOM     17  C   UNL     1      -2.840   5.391  -4.154  0.00  0.00    +0.079 C 
BRANCH  17  20
ATOM     18  C   UNL     1      -1.324   5.328  -7.164  0.00  0.00    +0.090 C 
ATOM     19  C   UNL     1      -1.810   5.402  -6.524  0.00  0.00    -0.090 C 
ATOM     20  C   UNL     1      -2.523   5.567  -5.565  0.00  0.00    -0.091 C 
ENDBRANCH  17  20
ENDBRANCH  15  17
ENDBRANCH  13  15
ENDBRANCH  11  13
ENDBRANCH   1  12
BRANCH   6  21
ATOM     21  C   UNL     1       4.851   5.958  -9.054  0.00  0.00    +0.026 C 
BRANCH  21  22
ATOM     22  C   UNL     1       4.253   5.199 -10.180  0.00  0.00    +0.016 C 
BRANCH  22  23
ATOM     23  C   UNL     1       3.616   6.285 -11.041  0.00  0.00    +0.114 C 
BRANCH  23  24
ATOM     24  C   UNL     1       2.148   6.169 -10.963  0.00  0.00    +0.365 C 
ATOM     25  O   UNL     1       1.513   6.665  -9.850  0.00  0.00    -0.246 OA
ATOM     26  O   UNL     1       1.552   5.362 -11.725  0.00  0.00    -0.246 OA
ENDBRANCH  23  24
ENDBRANCH  22  23
ENDBRANCH  21  22
ENDBRANCH   6  21
TORSDOF 9
ENDMDL
MODEL 7
REMARK VINA RESULT:      -7.9      3.835      5.933
REMARK  Name = 
REMARK  9 active torsions:
REMARK  status: ('A' for Active; 'I' for Inactive)
REMARK    1  A    between atoms: C_3  and  C_4
REMARK    2  A    between atoms: C_4  and  C_5
REMARK    3  A    between atoms: C_5  and  C_7
REMARK    4  A    between atoms: C_7  and  C_9
REMARK    5  A    between atoms: C_10  and  C_11
REMARK    6  A    between atoms: C_18  and  C_19
REMARK    7  A    between atoms: C_19  and  C_20
REMARK    8  A    between atoms: C_20  and  C_21
REMARK    9  A    between atoms: C_21  and  C_22
REMARK                            x       y       z     vdW  Elec       q    Type
REMARK                         _______ _______ _______ _____ _____    ______ ____
ROOT
ATOM      1  C   UNL     1       0.157   5.240  -4.072  0.00  0.00    +0.052 C 
ATOM      2  C   UNL     1       0.941   4.963  -5.517  0.00  0.00    +0.011 C 
ATOM      3  C   UNL     1       1.346   6.571  -5.755  0.00  0.00    +0.007 C 
ATOM      4  C   UNL     1       1.587   6.263  -7.337  0.00  0.00    +0.022 C 
ATOM      5  C   UNL     1       0.330   5.592  -7.705  0.00  0.00    -0.048 C 
ATOM      6  C   UNL     1      -0.087   5.769  -8.955  0.00  0.00    -0.035 C 
ATOM      7  C   UNL     1      -0.203   6.919  -5.939  0.00  0.00    +0.034 C 
ATOM      8  C   UNL     1      -0.316   4.957  -6.529  0.00  0.00    +0.022 C 
ATOM      9  C   UNL     1      -0.754   6.617  -4.452  0.00  0.00    +0.156 C 
ATOM     10  O   UNL     1      -1.927   5.784  -4.949  0.00  0.00    -0.223 OA
ENDROOT
BRANCH   1  12
ATOM     11  C   UNL     1       2.170   5.572  -2.589  0.00  0.00    +0.002 C 
ATOM     12  C   UNL     1       1.342   6.120  -3.463  0.00  0.00    -0.026 C 
BRANCH  11  13
ATOM     13  C   UNL     1       2.522   6.564  -1.354  0.00  0.00    +0.175 C 
ATOM     14  O   UNL     1       2.443   5.408  -0.375  0.00  0.00    -0.218 OA
BRANCH  13  15
ATOM     15  C   UNL     1       4.228   6.509  -1.545  0.00  0.00    +0.048 C 
ATOM     16  C   UNL     1       4.628   7.167  -0.122  0.00  0.00    +0.004 C 
BRANCH  15  17
ATOM     17  C   UNL     1       4.272   7.926  -2.309  0.00  0.00    +0.079 C 
BRANCH  17  20
ATOM     18  C   UNL     1       4.836   6.549  -5.333  0.00  0.00    +0.090 C 
ATOM     19  C   UNL     1       4.782   7.001  -4.668  0.00  0.00    -0.090 C 
ATOM     20  C   UNL     1       4.753   7.662  -3.659  0.00  0.00    -0.091 C 
ENDBRANCH  17  20
ENDBRANCH  15  17
ENDBRANCH  13  15
ENDBRANCH  11  13
ENDBRANCH   1  12
BRANCH   6  21
ATOM     21  C   UNL     1       0.605   4.910  -9.904  0.00  0.00    +0.026 C 
BRANCH  21  22
ATOM     22  C   UNL     1       0.094   4.850 -11.296  0.00  0.00    +0.016 C 
BRANCH  22  23
ATOM     23  C   UNL     1      -0.148   6.314 -11.649  0.00  0.00    +0.114 C 
BRANCH  23  24
ATOM     24  C   UNL     1       0.833   6.739 -12.663  0.00  0.00    +0.365 C 
ATOM     25  O   UNL     1       0.624   7.931 -13.315  0.00  0.00    -0.246 OA
ATOM     26  O   UNL     1       1.638   5.892 -13.136  0.00  0.00    -0.246 OA
ENDBRANCH  23  24
ENDBRANCH  22  23
ENDBRANCH  21  22
ENDBRANCH   6  21
TORSDOF 9
ENDMDL
MODEL 8
REMARK VINA RESULT:      -7.9      3.187      9.089
REMARK  Name = 
REMARK  9 active torsions:
REMARK  status: ('A' for Active; 'I' for Inactive)
REMARK    1  A    between atoms: C_3  and  C_4
REMARK    2  A    between atoms: C_4  and  C_5
REMARK    3  A    between atoms: C_5  and  C_7
REMARK    4  A    between atoms: C_7  and  C_9
REMARK    5  A    between atoms: C_10  and  C_11
REMARK    6  A    between atoms: C_18  and  C_19
REMARK    7  A    between atoms: C_19  and  C_20
REMARK    8  A    between atoms: C_20  and  C_21
REMARK    9  A    between atoms: C_21  and  C_22
REMARK                            x       y       z     vdW  Elec       q    Type
REMARK                         _______ _______ _______ _____ _____    ______ ____
ROOT
ATOM      1  C   UNL     1       1.994   6.624 -11.430  0.00  0.00    +0.052 C 
ATOM      2  C   UNL     1       2.087   6.414  -9.779  0.00  0.00    +0.011 C 
ATOM      3  C   UNL     1       2.124   4.741  -9.863  0.00  0.00    +0.007 C 
ATOM      4  C   UNL     1       1.678   4.665  -8.297  0.00  0.00    +0.022 C 
ATOM      5  C   UNL     1       0.492   5.536  -8.281  0.00  0.00    -0.048 C 
ATOM      6  C   UNL     1      -0.454   5.224  -7.402  0.00  0.00    -0.035 C 
ATOM      7  C   UNL     1       0.621   4.751 -10.409  0.00  0.00    +0.034 C 
ATOM      8  C   UNL     1       0.526   6.526  -9.386  0.00  0.00    +0.022 C 
ATOM      9  C   UNL     1       0.832   5.462 -11.843  0.00  0.00    +0.156 C 
ATOM     10  O   UNL     1      -0.315   6.441 -11.636  0.00  0.00    -0.223 OA
ENDROOT
BRANCH   1  12
ATOM     11  C   UNL     1       4.395   6.109 -12.003  0.00  0.00    +0.002 C 
ATOM     12  C   UNL     1       3.195   5.620 -11.744  0.00  0.00    -0.026 C 
BRANCH  11  13
ATOM     13  C   UNL     1       5.134   5.341 -13.227  0.00  0.00    +0.175 C 
ATOM     14  O   UNL     1       4.292   6.096 -14.237  0.00  0.00    -0.218 OA
BRANCH  13  15
ATOM     15  C   UNL     1       6.492   6.389 -13.319  0.00  0.00    +0.048 C 
ATOM     16  C   UNL     1       6.937   6.035 -14.834  0.00  0.00    +0.004 C 
BRANCH  15  17
ATOM     17  C   UNL     1       7.485   5.294 -12.680  0.00  0.00    +0.079 C 
BRANCH  17  20
ATOM     18  C   UNL     1       7.460   5.846  -9.355  0.00  0.00    +0.090 C 
ATOM     19  C   UNL     1       7.606   5.788 -10.146  0.00  0.00    -0.090 C 
ATOM     20  C   UNL     1       7.807   5.752 -11.335  0.00  0.00    -0.091 C 
ENDBRANCH  17  20
ENDBRANCH  15  17
ENDBRANCH  13  15
ENDBRANCH  11  13
ENDBRANCH   1  12
BRANCH   6  21
ATOM     21  C   UNL     1      -0.145   5.687  -6.056  0.00  0.00    +0.026 C 
BRANCH  21  22
ATOM     22  C   UNL     1       0.561   6.983  -5.906  0.00  0.00    +0.016 C 
BRANCH  22  23
ATOM     23  C   UNL     1       1.681   6.665  -4.920  0.00  0.00    +0.114 C 
BRANCH  23  24
ATOM     24  C   UNL     1       2.979   6.985  -5.539  0.00  0.00    +0.365 C 
ATOM     25  O   UNL     1       4.102   6.970  -4.746  0.00  0.00    -0.246 OA
ATOM     26  O   UNL     1       3.004   7.563  -6.659  0.00  0.00    -0.246 OA
ENDBRANCH  23  24
ENDBRANCH  22  23
ENDBRANCH  21  22
ENDBRANCH   6  21
TORSDOF 9
ENDMDL
MODEL 9
REMARK VINA RESULT:      -7.9      2.263      9.967
REMARK  Name = 
REMARK  9 active torsions:
REMARK  status: ('A' for Active; 'I' for Inactive)
REMARK    1  A    between atoms: C_3  and  C_4
REMARK    2  A    between atoms: C_4  and  C_5
REMARK    3  A    between atoms: C_5  and  C_7
REMARK    4  A    between atoms: C_7  and  C_9
REMARK    5  A    between atoms: C_10  and  C_11
REMARK    6  A    between atoms: C_18  and  C_19
REMARK    7  A    between atoms: C_19  and  C_20
REMARK    8  A    between atoms: C_20  and  C_21
REMARK    9  A    between atoms: C_21  and  C_22
REMARK                            x       y       z     vdW  Elec       q    Type
REMARK                         _______ _______ _______ _____ _____    ______ ____
ROOT
ATOM      1  C   UNL     1       3.085   5.253  -6.598  0.00  0.00    +0.052 C 
ATOM      2  C   UNL     1       1.495   4.804  -6.376  0.00  0.00    +0.011 C 
ATOM      3  C   UNL     1       0.910   5.792  -7.596  0.00  0.00    +0.007 C 
ATOM      4  C   UNL     1      -0.581   5.691  -6.946  0.00  0.00    +0.022 C 
ATOM      5  C   UNL     1      -0.321   6.055  -5.544  0.00  0.00    -0.048 C 
ATOM      6  C   UNL     1      -1.307   6.676  -4.906  0.00  0.00    -0.035 C 
ATOM      7  C   UNL     1       1.325   7.074  -6.734  0.00  0.00    +0.034 C 
ATOM      8  C   UNL     1       1.086   5.781  -5.159  0.00  0.00    +0.022 C 
ATOM      9  C   UNL     1       2.933   6.933  -6.748  0.00  0.00    +0.156 C 
ATOM     10  O   UNL     1       3.063   7.146  -5.246  0.00  0.00    -0.223 OA
ENDROOT
BRANCH   1  12
ATOM     11  C   UNL     1       4.183   4.946  -8.847  0.00  0.00    +0.002 C 
ATOM     12  C   UNL     1       3.046   5.048  -8.180  0.00  0.00    -0.026 C 
BRANCH  11  13
ATOM     13  C   UNL     1       4.166   5.773 -10.244  0.00  0.00    +0.175 C 
ATOM     14  O   UNL     1       3.573   6.982  -9.546  0.00  0.00    -0.218 OA
BRANCH  13  15
ATOM     15  C   UNL     1       5.795   6.313 -10.167  0.00  0.00    +0.048 C 
ATOM     16  C   UNL     1       5.617   7.666 -11.037  0.00  0.00    +0.004 C 
BRANCH  15  17
ATOM     17  C   UNL     1       6.231   5.443 -11.449  0.00  0.00    +0.079 C 
BRANCH  17  20
ATOM     18  C   UNL     1       9.452   5.898 -12.330  0.00  0.00    +0.090 C 
ATOM     19  C   UNL     1       8.743   5.735 -11.983  0.00  0.00    -0.090 C 
ATOM     20  C   UNL     1       7.688   5.438 -11.479  0.00  0.00    -0.091 C 
ENDBRANCH  17  20
ENDBRANCH  15  17
ENDBRANCH  13  15
ENDBRANCH  11  13
ENDBRANCH   1  12
BRANCH   6  21
ATOM     21  C   UNL     1      -2.337   5.761  -4.436  0.00  0.00    +0.026 C 
BRANCH  21  22
ATOM     22  C   UNL     1      -3.149   6.163  -3.260  0.00  0.00    +0.016 C 
BRANCH  22  23
ATOM     23  C   UNL     1      -2.450   5.472  -2.094  0.00  0.00    +0.114 C 
BRANCH  23  24
ATOM     24  C   UNL     1      -2.009   6.487  -1.121  0.00  0.00    +0.365 C 
ATOM     25  O   UNL     1      -1.921   7.795  -1.537  0.00  0.00    -0.246 OA
ATOM     26  O   UNL     1      -1.429   6.120  -0.064  0.00  0.00    -0.246 OA
ENDBRANCH  23  24
ENDBRANCH  22  23
ENDBRANCH  21  22
ENDBRANCH   6  21
TORSDOF 9
ENDMDL
