MODEL 1
REMARK VINA RESULT:      -8.1      0.000      0.000
REMARK  Name = 
REMARK  3 active torsions:
REMARK  status: ('A' for Active; 'I' for Inactive)
REMARK    1  A    between atoms: N_2  and  C_4
REMARK    2  A    between atoms: C_4  and  C_5
REMARK    3  A    between atoms: C_5  and  C_6
REMARK                            x       y       z     vdW  Elec       q    Type
REMARK                         _______ _______ _______ _____ _____    ______ ____
ROOT
ATOM      1  C   UNL     1       1.640   6.703  -4.051  0.00  0.00    -0.025 C 
ATOM      2  C   UNL     1       0.668   6.419  -4.901  0.00  0.00    -0.004 C 
ATOM      3  C   UNL     1      -0.575   5.900  -4.317  0.00  0.00    -0.000 A 
ATOM      4  C   UNL     1      -1.786   5.684  -4.960  0.00  0.00    -0.000 A 
ATOM      5  C   UNL     1      -2.990   5.942  -4.315  0.00  0.00    -0.000 A 
ATOM      6  C   UNL     1      -2.964   6.289  -2.969  0.00  0.00    -0.000 A 
ATOM      7  C   UNL     1      -1.820   5.896  -2.283  0.00  0.00    -0.000 A 
ATOM      8  C   UNL     1      -1.976   5.326  -6.365  0.00  0.00    -0.000 C 
ATOM      9  C   UNL     1      -1.023   5.232  -7.291  0.00  0.00    -0.000 C 
ATOM     10  C   UNL     1       0.329   5.748  -7.360  0.00  0.00    -0.000 A 
ATOM     11  C   UNL     1       0.617   6.148  -8.658  0.00  0.00    -0.000 A 
ATOM     12  C   UNL     1       1.693   6.979  -8.940  0.00  0.00    -0.000 A 
ATOM     13  C   UNL     1       2.463   7.390  -7.860  0.00  0.00    -0.000 A 
ATOM     14  C   UNL     1       2.201   6.981  -6.571  0.00  0.00    -0.000 A 
ATOM     15  C   UNL     1      -0.624   6.132  -2.949  0.00  0.00    -0.000 A 
ATOM     16  C   UNL     1       1.075   6.233  -6.294  0.00  0.00    -0.000 A 
ENDROOT
BRANCH   1  17
ATOM     17  C   UNL     1       2.562   5.620  -3.658  0.00  0.00    +0.043 C 
BRANCH  17  18
ATOM     18  C   UNL     1       3.840   6.129  -3.045  0.00  0.00    +0.077 C 
BRANCH  18  20
ATOM     19  C   UNL     1       5.085   7.795  -4.146  0.00  0.00    +0.090 C 
ATOM     20  N   UNL     1       3.887   7.559  -3.347  0.00  0.00    -0.270 NA
ATOM     21  C   UNL     1       4.004   8.253  -2.070  0.00  0.00    +0.090 C 
ENDBRANCH  18  20
ENDBRANCH  17  18
ENDBRANCH   1  17
TORSDOF 3
ENDMDL
MODEL 2
REMARK VINA RESULT:      -8.0      3.948      6.877
REMARK  Name = 
REMARK  3 active torsions:
REMARK  status: ('A' for Active; 'I' for Inactive)
REMARK    1  A    between atoms: N_2  and  C_4
REMARK    2  A    between atoms: C_4  and  C_5
REMARK    3  A    between atoms: C_5  and  C_6
REMARK                            x       y       z     vdW  Elec       q    Type
REMARK                         _______ _______ _______ _____ _____    ______ ____
ROOT
ATOM      1  C   UNL     1       3.658   6.431  -8.980  0.00  0.00    -0.025 C 
ATOM      2  C   UNL     1       3.744   6.265 -10.289  0.00  0.00    -0.004 C 
ATOM      3  C   UNL     1       2.473   6.126 -11.011  0.00  0.00    -0.000 A 
ATOM      4  C   UNL     1       2.278   6.107 -12.385  0.00  0.00    -0.000 A 
ATOM      5  C   UNL     1       1.166   6.716 -12.955  0.00  0.00    -0.000 A 
ATOM      6  C   UNL     1       0.182   7.225 -12.116  0.00  0.00    -0.000 A 
ATOM      7  C   UNL     1       0.159   6.677 -10.837  0.00  0.00    -0.000 A 
ATOM      8  C   UNL     1       3.218   5.617 -13.393  0.00  0.00    -0.000 C 
ATOM      9  C   UNL     1       4.459   5.185 -13.171  0.00  0.00    -0.000 C 
ATOM     10  C   UNL     1       5.374   5.366 -12.063  0.00  0.00    -0.000 A 
ATOM     11  C   UNL     1       6.670   5.512 -12.538  0.00  0.00    -0.000 A 
ATOM     12  C   UNL     1       7.682   6.031 -11.742  0.00  0.00    -0.000 A 
ATOM     13  C   UNL     1       7.332   6.396 -10.449  0.00  0.00    -0.000 A 
ATOM     14  C   UNL     1       6.055   6.235  -9.958  0.00  0.00    -0.000 A 
ATOM     15  C   UNL     1       1.403   6.544 -10.231  0.00  0.00    -0.000 A 
ATOM     16  C   UNL     1       5.040   5.806 -10.789  0.00  0.00    -0.000 A 
ENDROOT
BRANCH   1  17
ATOM     17  C   UNL     1       3.584   5.229  -8.128  0.00  0.00    +0.043 C 
BRANCH  17  18
ATOM     18  C   UNL     1       4.171   5.443  -6.757  0.00  0.00    +0.077 C 
BRANCH  18  20
ATOM     19  C   UNL     1       3.708   4.733  -4.562  0.00  0.00    +0.090 C 
ATOM     20  N   UNL     1       3.091   5.167  -5.811  0.00  0.00    -0.270 NA
ATOM     21  C   UNL     1       2.308   4.076  -6.377  0.00  0.00    +0.090 C 
ENDBRANCH  18  20
ENDBRANCH  17  18
ENDBRANCH   1  17
TORSDOF 3
ENDMDL
MODEL 3
REMARK VINA RESULT:      -7.9      2.134      5.239
REMARK  Name = 
REMARK  3 active torsions:
REMARK  status: ('A' for Active; 'I' for Inactive)
REMARK    1  A    between atoms: N_2  and  C_4
REMARK    2  A    between atoms: C_4  and  C_5
REMARK    3  A    between atoms: C_5  and  C_6
REMARK                            x       y       z     vdW  Elec       q    Type
REMARK                         _______ _______ _______ _____ _____    ______ ____
ROOT
ATOM      1  C   UNL     1       2.114   5.636  -7.095  0.00  0.00    -0.025 C 
ATOM      2  C   UNL     1       1.714   5.910  -5.865  0.00  0.00    -0.004 C 
ATOM      3  C   UNL     1       2.771   6.182  -4.883  0.00  0.00    -0.000 A 
ATOM      4  C   UNL     1       2.620   6.650  -3.585  0.00  0.00    -0.000 A 
ATOM      5  C   UNL     1       3.530   7.550  -3.043  0.00  0.00    -0.000 A 
ATOM      6  C   UNL     1       4.670   7.866  -3.773  0.00  0.00    -0.000 A 
ATOM      7  C   UNL     1       5.031   6.929  -4.734  0.00  0.00    -0.000 A 
ATOM      8  C   UNL     1       1.481   6.414  -2.699  0.00  0.00    -0.000 C 
ATOM      9  C   UNL     1       0.352   5.781  -3.017  0.00  0.00    -0.000 C 
ATOM     10  C   UNL     1      -0.267   5.462  -4.288  0.00  0.00    -0.000 A 
ATOM     11  C   UNL     1      -1.645   5.596  -4.189  0.00  0.00    -0.000 A 
ATOM     12  C   UNL     1      -2.448   5.686  -5.317  0.00  0.00    -0.000 A 
ATOM     13  C   UNL     1      -1.805   5.636  -6.547  0.00  0.00    -0.000 A 
ATOM     14  C   UNL     1      -0.440   5.481  -6.657  0.00  0.00    -0.000 A 
ATOM     15  C   UNL     1       3.983   6.444  -5.508  0.00  0.00    -0.000 A 
ATOM     16  C   UNL     1       0.354   5.487  -5.529  0.00  0.00    -0.000 A 
ENDROOT
BRANCH   1  17
ATOM     17  C   UNL     1       2.446   4.237  -7.425  0.00  0.00    +0.043 C 
BRANCH  17  18
ATOM     18  C   UNL     1       3.117   4.092  -8.767  0.00  0.00    +0.077 C 
BRANCH  18  20
ATOM     19  C   UNL     1       3.682   5.683 -10.407  0.00  0.00    +0.090 C 
ATOM     20  N   UNL     1       3.831   5.347  -8.995  0.00  0.00    -0.270 NA
ATOM     21  C   UNL     1       5.235   5.090  -8.696  0.00  0.00    +0.090 C 
ENDBRANCH  18  20
ENDBRANCH  17  18
ENDBRANCH   1  17
TORSDOF 3
ENDMDL
MODEL 4
REMARK VINA RESULT:      -7.9      2.929      5.477
REMARK  Name = 
REMARK  3 active torsions:
REMARK  status: ('A' for Active; 'I' for Inactive)
REMARK    1  A    between atoms: N_2  and  C_4
REMARK    2  A    between atoms: C_4  and  C_5
REMARK    3  A    between atoms: C_5  and  C_6
REMARK                            x       y       z     vdW  Elec       q    Type
REMARK                         _______ _______ _______ _____ _____    ______ ____
ROOT
ATOM      1  C   UNL     1       0.319   4.946  -9.026  0.00  0.00    -0.025 C 
ATOM      2  C   UNL     1       0.930   5.375  -7.935  0.00  0.00    -0.004 C 
ATOM      3  C   UNL     1       0.069   5.935  -6.886  0.00  0.00    -0.000 A 
ATOM      4  C   UNL     1       0.433   6.298  -5.596  0.00  0.00    -0.000 A 
ATOM      5  C   UNL     1      -0.425   6.077  -4.526  0.00  0.00    -0.000 A 
ATOM      6  C   UNL     1      -1.710   5.614  -4.786  0.00  0.00    -0.000 A 
ATOM      7  C   UNL     1      -2.173   5.859  -6.075  0.00  0.00    -0.000 A 
ATOM      8  C   UNL     1       1.742   6.788  -5.165  0.00  0.00    -0.000 C 
ATOM      9  C   UNL     1       2.835   6.889  -5.920  0.00  0.00    -0.000 C 
ATOM     10  C   UNL     1       3.215   6.279  -7.178  0.00  0.00    -0.000 A 
ATOM     11  C   UNL     1       4.569   5.972  -7.165  0.00  0.00    -0.000 A 
ATOM     12  C   UNL     1       5.121   5.089  -8.082  0.00  0.00    -0.000 A 
ATOM     13  C   UNL     1       4.254   4.530  -9.011  0.00  0.00    -0.000 A 
ATOM     14  C   UNL     1       2.913   4.844  -9.048  0.00  0.00    -0.000 A 
ATOM     15  C   UNL     1      -1.261   5.591  -7.089  0.00  0.00    -0.000 A 
ATOM     16  C   UNL     1       2.361   5.649  -8.073  0.00  0.00    -0.000 A 
ENDROOT
BRANCH   1  17
ATOM     17  C   UNL     1       0.049   5.919 -10.103  0.00  0.00    +0.043 C 
BRANCH  17  18
ATOM     18  C   UNL     1      -0.029   5.281 -11.466  0.00  0.00    +0.077 C 
BRANCH  18  20
ATOM     19  C   UNL     1       1.918   6.430 -12.117  0.00  0.00    +0.090 C 
ATOM     20  N   UNL     1       0.497   6.272 -12.403  0.00  0.00    -0.270 NA
ATOM     21  C   UNL     1      -0.202   7.522 -12.126  0.00  0.00    +0.090 C 
ENDBRANCH  18  20
ENDBRANCH  17  18
ENDBRANCH   1  17
TORSDOF 3
ENDMDL
MODEL 5
REMARK VINA RESULT:      -7.8      2.021      5.584
REMARK  Name = 
REMARK  3 active torsions:
REMARK  status: ('A' for Active; 'I' for Inactive)
REMARK    1  A    between atoms: N_2  and  C_4
REMARK    2  A    between atoms: C_4  and  C_5
REMARK    3  A    between atoms: C_5  and  C_6
REMARK                            x       y       z     vdW  Elec       q    Type
REMARK                         _______ _______ _______ _____ _____    ______ ____
ROOT
ATOM      1  C   UNL     1       1.254   6.594  -6.558  0.00  0.00    -0.025 C 
ATOM      2  C   UNL     1       1.156   6.485  -5.244  0.00  0.00    -0.004 C 
ATOM      3  C   UNL     1       2.416   6.533  -4.493  0.00  0.00    -0.000 A 
ATOM      4  C   UNL     1       2.578   6.607  -3.116  0.00  0.00    -0.000 A 
ATOM      5  C   UNL     1       3.596   7.371  -2.559  0.00  0.00    -0.000 A 
ATOM      6  C   UNL     1       4.534   7.951  -3.405  0.00  0.00    -0.000 A 
ATOM      7  C   UNL     1       4.653   7.347  -4.652  0.00  0.00    -0.000 A 
ATOM      8  C   UNL     1       1.678   6.060  -2.101  0.00  0.00    -0.000 C 
ATOM      9  C   UNL     1       0.502   5.473  -2.324  0.00  0.00    -0.000 C 
ATOM     10  C   UNL     1      -0.401   5.488  -3.456  0.00  0.00    -0.000 A 
ATOM     11  C   UNL     1      -1.716   5.503  -3.013  0.00  0.00    -0.000 A 
ATOM     12  C   UNL     1      -2.762   5.858  -3.854  0.00  0.00    -0.000 A 
ATOM     13  C   UNL     1      -2.426   6.197  -5.158  0.00  0.00    -0.000 A 
ATOM     14  C   UNL     1      -1.127   6.164  -5.616  0.00  0.00    -0.000 A 
ATOM     15  C   UNL     1       3.449   7.036  -5.273  0.00  0.00    -0.000 A 
ATOM     16  C   UNL     1      -0.090   5.901  -4.745  0.00  0.00    -0.000 A 
ENDROOT
BRANCH   1  17
ATOM     17  C   UNL     1       1.490   5.368  -7.345  0.00  0.00    +0.043 C 
BRANCH  17  18
ATOM     18  C   UNL     1       0.940   5.453  -8.745  0.00  0.00    +0.077 C 
BRANCH  18  20
ATOM     19  C   UNL     1       2.688   3.879  -8.681  0.00  0.00    +0.090 C 
ATOM     20  N   UNL     1       1.840   4.656  -9.577  0.00  0.00    -0.270 NA
ATOM     21  C   UNL     1       2.657   5.600 -10.331  0.00  0.00    +0.090 C 
ENDBRANCH  18  20
ENDBRANCH  17  18
ENDBRANCH   1  17
TORSDOF 3
ENDMDL
MODEL 6
REMARK VINA RESULT:      -7.8      4.459      8.770
REMARK  Name = 
REMARK  3 active torsions:
REMARK  status: ('A' for Active; 'I' for Inactive)
REMARK    1  A    between atoms: N_2  and  C_4
REMARK    2  A    between atoms: C_4  and  C_5
REMARK    3  A    between atoms: C_5  and  C_6
REMARK                            x       y       z     vdW  Elec       q    Type
REMARK                         _______ _______ _______ _____ _____    ______ ____
ROOT
ATOM      1  C   UNL     1       2.922   6.527 -11.465  0.00  0.00    -0.025 C 
ATOM      2  C   UNL     1       3.874   6.312 -10.572  0.00  0.00    -0.004 C 
ATOM      3  C   UNL     1       5.138   5.772 -11.089  0.00  0.00    -0.000 A 
ATOM      4  C   UNL     1       6.334   5.613 -10.401  0.00  0.00    -0.000 A 
ATOM      5  C   UNL     1       7.551   5.844 -11.029  0.00  0.00    -0.000 A 
ATOM      6  C   UNL     1       7.559   6.103 -12.395  0.00  0.00    -0.000 A 
ATOM      7  C   UNL     1       6.438   5.652 -13.085  0.00  0.00    -0.000 A 
ATOM      8  C   UNL     1       6.490   5.350  -8.971  0.00  0.00    -0.000 C 
ATOM      9  C   UNL     1       5.512   5.304  -8.066  0.00  0.00    -0.000 C 
ATOM     10  C   UNL     1       4.153   5.806  -8.067  0.00  0.00    -0.000 A 
ATOM     11  C   UNL     1       3.825   6.285  -6.806  0.00  0.00    -0.000 A 
ATOM     12  C   UNL     1       2.734   7.119  -6.608  0.00  0.00    -0.000 A 
ATOM     13  C   UNL     1       1.988   7.449  -7.732  0.00  0.00    -0.000 A 
ATOM     14  C   UNL     1       2.290   6.961  -8.984  0.00  0.00    -0.000 A 
ATOM     15  C   UNL     1       5.221   5.915 -12.467  0.00  0.00    -0.000 A 
ATOM     16  C   UNL     1       3.431   6.211  -9.182  0.00  0.00    -0.000 A 
ENDROOT
BRANCH   1  17
ATOM     17  C   UNL     1       2.024   5.409 -11.811  0.00  0.00    +0.043 C 
BRANCH  17  18
ATOM     18  C   UNL     1       0.867   5.831 -12.679  0.00  0.00    +0.077 C 
BRANCH  18  20
ATOM     19  C   UNL     1      -0.508   7.457 -11.676  0.00  0.00    +0.090 C 
ATOM     20  N   UNL     1       0.707   7.268 -12.461  0.00  0.00    -0.270 NA
ATOM     21  C   UNL     1       0.540   7.874 -13.777  0.00  0.00    +0.090 C 
ENDBRANCH  18  20
ENDBRANCH  17  18
ENDBRANCH   1  17
TORSDOF 3
ENDMDL
MODEL 7
REMARK VINA RESULT:      -7.7      1.833      5.224
REMARK  Name = 
REMARK  3 active torsions:
REMARK  status: ('A' for Active; 'I' for Inactive)
REMARK    1  A    between atoms: N_2  and  C_4
REMARK    2  A    between atoms: C_4  and  C_5
REMARK    3  A    between atoms: C_5  and  C_6
REMARK                            x       y       z     vdW  Elec       q    Type
REMARK                         _______ _______ _______ _____ _____    ______ ____
ROOT
ATOM      1  C   UNL     1       0.543   6.545  -4.898  0.00  0.00    -0.025 C 
ATOM      2  C   UNL     1       1.661   6.425  -5.594  0.00  0.00    -0.004 C 
ATOM      3  C   UNL     1       1.533   5.840  -6.934  0.00  0.00    -0.000 A 
ATOM      4  C   UNL     1       2.509   5.757  -7.919  0.00  0.00    -0.000 A 
ATOM      5  C   UNL     1       2.184   5.927  -9.259  0.00  0.00    -0.000 A 
ATOM      6  C   UNL     1       0.844   6.046  -9.610  0.00  0.00    -0.000 A 
ATOM      7  C   UNL     1      -0.054   5.522  -8.687  0.00  0.00    -0.000 A 
ATOM      8  C   UNL     1       3.951   5.641  -7.709  0.00  0.00    -0.000 C 
ATOM      9  C   UNL     1       4.584   5.684  -6.536  0.00  0.00    -0.000 C 
ATOM     10  C   UNL     1       4.195   6.178  -5.232  0.00  0.00    -0.000 A 
ATOM     11  C   UNL     1       5.280   6.782  -4.611  0.00  0.00    -0.000 A 
ATOM     12  C   UNL     1       5.116   7.627  -3.523  0.00  0.00    -0.000 A 
ATOM     13  C   UNL     1       3.815   7.838  -3.087  0.00  0.00    -0.000 A 
ATOM     14  C   UNL     1       2.732   7.227  -3.680  0.00  0.00    -0.000 A 
ATOM     15  C   UNL     1       0.211   5.842  -7.360  0.00  0.00    -0.000 A 
ATOM     16  C   UNL     1       2.901   6.464  -4.818  0.00  0.00    -0.000 A 
ENDROOT
BRANCH   1  17
ATOM     17  C   UNL     1       0.097   5.393  -4.090  0.00  0.00    +0.043 C 
BRANCH  17  18
ATOM     18  C   UNL     1      -1.184   5.660  -3.343  0.00  0.00    +0.077 C 
BRANCH  18  20
ATOM     19  C   UNL     1      -1.836   5.758  -1.084  0.00  0.00    +0.090 C 
ATOM     20  N   UNL     1      -1.032   5.009  -2.043  0.00  0.00    -0.270 NA
ATOM     21  C   UNL     1       0.379   5.111  -1.686  0.00  0.00    +0.090 C 
ENDBRANCH  18  20
ENDBRANCH  17  18
ENDBRANCH   1  17
TORSDOF 3
ENDMDL
MODEL 8
REMARK VINA RESULT:      -7.7      3.724      7.191
REMARK  Name = 
REMARK  3 active torsions:
REMARK  status: ('A' for Active; 'I' for Inactive)
REMARK    1  A    between atoms: N_2  and  C_4
REMARK    2  A    between atoms: C_4  and  C_5
REMARK    3  A    between atoms: C_5  and  C_6
REMARK                            x       y       z     vdW  Elec       q    Type
REMARK                         _______ _______ _______ _____ _____    ______ ____
ROOT
ATOM      1  C   UNL     1       3.727   5.374  -8.410  0.00  0.00    -0.025 C 
ATOM      2  C   UNL     1       3.848   5.446  -9.725  0.00  0.00    -0.004 C 
ATOM      3  C   UNL     1       5.170   5.832 -10.234  0.00  0.00    -0.000 A 
ATOM      4  C   UNL     1       5.605   5.820 -11.553  0.00  0.00    -0.000 A 
ATOM      5  C   UNL     1       6.906   5.450 -11.869  0.00  0.00    -0.000 A 
ATOM      6  C   UNL     1       7.806   5.225 -10.834  0.00  0.00    -0.000 A 
ATOM      7  C   UNL     1       7.477   5.832  -9.627  0.00  0.00    -0.000 A 
ATOM      8  C   UNL     1       4.783   6.028 -12.744  0.00  0.00    -0.000 C 
ATOM      9  C   UNL     1       3.458   6.177 -12.773  0.00  0.00    -0.000 C 
ATOM     10  C   UNL     1       2.416   5.853 -11.821  0.00  0.00    -0.000 A 
ATOM     11  C   UNL     1       1.291   5.390 -12.490  0.00  0.00    -0.000 A 
ATOM     12  C   UNL     1       0.287   4.698 -11.828  0.00  0.00    -0.000 A 
ATOM     13  C   UNL     1       0.463   4.492 -10.466  0.00  0.00    -0.000 A 
ATOM     14  C   UNL     1       1.564   4.967  -9.787  0.00  0.00    -0.000 A 
ATOM     15  C   UNL     1       6.144   5.711  -9.252  0.00  0.00    -0.000 A 
ATOM     16  C   UNL     1       2.598   5.569 -10.474  0.00  0.00    -0.000 A 
ENDROOT
BRANCH   1  17
ATOM     17  C   UNL     1       3.384   6.606  -7.673  0.00  0.00    +0.043 C 
BRANCH  17  18
ATOM     18  C   UNL     1       3.029   6.350  -6.231  0.00  0.00    +0.077 C 
BRANCH  18  20
ATOM     19  C   UNL     1       4.139   5.050  -4.613  0.00  0.00    +0.090 C 
ATOM     20  N   UNL     1       4.301   6.171  -5.532  0.00  0.00    -0.270 NA
ATOM     21  C   UNL     1       4.538   7.395  -4.776  0.00  0.00    +0.090 C 
ENDBRANCH  18  20
ENDBRANCH  17  18
ENDBRANCH   1  17
TORSDOF 3
ENDMDL
MODEL 9
REMARK VINA RESULT:      -7.6      2.394      4.836
REMARK  Name = 
REMARK  3 active torsions:
REMARK  status: ('A' for Active; 'I' for Inactive)
REMARK    1  A    between atoms: N_2  and  C_4
REMARK    2  A    between atoms: C_4  and  C_5
REMARK    3  A    between atoms: C_5  and  C_6
REMARK                            x       y       z     vdW  Elec       q    Type
REMARK                         _______ _______ _______ _____ _____    ______ ____
ROOT
ATOM      1  C   UNL     1       0.472   4.849  -5.716  0.00  0.00    -0.025 C 
ATOM      2  C   UNL     1       1.751   5.078  -5.472  0.00  0.00    -0.004 C 
ATOM      3  C   UNL     1       2.083   5.528  -4.114  0.00  0.00    -0.000 A 
ATOM      4  C   UNL     1       3.346   5.676  -3.557  0.00  0.00    -0.000 A 
ATOM      5  C   UNL     1       3.579   5.352  -2.226  0.00  0.00    -0.000 A 
ATOM      6  C   UNL     1       2.497   5.007  -1.425  0.00  0.00    -0.000 A 
ATOM      7  C   UNL     1       1.263   5.463  -1.875  0.00  0.00    -0.000 A 
ATOM      8  C   UNL     1       4.577   6.023  -4.267  0.00  0.00    -0.000 C 
ATOM      9  C   UNL     1       4.714   6.169  -5.585  0.00  0.00    -0.000 C 
ATOM     10  C   UNL     1       3.910   5.729  -6.707  0.00  0.00    -0.000 A 
ATOM     11  C   UNL     1       4.734   5.345  -7.756  0.00  0.00    -0.000 A 
ATOM     12  C   UNL     1       4.258   4.575  -8.808  0.00  0.00    -0.000 A 
ATOM     13  C   UNL     1       2.920   4.208  -8.758  0.00  0.00    -0.000 A 
ATOM     14  C   UNL     1       2.088   4.601  -7.733  0.00  0.00    -0.000 A 
ATOM     15  C   UNL     1       1.033   5.294  -3.236  0.00  0.00    -0.000 A 
ATOM     16  C   UNL     1       2.596   5.286  -6.648  0.00  0.00    -0.000 A 
ENDROOT
BRANCH   1  17
ATOM     17  C   UNL     1      -0.371   5.982  -6.145  0.00  0.00    +0.043 C 
BRANCH  17  18
ATOM     18  C   UNL     1      -1.842   5.655  -6.143  0.00  0.00    +0.077 C 
BRANCH  18  20
ATOM     19  C   UNL     1      -1.474   7.571  -4.827  0.00  0.00    +0.090 C 
ATOM     20  N   UNL     1      -2.444   6.525  -5.134  0.00  0.00    -0.270 NA
ATOM     21  C   UNL     1      -2.667   5.701  -3.952  0.00  0.00    +0.090 C 
ENDBRANCH  18  20
ENDBRANCH  17  18
ENDBRANCH   1  17
TORSDOF 3
ENDMDL
