MODEL 1
REMARK VINA RESULT:      -9.4      0.000      0.000
REMARK  Name = 
REMARK  2 active torsions:
REMARK  status: ('A' for Active; 'I' for Inactive)
REMARK    1  A    between atoms: C_2  and  C_3
REMARK    2  A    between atoms: C_3  and  C_5
REMARK                            x       y       z     vdW  Elec       q    Type
REMARK                         _______ _______ _______ _____ _____    ______ ____
ROOT
ATOM      1  C   UNL     1       2.704   5.870  -8.629  0.00  0.00    +0.052 C 
ATOM      2  C   UNL     1       2.061   5.688  -7.360  0.00  0.00    +0.009 C 
ATOM      3  C   UNL     1       0.597   6.251  -7.832  0.00  0.00    +0.001 C 
ATOM      4  C   UNL     1      -0.097   5.518  -6.457  0.00  0.00    +0.003 C 
ATOM      5  C   UNL     1       0.066   6.981  -5.625  0.00  0.00    +0.038 C 
ATOM      6  C   UNL     1       1.653   6.652  -4.983  0.00  0.00    +0.153 C 
ATOM      7  O   UNL     1       1.462   5.124  -4.922  0.00  0.00    -0.223 OA
ATOM      8  C   UNL     1      -0.724   6.524  -4.310  0.00  0.00    +0.036 C 
ATOM      9  C   UNL     1      -1.659   5.443  -4.567  0.00  0.00    -0.038 C 
ATOM     10  C   UNL     1      -2.328   5.108  -3.458  0.00  0.00    +0.034 C 
ATOM     11  C   UNL     1      -2.510   6.059  -2.347  0.00  0.00    +0.195 C 
ATOM     12  C   UNL     1      -2.265   7.449  -2.764  0.00  0.00    +0.038 C 
ATOM     13  O   UNL     1      -2.971   5.743  -1.232  0.00  0.00    -0.287 OA
ATOM     14  C   UNL     1      -2.404   5.226  -5.847  0.00  0.00    +0.022 C 
ATOM     15  C   UNL     1       0.141   6.328  -3.146  0.00  0.00    +0.009 C 
ATOM     16  C   UNL     1      -1.615   7.670  -3.912  0.00  0.00    -0.020 C 
ATOM     17  C   UNL     1      -1.596   5.902  -6.919  0.00  0.00    +0.004 C 
ATOM     18  C   UNL     1       0.451   4.905  -8.749  0.00  0.00    +0.000 C 
ATOM     19  C   UNL     1       1.960   4.247  -7.105  0.00  0.00    +0.000 C 
ATOM     20  C   UNL     1       2.426   6.677  -6.452  0.00  0.00    +0.033 C 
ATOM     21  C   UNL     1       1.666   5.335  -9.789  0.00  0.00    +0.007 C 
ATOM     22  C   UNL     1       0.989   6.833 -10.042  0.00  0.00    +0.000 C 
ATOM     23  C   UNL     1       3.155   7.236  -9.009  0.00  0.00    +0.007 C 
ENDROOT
BRANCH   1  24
ATOM     24  C   UNL     1       3.875   4.981  -8.940  0.00  0.00    +0.150 C 
ATOM     25  O   UNL     1       4.081   4.498 -10.038  0.00  0.00    -0.296 OA
BRANCH  24  27
ATOM     26  C   UNL     1       6.095   5.361  -8.776  0.00  0.00    +0.008 C 
ATOM     27  C   UNL     1       5.140   5.379  -8.231  0.00  0.00    +0.064 C 
ENDBRANCH  24  27
ENDBRANCH   1  24
TORSDOF 2
ENDMDL
MODEL 2
REMARK VINA RESULT:      -9.3      2.643      4.596
REMARK  Name = 
REMARK  2 active torsions:
REMARK  status: ('A' for Active; 'I' for Inactive)
REMARK    1  A    between atoms: C_2  and  C_3
REMARK    2  A    between atoms: C_3  and  C_5
REMARK                            x       y       z     vdW  Elec       q    Type
REMARK                         _______ _______ _______ _____ _____    ______ ____
ROOT
ATOM      1  C   UNL     1       2.018   5.409  -8.517  0.00  0.00    +0.052 C 
ATOM      2  C   UNL     1       1.894   5.741  -7.127  0.00  0.00    +0.009 C 
ATOM      3  C   UNL     1       3.501   5.737  -6.810  0.00  0.00    +0.001 C 
ATOM      4  C   UNL     1       3.190   6.598  -5.371  0.00  0.00    +0.003 C 
ATOM      5  C   UNL     1       3.141   5.132  -4.532  0.00  0.00    +0.038 C 
ATOM      6  C   UNL     1       1.429   4.866  -4.726  0.00  0.00    +0.153 C 
ATOM      7  O   UNL     1       1.062   6.361  -4.773  0.00  0.00    -0.223 OA
ATOM      8  C   UNL     1       3.026   5.769  -3.068  0.00  0.00    +0.036 C 
ATOM      9  C   UNL     1       3.565   7.116  -3.003  0.00  0.00    -0.038 C 
ATOM     10  C   UNL     1       3.487   7.609  -1.761  0.00  0.00    +0.034 C 
ATOM     11  C   UNL     1       3.424   6.726  -0.582  0.00  0.00    +0.195 C 
ATOM     12  C   UNL     1       3.869   5.358  -0.892  0.00  0.00    +0.038 C 
ATOM     13  O   UNL     1       3.179   7.129   0.573  0.00  0.00    -0.287 OA
ATOM     14  C   UNL     1       4.706   7.636  -3.821  0.00  0.00    +0.022 C 
ATOM     15  C   UNL     1       1.707   5.602  -2.458  0.00  0.00    +0.009 C 
ATOM     16  C   UNL     1       3.944   4.981  -2.172  0.00  0.00    -0.020 C 
ATOM     17  C   UNL     1       4.763   6.774  -5.051  0.00  0.00    +0.004 C 
ATOM     18  C   UNL     1       3.613   7.093  -7.717  0.00  0.00    +0.000 C 
ATOM     19  C   UNL     1       1.390   7.115  -7.033  0.00  0.00    +0.000 C 
ATOM     20  C   UNL     1       1.489   4.645  -6.371  0.00  0.00    +0.033 C 
ATOM     21  C   UNL     1       3.241   6.321  -9.135  0.00  0.00    +0.007 C 
ATOM     22  C   UNL     1       4.401   5.160  -8.867  0.00  0.00    +0.000 C 
ATOM     23  C   UNL     1       2.268   3.990  -8.890  0.00  0.00    +0.007 C 
ENDROOT
BRANCH   1  24
ATOM     24  C   UNL     1       0.913   5.855  -9.432  0.00  0.00    +0.150 C 
ATOM     25  O   UNL     1       0.958   6.874 -10.095  0.00  0.00    -0.296 OA
BRANCH  24  27
ATOM     26  C   UNL     1      -0.161   4.883 -11.164  0.00  0.00    +0.008 C 
ATOM     27  C   UNL     1       0.227   4.724 -10.147  0.00  0.00    +0.064 C 
ENDBRANCH  24  27
ENDBRANCH   1  24
TORSDOF 2
ENDMDL
MODEL 3
REMARK VINA RESULT:      -9.3      2.626      6.956
REMARK  Name = 
REMARK  2 active torsions:
REMARK  status: ('A' for Active; 'I' for Inactive)
REMARK    1  A    between atoms: C_2  and  C_3
REMARK    2  A    between atoms: C_3  and  C_5
REMARK                            x       y       z     vdW  Elec       q    Type
REMARK                         _______ _______ _______ _____ _____    ______ ____
ROOT
ATOM      1  C   UNL     1       2.312   5.515  -6.525  0.00  0.00    +0.052 C 
ATOM      2  C   UNL     1       2.457   5.860  -7.909  0.00  0.00    +0.009 C 
ATOM      3  C   UNL     1       0.902   5.552  -8.321  0.00  0.00    +0.001 C 
ATOM      4  C   UNL     1       1.132   6.453  -9.752  0.00  0.00    +0.003 C 
ATOM      5  C   UNL     1       1.508   5.018 -10.565  0.00  0.00    +0.038 C 
ATOM      6  C   UNL     1       3.224   5.080 -10.265  0.00  0.00    +0.153 C 
ATOM      7  O   UNL     1       3.300   6.618 -10.219  0.00  0.00    -0.223 OA
ATOM      8  C   UNL     1       1.590   5.662 -12.029  0.00  0.00    +0.036 C 
ATOM      9  C   UNL     1       0.813   6.883 -12.146  0.00  0.00    -0.038 C 
ATOM     10  C   UNL     1       0.873   7.377 -13.388  0.00  0.00    +0.034 C 
ATOM     11  C   UNL     1       1.172   6.518 -14.548  0.00  0.00    +0.195 C 
ATOM     12  C   UNL     1       0.974   5.092 -14.245  0.00  0.00    +0.038 C 
ATOM     13  O   UNL     1       1.407   6.956 -15.692  0.00  0.00    -0.287 OA
ATOM     14  C   UNL     1      -0.453   7.180 -11.405  0.00  0.00    +0.022 C 
ATOM     15  C   UNL     1       2.952   5.743 -12.556  0.00  0.00    +0.009 C 
ATOM     16  C   UNL     1       0.893   4.712 -12.966  0.00  0.00    -0.020 C 
ATOM     17  C   UNL     1      -0.422   6.328 -10.168  0.00  0.00    +0.004 C 
ATOM     18  C   UNL     1       0.481   6.866  -7.443  0.00  0.00    +0.000 C 
ATOM     19  C   UNL     1       2.698   7.305  -7.994  0.00  0.00    +0.000 C 
ATOM     20  C   UNL     1       3.106   4.858  -8.624  0.00  0.00    +0.033 C 
ATOM     21  C   UNL     1       0.904   6.183  -5.994  0.00  0.00    +0.007 C 
ATOM     22  C   UNL     1       0.001   4.823  -6.313  0.00  0.00    +0.000 C 
ATOM     23  C   UNL     1       2.311   4.076  -6.147  0.00  0.00    +0.007 C 
ENDROOT
BRANCH   1  24
ATOM     24  C   UNL     1       3.256   6.165  -5.552  0.00  0.00    +0.150 C 
ATOM     25  O   UNL     1       2.895   6.907  -4.658  0.00  0.00    -0.296 OA
BRANCH  24  27
ATOM     26  C   UNL     1       4.890   5.436  -4.174  0.00  0.00    +0.008 C 
ATOM     27  C   UNL     1       4.410   5.288  -5.153  0.00  0.00    +0.064 C 
ENDBRANCH  24  27
ENDBRANCH   1  24
TORSDOF 2
ENDMDL
MODEL 4
REMARK VINA RESULT:      -9.2      2.594      6.183
REMARK  Name = 
REMARK  2 active torsions:
REMARK  status: ('A' for Active; 'I' for Inactive)
REMARK    1  A    between atoms: C_2  and  C_3
REMARK    2  A    between atoms: C_3  and  C_5
REMARK                            x       y       z     vdW  Elec       q    Type
REMARK                         _______ _______ _______ _____ _____    ______ ____
ROOT
ATOM      1  C   UNL     1       3.463   6.347  -3.386  0.00  0.00    +0.052 C 
ATOM      2  C   UNL     1       2.685   5.884  -4.499  0.00  0.00    +0.009 C 
ATOM      3  C   UNL     1       3.667   6.499  -5.657  0.00  0.00    +0.001 C 
ATOM      4  C   UNL     1       2.919   5.474  -6.796  0.00  0.00    +0.003 C 
ATOM      5  C   UNL     1       1.859   6.730  -7.194  0.00  0.00    +0.038 C 
ATOM      6  C   UNL     1       0.631   6.311  -6.030  0.00  0.00    +0.153 C 
ATOM      7  O   UNL     1       0.937   4.801  -6.045  0.00  0.00    -0.223 OA
ATOM      8  C   UNL     1       1.157   5.985  -8.425  0.00  0.00    +0.036 C 
ATOM      9  C   UNL     1       2.002   4.961  -9.013  0.00  0.00    -0.038 C 
ATOM     10  C   UNL     1       1.402   4.381 -10.059  0.00  0.00    +0.034 C 
ATOM     11  C   UNL     1       0.349   5.071 -10.826  0.00  0.00    +0.195 C 
ATOM     12  C   UNL     1       0.353   6.523 -10.589  0.00  0.00    +0.038 C 
ATOM     13  O   UNL     1      -0.354   4.514 -11.693  0.00  0.00    -0.287 OA
ATOM     14  C   UNL     1       3.497   5.003  -9.081  0.00  0.00    +0.022 C 
ATOM     15  C   UNL     1      -0.218   5.568  -8.149  0.00  0.00    +0.009 C 
ATOM     16  C   UNL     1       1.015   6.999  -9.529  0.00  0.00    -0.020 C 
ATOM     17  C   UNL     1       3.939   5.911  -7.968  0.00  0.00    +0.004 C 
ATOM     18  C   UNL     1       4.772   5.375  -5.220  0.00  0.00    +0.000 C 
ATOM     19  C   UNL     1       2.766   4.420  -4.530  0.00  0.00    +0.000 C 
ATOM     20  C   UNL     1       1.551   6.666  -4.695  0.00  0.00    +0.033 C 
ATOM     21  C   UNL     1       5.044   6.046  -3.730  0.00  0.00    +0.007 C 
ATOM     22  C   UNL     1       5.308   7.546  -4.397  0.00  0.00    +0.000 C 
ATOM     23  C   UNL     1       3.344   7.774  -2.980  0.00  0.00    +0.007 C 
ENDROOT
BRANCH   1  24
ATOM     24  C   UNL     1       3.355   5.574  -2.102  0.00  0.00    +0.150 C 
ATOM     25  O   UNL     1       4.318   5.174  -1.475  0.00  0.00    -0.296 OA
BRANCH  24  27
ATOM     26  C   UNL     1       1.397   5.340  -1.003  0.00  0.00    +0.008 C 
ATOM     27  C   UNL     1       2.229   6.028  -1.217  0.00  0.00    +0.064 C 
ENDBRANCH  24  27
ENDBRANCH   1  24
TORSDOF 2
ENDMDL
MODEL 5
REMARK VINA RESULT:      -9.2      2.459      8.196
REMARK  Name = 
REMARK  2 active torsions:
REMARK  status: ('A' for Active; 'I' for Inactive)
REMARK    1  A    between atoms: C_2  and  C_3
REMARK    2  A    between atoms: C_3  and  C_5
REMARK                            x       y       z     vdW  Elec       q    Type
REMARK                         _______ _______ _______ _____ _____    ______ ____
ROOT
ATOM      1  C   UNL     1       1.920   5.908  -7.011  0.00  0.00    +0.052 C 
ATOM      2  C   UNL     1       2.567   5.689  -8.272  0.00  0.00    +0.009 C 
ATOM      3  C   UNL     1       3.999   6.358  -7.842  0.00  0.00    +0.001 C 
ATOM      4  C   UNL     1       4.729   5.586  -9.177  0.00  0.00    +0.003 C 
ATOM      5  C   UNL     1       4.482   6.987 -10.091  0.00  0.00    +0.038 C 
ATOM      6  C   UNL     1       2.914   6.534 -10.703  0.00  0.00    +0.153 C 
ATOM      7  O   UNL     1       3.188   5.019 -10.677  0.00  0.00    -0.223 OA
ATOM      8  C   UNL     1       5.291   6.499 -11.384  0.00  0.00    +0.036 C 
ATOM      9  C   UNL     1       6.286   5.488 -11.070  0.00  0.00    -0.038 C 
ATOM     10  C   UNL     1       6.969   5.126 -12.163  0.00  0.00    +0.034 C 
ATOM     11  C   UNL     1       7.094   6.021 -13.328  0.00  0.00    +0.195 C 
ATOM     12  C   UNL     1       6.774   7.417 -12.989  0.00  0.00    +0.038 C 
ATOM     13  O   UNL     1       7.568   5.667 -14.426  0.00  0.00    -0.287 OA
ATOM     14  C   UNL     1       7.046   5.387  -9.784  0.00  0.00    +0.022 C 
ATOM     15  C   UNL     1       4.435   6.189 -12.528  0.00  0.00    +0.009 C 
ATOM     16  C   UNL     1       6.117   7.668 -11.852  0.00  0.00    -0.020 C 
ATOM     17  C   UNL     1       6.205   6.078  -8.748  0.00  0.00    +0.004 C 
ATOM     18  C   UNL     1       4.223   5.077  -6.851  0.00  0.00    +0.000 C 
ATOM     19  C   UNL     1       2.747   4.243  -8.444  0.00  0.00    +0.000 C 
ATOM     20  C   UNL     1       2.146   6.602  -9.233  0.00  0.00    +0.033 C 
ATOM     21  C   UNL     1       2.989   5.500  -5.829  0.00  0.00    +0.007 C 
ATOM     22  C   UNL     1       3.583   7.044  -5.667  0.00  0.00    +0.000 C 
ATOM     23  C   UNL     1       1.395   7.267  -6.708  0.00  0.00    +0.007 C 
ENDROOT
BRANCH   1  24
ATOM     24  C   UNL     1       0.801   4.976  -6.642  0.00  0.00    +0.150 C 
ATOM     25  O   UNL     1       0.722   4.411  -5.567  0.00  0.00    -0.296 OA
BRANCH  24  27
ATOM     26  C   UNL     1      -1.456   5.068  -6.667  0.00  0.00    +0.008 C 
ATOM     27  C   UNL     1      -0.539   5.398  -7.179  0.00  0.00    +0.064 C 
ENDBRANCH  24  27
ENDBRANCH   1  24
TORSDOF 2
ENDMDL
MODEL 6
REMARK VINA RESULT:      -8.7      0.935      1.044
REMARK  Name = 
REMARK  2 active torsions:
REMARK  status: ('A' for Active; 'I' for Inactive)
REMARK    1  A    between atoms: C_2  and  C_3
REMARK    2  A    between atoms: C_3  and  C_5
REMARK                            x       y       z     vdW  Elec       q    Type
REMARK                         _______ _______ _______ _____ _____    ______ ____
ROOT
ATOM      1  C   UNL     1       3.364   5.976  -9.435  0.00  0.00    +0.052 C 
ATOM      2  C   UNL     1       2.735   5.832  -8.154  0.00  0.00    +0.009 C 
ATOM      3  C   UNL     1       1.233   6.251  -8.657  0.00  0.00    +0.001 C 
ATOM      4  C   UNL     1       0.594   5.562  -7.233  0.00  0.00    +0.003 C 
ATOM      5  C   UNL     1       0.646   7.086  -6.502  0.00  0.00    +0.038 C 
ATOM      6  C   UNL     1       2.253   6.920  -5.845  0.00  0.00    +0.153 C 
ATOM      7  O   UNL     1       2.177   5.391  -5.681  0.00  0.00    -0.223 OA
ATOM      8  C   UNL     1      -0.108   6.661  -5.156  0.00  0.00    +0.036 C 
ATOM      9  C   UNL     1      -0.959   5.498  -5.336  0.00  0.00    -0.038 C 
ATOM     10  C   UNL     1      -1.603   5.189  -4.204  0.00  0.00    +0.034 C 
ATOM     11  C   UNL     1      -1.856   6.197  -3.159  0.00  0.00    +0.195 C 
ATOM     12  C   UNL     1      -1.716   7.570  -3.670  0.00  0.00    +0.038 C 
ATOM     13  O   UNL     1      -2.294   5.923  -2.024  0.00  0.00    -0.287 OA
ATOM     14  C   UNL     1      -1.684   5.140  -6.596  0.00  0.00    +0.022 C 
ATOM     15  C   UNL     1       0.767   6.609  -3.985  0.00  0.00    +0.009 C 
ATOM     16  C   UNL     1      -1.084   7.761  -4.832  0.00  0.00    -0.020 C 
ATOM     17  C   UNL     1      -0.928   5.801  -7.714  0.00  0.00    +0.004 C 
ATOM     18  C   UNL     1       1.190   4.839  -9.480  0.00  0.00    +0.000 C 
ATOM     19  C   UNL     1       2.742   4.408  -7.803  0.00  0.00    +0.000 C 
ATOM     20  C   UNL     1       3.023   6.905  -7.315  0.00  0.00    +0.033 C 
ATOM     21  C   UNL     1       2.370   5.288 -10.552  0.00  0.00    +0.007 C 
ATOM     22  C   UNL     1       1.583   6.711 -10.902  0.00  0.00    +0.000 C 
ATOM     23  C   UNL     1       3.711   7.344  -9.907  0.00  0.00    +0.007 C 
ENDROOT
BRANCH   1  24
ATOM     24  C   UNL     1       4.599   5.159  -9.690  0.00  0.00    +0.150 C 
ATOM     25  O   UNL     1       5.006   4.883 -10.803  0.00  0.00    -0.296 OA
BRANCH  24  27
ATOM     26  C   UNL     1       6.740   5.534  -9.079  0.00  0.00    +0.008 C 
ATOM     27  C   UNL     1       5.709   5.421  -8.711  0.00  0.00    +0.064 C 
ENDBRANCH  24  27
ENDBRANCH   1  24
TORSDOF 2
ENDMDL
MODEL 7
REMARK VINA RESULT:      -8.6      3.098      4.410
REMARK  Name = 
REMARK  2 active torsions:
REMARK  status: ('A' for Active; 'I' for Inactive)
REMARK    1  A    between atoms: C_2  and  C_3
REMARK    2  A    between atoms: C_3  and  C_5
REMARK                            x       y       z     vdW  Elec       q    Type
REMARK                         _______ _______ _______ _____ _____    ______ ____
ROOT
ATOM      1  C   UNL     1       2.186   5.776  -7.419  0.00  0.00    +0.052 C 
ATOM      2  C   UNL     1       2.944   5.849  -6.203  0.00  0.00    +0.009 C 
ATOM      3  C   UNL     1       1.659   6.114  -5.222  0.00  0.00    +0.001 C 
ATOM      4  C   UNL     1       2.627   5.679  -3.886  0.00  0.00    +0.003 C 
ATOM      5  C   UNL     1       2.993   7.312  -3.650  0.00  0.00    +0.038 C 
ATOM      6  C   UNL     1       4.416   7.329  -4.657  0.00  0.00    +0.153 C 
ATOM      7  O   UNL     1       4.782   5.855  -4.403  0.00  0.00    -0.223 OA
ATOM      8  C   UNL     1       3.789   7.117  -2.274  0.00  0.00    +0.036 C 
ATOM      9  C   UNL     1       3.394   5.912  -1.568  0.00  0.00    -0.038 C 
ATOM     10  C   UNL     1       4.050   5.795  -0.407  0.00  0.00    +0.034 C 
ATOM     11  C   UNL     1       4.606   6.970   0.288  0.00  0.00    +0.195 C 
ATOM     12  C   UNL     1       4.014   8.228  -0.192  0.00  0.00    +0.038 C 
ATOM     13  O   UNL     1       5.367   6.896   1.274  0.00  0.00    -0.287 OA
ATOM     14  C   UNL     1       2.028   5.300  -1.589  0.00  0.00    +0.022 C 
ATOM     15  C   UNL     1       5.232   7.315  -2.400  0.00  0.00    +0.009 C 
ATOM     16  C   UNL     1       3.348   8.223  -1.352  0.00  0.00    -0.020 C 
ATOM     17  C   UNL     1       1.382   5.769  -2.862  0.00  0.00    +0.004 C 
ATOM     18  C   UNL     1       1.201   4.573  -5.520  0.00  0.00    +0.000 C 
ATOM     19  C   UNL     1       3.491   4.516  -5.928  0.00  0.00    +0.000 C 
ATOM     20  C   UNL     1       3.604   7.068  -6.081  0.00  0.00    +0.033 C 
ATOM     21  C   UNL     1       0.854   4.857  -7.115  0.00  0.00    +0.007 C 
ATOM     22  C   UNL     1      -0.103   6.161  -6.728  0.00  0.00    +0.000 C 
ATOM     23  C   UNL     1       1.736   7.044  -8.054  0.00  0.00    +0.007 C 
ENDROOT
BRANCH   1  24
ATOM     24  C   UNL     1       2.770   4.970  -8.545  0.00  0.00    +0.150 C 
ATOM     25  O   UNL     1       2.160   4.099  -9.137  0.00  0.00    -0.296 OA
BRANCH  24  27
ATOM     26  C   UNL     1       4.748   5.504  -9.495  0.00  0.00    +0.008 C 
ATOM     27  C   UNL     1       3.679   5.760  -9.445  0.00  0.00    +0.064 C 
ENDBRANCH  24  27
ENDBRANCH   1  24
TORSDOF 2
ENDMDL
MODEL 8
REMARK VINA RESULT:      -8.6      2.838      6.950
REMARK  Name = 
REMARK  2 active torsions:
REMARK  status: ('A' for Active; 'I' for Inactive)
REMARK    1  A    between atoms: C_2  and  C_3
REMARK    2  A    between atoms: C_3  and  C_5
REMARK                            x       y       z     vdW  Elec       q    Type
REMARK                         _______ _______ _______ _____ _____    ______ ____
ROOT
ATOM      1  C   UNL     1       2.686   5.824  -1.606  0.00  0.00    +0.052 C 
ATOM      2  C   UNL     1       3.113   6.073  -2.952  0.00  0.00    +0.009 C 
ATOM      3  C   UNL     1       1.778   5.449  -3.668  0.00  0.00    +0.001 C 
ATOM      4  C   UNL     1       2.210   6.254  -5.110  0.00  0.00    +0.003 C 
ATOM      5  C   UNL     1       2.999   4.851  -5.628  0.00  0.00    +0.038 C 
ATOM      6  C   UNL     1       4.554   5.254  -4.952  0.00  0.00    +0.153 C 
ATOM      7  O   UNL     1       4.371   6.778  -5.084  0.00  0.00    -0.223 OA
ATOM      8  C   UNL     1       3.338   5.374  -7.102  0.00  0.00    +0.036 C 
ATOM      9  C   UNL     1       2.429   6.415  -7.547  0.00  0.00    -0.038 C 
ATOM     10  C   UNL     1       2.716   6.807  -8.795  0.00  0.00    +0.034 C 
ATOM     11  C   UNL     1       3.426   5.924  -9.738  0.00  0.00    +0.195 C 
ATOM     12  C   UNL     1       3.389   4.516  -9.311  0.00  0.00    +0.038 C 
ATOM     13  O   UNL     1       3.865   6.301 -10.843  0.00  0.00    -0.287 OA
ATOM     14  C   UNL     1       0.988   6.535  -7.160  0.00  0.00    +0.022 C 
ATOM     15  C   UNL     1       4.757   5.662  -7.309  0.00  0.00    +0.009 C 
ATOM     16  C   UNL     1       3.055   4.236  -8.048  0.00  0.00    -0.020 C 
ATOM     17  C   UNL     1       0.847   5.809  -5.852  0.00  0.00    +0.004 C 
ATOM     18  C   UNL     1       0.949   6.731  -3.083  0.00  0.00    +0.000 C 
ATOM     19  C   UNL     1       3.134   7.525  -3.160  0.00  0.00    +0.000 C 
ATOM     20  C   UNL     1       4.070   5.152  -3.368  0.00  0.00    +0.033 C 
ATOM     21  C   UNL     1       1.103   6.261  -1.501  0.00  0.00    +0.007 C 
ATOM     22  C   UNL     1       0.536   4.736  -1.845  0.00  0.00    +0.000 C 
ATOM     23  C   UNL     1       2.821   4.446  -1.061  0.00  0.00    +0.007 C 
ENDROOT
BRANCH   1  24
ATOM     24  C   UNL     1       3.243   6.716  -0.533  0.00  0.00    +0.150 C 
ATOM     25  O   UNL     1       2.587   7.136   0.402  0.00  0.00    -0.296 OA
BRANCH  24  27
ATOM     26  C   UNL     1       5.224   7.086   0.488  0.00  0.00    +0.008 C 
ATOM     27  C   UNL     1       4.660   6.388  -0.150  0.00  0.00    +0.064 C 
ENDBRANCH  24  27
ENDBRANCH   1  24
TORSDOF 2
ENDMDL
MODEL 9
REMARK VINA RESULT:      -8.5      1.434      6.833
REMARK  Name = 
REMARK  2 active torsions:
REMARK  status: ('A' for Active; 'I' for Inactive)
REMARK    1  A    between atoms: C_2  and  C_3
REMARK    2  A    between atoms: C_3  and  C_5
REMARK                            x       y       z     vdW  Elec       q    Type
REMARK                         _______ _______ _______ _____ _____    ______ ____
ROOT
ATOM      1  C   UNL     1      -1.422   6.368  -3.259  0.00  0.00    +0.052 C 
ATOM      2  C   UNL     1      -0.367   6.460  -4.225  0.00  0.00    +0.009 C 
ATOM      3  C   UNL     1      -1.057   5.458  -5.322  0.00  0.00    +0.001 C 
ATOM      4  C   UNL     1       0.007   6.070  -6.507  0.00  0.00    +0.003 C 
ATOM      5  C   UNL     1       1.065   4.792  -6.182  0.00  0.00    +0.038 C 
ATOM      6  C   UNL     1       1.981   5.621  -4.952  0.00  0.00    +0.153 C 
ATOM      7  O   UNL     1       1.769   7.026  -5.545  0.00  0.00    -0.223 OA
ATOM      8  C   UNL     1       2.093   5.107  -7.368  0.00  0.00    +0.036 C 
ATOM      9  C   UNL     1       1.477   5.844  -8.458  0.00  0.00    -0.038 C 
ATOM     10  C   UNL     1       2.350   6.062  -9.449  0.00  0.00    +0.034 C 
ATOM     11  C   UNL     1       3.525   5.194  -9.648  0.00  0.00    +0.195 C 
ATOM     12  C   UNL     1       3.385   3.906  -8.951  0.00  0.00    +0.038 C 
ATOM     13  O   UNL     1       4.452   5.454 -10.442  0.00  0.00    -0.287 OA
ATOM     14  C   UNL     1       0.047   5.729  -8.886  0.00  0.00    +0.022 C 
ATOM     15  C   UNL     1       3.374   5.642  -6.907  0.00  0.00    +0.009 C 
ATOM     16  C   UNL     1       2.454   3.789  -7.999  0.00  0.00    -0.020 C 
ATOM     17  C   UNL     1      -0.707   5.230  -7.686  0.00  0.00    +0.004 C 
ATOM     18  C   UNL     1      -2.175   6.623  -5.580  0.00  0.00    +0.000 C 
ATOM     19  C   UNL     1      -0.360   7.826  -4.761  0.00  0.00    +0.000 C 
ATOM     20  C   UNL     1       0.738   5.699  -3.855  0.00  0.00    +0.033 C 
ATOM     21  C   UNL     1      -2.848   6.480  -4.073  0.00  0.00    +0.007 C 
ATOM     22  C   UNL     1      -3.014   4.834  -4.248  0.00  0.00    +0.000 C 
ATOM     23  C   UNL     1      -1.484   5.165  -2.385  0.00  0.00    +0.007 C 
ENDROOT
BRANCH   1  24
ATOM     24  C   UNL     1      -1.601   7.530  -2.322  0.00  0.00    +0.150 C 
ATOM     25  O   UNL     1      -2.298   8.495  -2.572  0.00  0.00    -0.296 OA
BRANCH  24  27
ATOM     26  C   UNL     1      -1.674   7.917  -0.098  0.00  0.00    +0.008 C 
ATOM     27  C   UNL     1      -1.648   7.135  -0.873  0.00  0.00    +0.064 C 
ENDBRANCH  24  27
ENDBRANCH   1  24
TORSDOF 2
ENDMDL
