MODEL 1
REMARK VINA RESULT:      -6.4      0.000      0.000
REMARK  Name = 
REMARK  3 active torsions:
REMARK  status: ('A' for Active; 'I' for Inactive)
REMARK    1  A    between atoms: C_2  and  C_4
REMARK    2  A    between atoms: N_7  and  C1*_8
REMARK    3  A    between atoms: C4*_10  and  C5*_11
REMARK                            x       y       z     vdW  Elec       q    Type
REMARK                         _______ _______ _______ _____ _____    ______ ____
ROOT
ATOM      1  C1* UNL     1       2.546   6.722  -4.031  0.00  0.00    +0.256 C 
ATOM      2  C2* UNL     1       3.601   5.383  -4.452  0.00  0.00    +0.235 C 
ATOM      3  O2* UNL     1       4.757   6.359  -4.607  0.00  0.00    -0.215 OA
ATOM      4  C3* UNL     1       3.194   5.356  -6.122  0.00  0.00    +0.216 C 
ATOM      5  O3* UNL     1       4.629   5.299  -6.627  0.00  0.00    -0.218 OA
ATOM      6  C4* UNL     1       3.160   7.099  -6.105  0.00  0.00    +0.183 C 
ATOM      7  O4* UNL     1       1.834   6.799  -5.390  0.00  0.00    -0.330 OA
ENDROOT
BRANCH   1  10
ATOM      8  C   UNL     1      -0.661   5.283  -3.103  0.00  0.00    +0.240 A 
ATOM      9  N   UNL     1       0.204   5.815  -3.969  0.00  0.00    -0.141 NA
ATOM     10  N   UNL     1       1.406   5.742  -3.422  0.00  0.00    -0.202 N 
ATOM     11  C   UNL     1       1.215   5.643  -2.122  0.00  0.00    +0.199 A 
ATOM     12  N   UNL     1       0.066   4.927  -2.015  0.00  0.00    -0.199 NA
BRANCH   8  14
ATOM     13  N   UNL     1      -2.655   6.526  -4.047  0.00  0.00    -0.081 NA
ATOM     14  C   UNL     1      -2.107   5.534  -3.181  0.00  0.00    +0.322 C 
ATOM     15  O   UNL     1      -2.834   4.677  -2.593  0.00  0.00    -0.263 OA
ENDBRANCH   8  14
ENDBRANCH   1  10
BRANCH   6  16
ATOM     16  C5* UNL     1       2.386   7.084  -7.593  0.00  0.00    +0.214 C 
ATOM     17  O5* UNL     1       2.114   8.425  -7.841  0.00  0.00    -0.218 OA
ENDBRANCH   6  16
TORSDOF 3
ENDMDL
MODEL 2
REMARK VINA RESULT:      -6.2      6.167      8.965
REMARK  Name = 
REMARK  3 active torsions:
REMARK  status: ('A' for Active; 'I' for Inactive)
REMARK    1  A    between atoms: C_2  and  C_4
REMARK    2  A    between atoms: N_7  and  C1*_8
REMARK    3  A    between atoms: C4*_10  and  C5*_11
REMARK                            x       y       z     vdW  Elec       q    Type
REMARK                         _______ _______ _______ _____ _____    ______ ____
ROOT
ATOM      1  C1* UNL     1       2.020   6.456 -11.668  0.00  0.00    +0.256 C 
ATOM      2  C2* UNL     1       1.044   5.062 -11.234  0.00  0.00    +0.235 C 
ATOM      3  O2* UNL     1      -0.183   5.957 -11.166  0.00  0.00    -0.215 OA
ATOM      4  C3* UNL     1       1.381   5.128  -9.550  0.00  0.00    +0.216 C 
ATOM      5  O3* UNL     1      -0.067   4.986  -9.101  0.00  0.00    -0.218 OA
ATOM      6  C4* UNL     1       1.293   6.866  -9.637  0.00  0.00    +0.183 C 
ATOM      7  O4* UNL     1       2.666   6.636 -10.285  0.00  0.00    -0.330 OA
ENDROOT
BRANCH   1  10
ATOM      8  C   UNL     1       5.357   5.207 -12.388  0.00  0.00    +0.240 A 
ATOM      9  N   UNL     1       4.414   5.702 -11.583  0.00  0.00    -0.141 NA
ATOM     10  N   UNL     1       3.251   5.538 -12.189  0.00  0.00    -0.202 N 
ATOM     11  C   UNL     1       3.517   5.422 -13.475  0.00  0.00    +0.199 A 
ATOM     12  N   UNL     1       4.714   4.779 -13.503  0.00  0.00    -0.199 NA
BRANCH   8  14
ATOM     13  N   UNL     1       7.816   4.671 -12.669  0.00  0.00    -0.081 NA
ATOM     14  C   UNL     1       6.778   5.553 -12.242  0.00  0.00    +0.322 C 
ATOM     15  O   UNL     1       7.008   6.755 -11.912  0.00  0.00    -0.263 OA
ENDBRANCH   8  14
ENDBRANCH   1  10
BRANCH   6  16
ATOM     16  C5* UNL     1       2.001   6.964  -8.120  0.00  0.00    +0.214 C 
ATOM     17  O5* UNL     1       2.123   8.331  -7.895  0.00  0.00    -0.218 OA
ENDBRANCH   6  16
TORSDOF 3
ENDMDL
MODEL 3
REMARK VINA RESULT:      -6.0      1.984      3.462
REMARK  Name = 
REMARK  3 active torsions:
REMARK  status: ('A' for Active; 'I' for Inactive)
REMARK    1  A    between atoms: C_2  and  C_4
REMARK    2  A    between atoms: N_7  and  C1*_8
REMARK    3  A    between atoms: C4*_10  and  C5*_11
REMARK                            x       y       z     vdW  Elec       q    Type
REMARK                         _______ _______ _______ _____ _____    ______ ____
ROOT
ATOM      1  C1* UNL     1       2.709   5.336  -4.216  0.00  0.00    +0.256 C 
ATOM      2  C2* UNL     1       3.261   6.906  -4.776  0.00  0.00    +0.235 C 
ATOM      3  O2* UNL     1       4.669   6.349  -4.910  0.00  0.00    -0.215 OA
ATOM      4  C3* UNL     1       3.505   7.576  -3.212  0.00  0.00    +0.216 C 
ATOM      5  O3* UNL     1       4.892   8.134  -3.502  0.00  0.00    -0.218 OA
ATOM      6  C4* UNL     1       4.123   6.033  -2.687  0.00  0.00    +0.183 C 
ATOM      7  O4* UNL     1       2.620   5.718  -2.730  0.00  0.00    -0.330 OA
ENDROOT
BRANCH   1  10
ATOM      8  C   UNL     1      -0.886   5.678  -3.797  0.00  0.00    +0.240 A 
ATOM      9  N   UNL     1       0.380   5.793  -3.392  0.00  0.00    -0.141 NA
ATOM     10  N   UNL     1       1.148   5.702  -4.464  0.00  0.00    -0.202 N 
ATOM     11  C   UNL     1       0.437   5.071  -5.376  0.00  0.00    +0.199 A 
ATOM     12  N   UNL     1      -0.836   5.481  -5.139  0.00  0.00    -0.199 NA
BRANCH   8  14
ATOM     13  N   UNL     1      -3.296   5.047  -3.344  0.00  0.00    -0.081 NA
ATOM     14  C   UNL     1      -1.981   5.342  -2.876  0.00  0.00    +0.322 C 
ATOM     15  O   UNL     1      -1.629   5.130  -1.677  0.00  0.00    -0.263 OA
ENDBRANCH   8  14
ENDBRANCH   1  10
BRANCH   6  16
ATOM     16  C5* UNL     1       3.993   6.538  -1.094  0.00  0.00    +0.214 C 
ATOM     17  O5* UNL     1       4.199   5.377  -0.357  0.00  0.00    -0.218 OA
ENDBRANCH   6  16
TORSDOF 3
ENDMDL
MODEL 4
REMARK VINA RESULT:      -5.9      5.744      8.266
REMARK  Name = 
REMARK  3 active torsions:
REMARK  status: ('A' for Active; 'I' for Inactive)
REMARK    1  A    between atoms: C_2  and  C_4
REMARK    2  A    between atoms: N_7  and  C1*_8
REMARK    3  A    between atoms: C4*_10  and  C5*_11
REMARK                            x       y       z     vdW  Elec       q    Type
REMARK                         _______ _______ _______ _____ _____    ______ ____
ROOT
ATOM      1  C1* UNL     1       3.908   4.569  -8.960  0.00  0.00    +0.256 C 
ATOM      2  C2* UNL     1       3.394   5.767  -7.783  0.00  0.00    +0.235 C 
ATOM      3  O2* UNL     1       2.582   4.699  -7.069  0.00  0.00    -0.215 OA
ATOM      4  C3* UNL     1       2.079   6.372  -8.710  0.00  0.00    +0.216 C 
ATOM      5  O3* UNL     1       1.063   6.329  -7.575  0.00  0.00    -0.218 OA
ATOM      6  C4* UNL     1       1.734   4.741  -9.218  0.00  0.00    +0.183 C 
ATOM      7  O4* UNL     1       2.969   5.035 -10.084  0.00  0.00    -0.330 OA
ENDROOT
BRANCH   1  10
ATOM      8  C   UNL     1       6.481   6.036 -11.068  0.00  0.00    +0.240 A 
ATOM      9  N   UNL     1       5.242   5.609 -10.817  0.00  0.00    -0.141 NA
ATOM     10  N   UNL     1       5.119   5.500  -9.506  0.00  0.00    -0.202 N 
ATOM     11  C   UNL     1       6.341   5.378  -9.028  0.00  0.00    +0.199 A 
ATOM     12  N   UNL     1       7.094   6.141  -9.863  0.00  0.00    -0.199 NA
BRANCH   8  14
ATOM     13  N   UNL     1       7.677   4.673 -12.836  0.00  0.00    -0.081 NA
ATOM     14  C   UNL     1       7.107   5.904 -12.391  0.00  0.00    +0.322 C 
ATOM     15  O   UNL     1       6.919   6.882 -13.176  0.00  0.00    -0.263 OA
ENDBRANCH   8  14
ENDBRANCH   1  10
BRANCH   6  16
ATOM     16  C5* UNL     1       0.725   5.342 -10.415  0.00  0.00    +0.214 C 
ATOM     17  O5* UNL     1      -0.058   4.250 -10.773  0.00  0.00    -0.218 OA
ENDBRANCH   6  16
TORSDOF 3
ENDMDL
MODEL 5
REMARK VINA RESULT:      -5.9      1.854      3.190
REMARK  Name = 
REMARK  3 active torsions:
REMARK  status: ('A' for Active; 'I' for Inactive)
REMARK    1  A    between atoms: C_2  and  C_4
REMARK    2  A    between atoms: N_7  and  C1*_8
REMARK    3  A    between atoms: C4*_10  and  C5*_11
REMARK                            x       y       z     vdW  Elec       q    Type
REMARK                         _______ _______ _______ _____ _____    ______ ____
ROOT
ATOM      1  C1* UNL     1       0.844   4.591  -6.329  0.00  0.00    +0.256 C 
ATOM      2  C2* UNL     1       1.345   5.800  -7.500  0.00  0.00    +0.235 C 
ATOM      3  O2* UNL     1       2.223   4.761  -8.179  0.00  0.00    -0.215 OA
ATOM      4  C3* UNL     1       2.605   6.465  -6.538  0.00  0.00    +0.216 C 
ATOM      5  O3* UNL     1       3.657   6.455  -7.639  0.00  0.00    -0.218 OA
ATOM      6  C4* UNL     1       3.000   4.854  -6.004  0.00  0.00    +0.183 C 
ATOM      7  O4* UNL     1       1.727   5.104  -5.181  0.00  0.00    -0.330 OA
ENDROOT
BRANCH   1  10
ATOM      8  C   UNL     1      -1.868   5.952  -4.326  0.00  0.00    +0.240 A 
ATOM      9  N   UNL     1      -0.605   5.570  -4.525  0.00  0.00    -0.141 NA
ATOM     10  N   UNL     1      -0.421   5.476  -5.830  0.00  0.00    -0.202 N 
ATOM     11  C   UNL     1      -1.616   5.317  -6.362  0.00  0.00    +0.199 A 
ATOM     12  N   UNL     1      -2.431   6.046  -5.556  0.00  0.00    -0.199 NA
BRANCH   8  14
ATOM     13  N   UNL     1      -3.102   6.896  -2.326  0.00  0.00    -0.081 NA
ATOM     14  C   UNL     1      -2.546   5.787  -3.032  0.00  0.00    +0.322 C 
ATOM     15  O   UNL     1      -2.785   4.587  -2.699  0.00  0.00    -0.263 OA
ENDBRANCH   8  14
ENDBRANCH   1  10
BRANCH   6  16
ATOM     16  C5* UNL     1       3.944   5.505  -4.781  0.00  0.00    +0.214 C 
ATOM     17  O5* UNL     1       3.893   4.549  -3.773  0.00  0.00    -0.218 OA
ENDBRANCH   6  16
TORSDOF 3
ENDMDL
MODEL 6
REMARK VINA RESULT:      -5.8      5.754      8.444
REMARK  Name = 
REMARK  3 active torsions:
REMARK  status: ('A' for Active; 'I' for Inactive)
REMARK    1  A    between atoms: C_2  and  C_4
REMARK    2  A    between atoms: N_7  and  C1*_8
REMARK    3  A    between atoms: C4*_10  and  C5*_11
REMARK                            x       y       z     vdW  Elec       q    Type
REMARK                         _______ _______ _______ _____ _____    ______ ____
ROOT
ATOM      1  C1* UNL     1       2.762   6.183  -9.824  0.00  0.00    +0.256 C 
ATOM      2  C2* UNL     1       2.033   4.646  -9.387  0.00  0.00    +0.235 C 
ATOM      3  O2* UNL     1       1.036   5.384  -8.507  0.00  0.00    -0.215 OA
ATOM      4  C3* UNL     1       3.130   4.286  -8.113  0.00  0.00    +0.216 C 
ATOM      5  O3* UNL     1       2.061   3.909  -7.096  0.00  0.00    -0.218 OA
ATOM      6  C4* UNL     1       3.107   5.971  -7.666  0.00  0.00    +0.183 C 
ATOM      7  O4* UNL     1       3.995   6.039  -8.918  0.00  0.00    -0.330 OA
ENDROOT
BRANCH   1  10
ATOM      8  C   UNL     1       5.332   5.357 -12.260  0.00  0.00    +0.240 A 
ATOM      9  N   UNL     1       4.866   5.505 -11.018  0.00  0.00    -0.141 NA
ATOM     10  N   UNL     1       3.547   5.545 -11.093  0.00  0.00    -0.202 N 
ATOM     11  C   UNL     1       3.257   5.908 -12.326  0.00  0.00    +0.199 A 
ATOM     12  N   UNL     1       4.245   5.347 -13.071  0.00  0.00    -0.199 NA
BRANCH   8  14
ATOM     13  N   UNL     1       7.711   4.636 -12.747  0.00  0.00    -0.081 NA
ATOM     14  C   UNL     1       6.725   5.660 -12.620  0.00  0.00    +0.322 C 
ATOM     15  O   UNL     1       6.934   6.848 -13.010  0.00  0.00    -0.263 OA
ENDBRANCH   8  14
ENDBRANCH   1  10
BRANCH   6  16
ATOM     16  C5* UNL     1       4.454   5.718  -6.699  0.00  0.00    +0.214 C 
ATOM     17  O5* UNL     1       4.230   6.531  -5.594  0.00  0.00    -0.218 OA
ENDBRANCH   6  16
TORSDOF 3
ENDMDL
MODEL 7
REMARK VINA RESULT:      -5.7      5.749      7.370
REMARK  Name = 
REMARK  3 active torsions:
REMARK  status: ('A' for Active; 'I' for Inactive)
REMARK    1  A    between atoms: C_2  and  C_4
REMARK    2  A    between atoms: N_7  and  C1*_8
REMARK    3  A    between atoms: C4*_10  and  C5*_11
REMARK                            x       y       z     vdW  Elec       q    Type
REMARK                         _______ _______ _______ _____ _____    ______ ____
ROOT
ATOM      1  C1* UNL     1       6.280   6.883 -10.678  0.00  0.00    +0.256 C 
ATOM      2  C2* UNL     1       7.112   5.361 -10.957  0.00  0.00    +0.235 C 
ATOM      3  O2* UNL     1       8.373   6.131 -11.315  0.00  0.00    -0.215 OA
ATOM      4  C3* UNL     1       6.581   5.166 -12.581  0.00  0.00    +0.216 C 
ATOM      5  O3* UNL     1       7.955   4.835 -13.149  0.00  0.00    -0.218 OA
ATOM      6  C4* UNL     1       6.783   6.881 -12.816  0.00  0.00    +0.183 C 
ATOM      7  O4* UNL     1       5.486   6.876 -11.993  0.00  0.00    -0.330 OA
ENDROOT
BRANCH   1  10
ATOM      8  C   UNL     1       3.239   6.319  -8.769  0.00  0.00    +0.240 A 
ATOM      9  N   UNL     1       3.936   6.846  -9.777  0.00  0.00    -0.141 NA
ATOM     10  N   UNL     1       5.067   6.169  -9.872  0.00  0.00    -0.202 N 
ATOM     11  C   UNL     1       5.266   5.613  -8.694  0.00  0.00    +0.199 A 
ATOM     12  N   UNL     1       4.013   5.333  -8.251  0.00  0.00    -0.199 NA
BRANCH   8  14
ATOM     13  N   UNL     1       1.051   6.343  -7.492  0.00  0.00    -0.081 NA
ATOM     14  C   UNL     1       2.132   7.034  -8.118  0.00  0.00    +0.322 C 
ATOM     15  O   UNL     1       2.311   8.280  -7.968  0.00  0.00    -0.263 OA
ENDBRANCH   8  14
ENDBRANCH   1  10
BRANCH   6  16
ATOM     16  C5* UNL     1       5.906   6.776 -14.240  0.00  0.00    +0.214 C 
ATOM     17  O5* UNL     1       6.305   7.895 -14.962  0.00  0.00    -0.218 OA
ENDBRANCH   6  16
TORSDOF 3
ENDMDL
MODEL 8
REMARK VINA RESULT:      -5.6      6.246      7.786
REMARK  Name = 
REMARK  3 active torsions:
REMARK  status: ('A' for Active; 'I' for Inactive)
REMARK    1  A    between atoms: C_2  and  C_4
REMARK    2  A    between atoms: N_7  and  C1*_8
REMARK    3  A    between atoms: C4*_10  and  C5*_11
REMARK                            x       y       z     vdW  Elec       q    Type
REMARK                         _______ _______ _______ _____ _____    ______ ____
ROOT
ATOM      1  C1* UNL     1       5.615   7.097 -10.892  0.00  0.00    +0.256 C 
ATOM      2  C2* UNL     1       6.678   5.709 -10.722  0.00  0.00    +0.235 C 
ATOM      3  O2* UNL     1       7.880   6.637 -10.793  0.00  0.00    -0.215 OA
ATOM      4  C3* UNL     1       6.698   5.298 -12.390  0.00  0.00    +0.216 C 
ATOM      5  O3* UNL     1       8.210   5.143 -12.489  0.00  0.00    -0.218 OA
ATOM      6  C4* UNL     1       6.744   6.998 -12.773  0.00  0.00    +0.183 C 
ATOM      7  O4* UNL     1       5.268   6.854 -12.369  0.00  0.00    -0.330 OA
ENDROOT
BRANCH   1  10
ATOM      8  C   UNL     1       2.233   5.803 -10.573  0.00  0.00    +0.240 A 
ATOM      9  N   UNL     1       3.333   6.114 -11.261  0.00  0.00    -0.141 NA
ATOM     10  N   UNL     1       4.314   6.269 -10.389  0.00  0.00    -0.202 N 
ATOM     11  C   UNL     1       3.742   6.536  -9.232  0.00  0.00    +0.199 A 
ATOM     12  N   UNL     1       2.590   5.816  -9.265  0.00  0.00    -0.199 NA
BRANCH   8  14
ATOM     13  N   UNL     1       0.166   4.815 -11.653  0.00  0.00    -0.081 NA
ATOM     14  C   UNL     1       0.884   5.938 -11.142  0.00  0.00    +0.322 C 
ATOM     15  O   UNL     1       0.331   7.063 -10.956  0.00  0.00    -0.263 OA
ENDBRANCH   8  14
ENDBRANCH   1  10
BRANCH   6  16
ATOM     16  C5* UNL     1       6.365   6.635 -14.365  0.00  0.00    +0.214 C 
ATOM     17  O5* UNL     1       6.340   7.875 -14.994  0.00  0.00    -0.218 OA
ENDBRANCH   6  16
TORSDOF 3
ENDMDL
MODEL 9
REMARK VINA RESULT:      -5.6      1.817      2.109
REMARK  Name = 
REMARK  3 active torsions:
REMARK  status: ('A' for Active; 'I' for Inactive)
REMARK    1  A    between atoms: C_2  and  C_4
REMARK    2  A    between atoms: N_7  and  C1*_8
REMARK    3  A    between atoms: C4*_10  and  C5*_11
REMARK                            x       y       z     vdW  Elec       q    Type
REMARK                         _______ _______ _______ _____ _____    ______ ____
ROOT
ATOM      1  C1* UNL     1       1.956   6.588  -6.037  0.00  0.00    +0.256 C 
ATOM      2  C2* UNL     1       2.927   5.167  -6.387  0.00  0.00    +0.235 C 
ATOM      3  O2* UNL     1       3.869   6.029  -7.212  0.00  0.00    -0.215 OA
ATOM      4  C3* UNL     1       1.987   4.637  -7.725  0.00  0.00    +0.216 C 
ATOM      5  O3* UNL     1       3.169   4.404  -8.657  0.00  0.00    -0.218 OA
ATOM      6  C4* UNL     1       1.801   6.301  -8.209  0.00  0.00    +0.183 C 
ATOM      7  O4* UNL     1       0.825   6.257  -7.023  0.00  0.00    -0.330 OA
ENDROOT
BRANCH   1  10
ATOM      8  C   UNL     1      -0.638   5.438  -3.765  0.00  0.00    +0.240 A 
ATOM      9  N   UNL     1      -0.112   5.636  -4.975  0.00  0.00    -0.141 NA
ATOM     10  N   UNL     1       1.181   5.861  -4.812  0.00  0.00    -0.202 N 
ATOM     11  C   UNL     1       1.331   6.274  -3.570  0.00  0.00    +0.199 A 
ATOM     12  N   UNL     1       0.381   5.588  -2.882  0.00  0.00    -0.199 NA
BRANCH   8  14
ATOM     13  N   UNL     1      -2.695   4.912  -2.385  0.00  0.00    -0.081 NA
ATOM     14  C   UNL     1      -2.081   5.546  -3.506  0.00  0.00    +0.322 C 
ATOM     15  O   UNL     1      -2.692   6.401  -4.215  0.00  0.00    -0.263 OA
ENDBRANCH   8  14
ENDBRANCH   1  10
BRANCH   6  16
ATOM     16  C5* UNL     1       0.578   5.845  -9.261  0.00  0.00    +0.214 C 
ATOM     17  O5* UNL     1       0.631   6.799 -10.270  0.00  0.00    -0.218 OA
ENDBRANCH   6  16
TORSDOF 3
ENDMDL
