MODEL 1
REMARK VINA RESULT:      -9.2      0.000      0.000
REMARK  Name = 
REMARK  0 active torsions:
REMARK  status: ('A' for Active; 'I' for Inactive)
REMARK                            x       y       z     vdW  Elec       q    Type
REMARK                         _______ _______ _______ _____ _____    ______ ____
ROOT
ATOM      1  C   UNL     1       1.893   6.781  -6.429  0.00  0.00    +0.003 C 
ATOM      2  C   UNL     1       2.404   5.482  -6.635  0.00  0.00    +0.028 C 
ATOM      3  C   UNL     1       1.284   4.367  -6.076  0.00  0.00    +0.152 C 
ATOM      4  O   UNL     1       1.183   5.083  -4.704  0.00  0.00    -0.223 OA
ATOM      5  C   UNL     1       0.018   5.289  -6.696  0.00  0.00    +0.033 C 
ATOM      6  C   UNL     1       0.577   5.710  -8.022  0.00  0.00    +0.003 C 
ATOM      7  C   UNL     1       1.971   4.851  -8.087  0.00  0.00    +0.003 C 
ATOM      8  C   UNL     1       2.869   6.036  -8.922  0.00  0.00    +0.004 C 
ATOM      9  C   UNL     1       4.227   5.005  -8.770  0.00  0.00    +0.022 C 
ATOM     10  C   UNL     1       5.183   5.979  -9.647  0.00  0.00    -0.026 A 
ATOM     11  C   UNL     1       4.811   5.767 -10.972  0.00  0.00    -0.023 A 
ATOM     12  C   UNL     1       3.404   6.125 -11.340  0.00  0.00    +0.026 C 
ATOM     13  C   UNL     1       5.705   5.542 -11.988  0.00  0.00    +0.037 A 
ATOM     14  C   UNL     1       7.032   5.349 -11.714  0.00  0.00    +0.195 A 
ATOM     15  O   UNL     1       7.887   4.660 -12.581  0.00  0.00    -0.287 OA
ATOM     16  C   UNL     1       7.459   5.611 -10.442  0.00  0.00    +0.042 A 
ATOM     17  C   UNL     1       6.524   5.672  -9.429  0.00  0.00    -0.001 A 
ATOM     18  C   UNL     1       4.655   5.703  -7.341  0.00  0.00    +0.004 C 
ATOM     19  C   UNL     1       2.458   5.438 -10.360  0.00  0.00    +0.005 C 
ATOM     20  C   UNL     1       3.732   5.032  -6.314  0.00  0.00    +0.003 C 
ENDROOT
TORSDOF 0
ENDMDL
MODEL 2
REMARK VINA RESULT:      -9.2      2.309      7.259
REMARK  Name = 
REMARK  0 active torsions:
REMARK  status: ('A' for Active; 'I' for Inactive)
REMARK                            x       y       z     vdW  Elec       q    Type
REMARK                         _______ _______ _______ _____ _____    ______ ____
ROOT
ATOM      1  C   UNL     1       3.247   6.793  -8.739  0.00  0.00    +0.003 C 
ATOM      2  C   UNL     1       2.715   5.498  -8.556  0.00  0.00    +0.028 C 
ATOM      3  C   UNL     1       3.837   4.373  -9.088  0.00  0.00    +0.152 C 
ATOM      4  O   UNL     1       3.988   5.096 -10.452  0.00  0.00    -0.223 OA
ATOM      5  C   UNL     1       5.095   5.277  -8.425  0.00  0.00    +0.033 C 
ATOM      6  C   UNL     1       4.502   5.696  -7.114  0.00  0.00    +0.003 C 
ATOM      7  C   UNL     1       3.096   4.854  -7.096  0.00  0.00    +0.003 C 
ATOM      8  C   UNL     1       2.188   6.046  -6.280  0.00  0.00    +0.004 C 
ATOM      9  C   UNL     1       0.823   5.033  -6.479  0.00  0.00    +0.022 C 
ATOM     10  C   UNL     1      -0.148   6.012  -5.626  0.00  0.00    -0.026 A 
ATOM     11  C   UNL     1       0.182   5.789  -4.292  0.00  0.00    -0.023 A 
ATOM     12  C   UNL     1       1.582   6.128  -3.880  0.00  0.00    +0.026 C 
ATOM     13  C   UNL     1      -0.744   5.569  -3.304  0.00  0.00    +0.037 A 
ATOM     14  C   UNL     1      -2.065   5.394  -3.618  0.00  0.00    +0.195 A 
ATOM     15  O   UNL     1      -2.953   4.711  -2.782  0.00  0.00    -0.287 OA
ATOM     16  C   UNL     1      -2.450   5.668  -4.901  0.00  0.00    +0.042 A 
ATOM     17  C   UNL     1      -1.485   5.724  -5.886  0.00  0.00    -0.001 A 
ATOM     18  C   UNL     1       0.446   5.744  -7.917  0.00  0.00    +0.004 C 
ATOM     19  C   UNL     1       2.549   5.435  -4.835  0.00  0.00    +0.005 C 
ATOM     20  C   UNL     1       1.391   5.067  -8.920  0.00  0.00    +0.003 C 
ENDROOT
TORSDOF 0
ENDMDL
MODEL 3
REMARK VINA RESULT:      -8.3      1.329      6.430
REMARK  Name = 
REMARK  0 active torsions:
REMARK  status: ('A' for Active; 'I' for Inactive)
REMARK                            x       y       z     vdW  Elec       q    Type
REMARK                         _______ _______ _______ _____ _____    ______ ____
ROOT
ATOM      1  C   UNL     1       6.377   7.570 -11.388  0.00  0.00    +0.003 C 
ATOM      2  C   UNL     1       5.818   6.285 -11.554  0.00  0.00    +0.028 C 
ATOM      3  C   UNL     1       7.029   5.227 -12.025  0.00  0.00    +0.152 C 
ATOM      4  O   UNL     1       7.471   6.168 -13.176  0.00  0.00    -0.223 OA
ATOM      5  C   UNL     1       8.113   5.954 -10.960  0.00  0.00    +0.033 C 
ATOM      6  C   UNL     1       7.251   6.163  -9.753  0.00  0.00    +0.003 C 
ATOM      7  C   UNL     1       5.875   5.383 -10.184  0.00  0.00    +0.003 C 
ATOM      8  C   UNL     1       4.812   6.450  -9.382  0.00  0.00    +0.004 C 
ATOM      9  C   UNL     1       3.522   5.538 -10.043  0.00  0.00    +0.022 C 
ATOM     10  C   UNL     1       2.390   6.392  -9.256  0.00  0.00    -0.026 A 
ATOM     11  C   UNL     1       2.424   5.929  -7.943  0.00  0.00    -0.023 A 
ATOM     12  C   UNL     1       3.702   6.138  -7.190  0.00  0.00    +0.026 C 
ATOM     13  C   UNL     1       1.306   5.576  -7.230  0.00  0.00    +0.037 A 
ATOM     14  C   UNL     1       0.085   5.508  -7.844  0.00  0.00    +0.195 A 
ATOM     15  O   UNL     1      -0.963   4.725  -7.350  0.00  0.00    -0.287 OA
ATOM     16  C   UNL     1      -0.015   6.014  -9.110  0.00  0.00    +0.042 A 
ATOM     17  C   UNL     1       1.141   6.203  -9.841  0.00  0.00    -0.001 A 
ATOM     18  C   UNL     1       3.465   6.501 -11.379  0.00  0.00    +0.004 C 
ATOM     19  C   UNL     1       4.852   5.585  -8.025  0.00  0.00    +0.005 C 
ATOM     20  C   UNL     1       4.605   5.972 -12.261  0.00  0.00    +0.003 C 
ENDROOT
TORSDOF 0
ENDMDL
MODEL 4
REMARK VINA RESULT:      -8.3      3.203      5.214
REMARK  Name = 
REMARK  0 active torsions:
REMARK  status: ('A' for Active; 'I' for Inactive)
REMARK                            x       y       z     vdW  Elec       q    Type
REMARK                         _______ _______ _______ _____ _____    ______ ____
ROOT
ATOM      1  C   UNL     1      -1.763   7.776  -3.308  0.00  0.00    +0.003 C 
ATOM      2  C   UNL     1      -1.188   6.499  -3.128  0.00  0.00    +0.028 C 
ATOM      3  C   UNL     1      -2.188   5.593  -2.135  0.00  0.00    +0.152 C 
ATOM      4  O   UNL     1      -2.227   6.717  -1.066  0.00  0.00    -0.223 OA
ATOM      5  C   UNL     1      -3.554   6.216  -2.898  0.00  0.00    +0.033 C 
ATOM      6  C   UNL     1      -3.128   6.195  -4.335  0.00  0.00    +0.003 C 
ATOM      7  C   UNL     1      -1.691   5.411  -4.248  0.00  0.00    +0.003 C 
ATOM      8  C   UNL     1      -0.939   6.286  -5.505  0.00  0.00    +0.004 C 
ATOM      9  C   UNL     1       0.490   5.410  -5.155  0.00  0.00    +0.022 C 
ATOM     10  C   UNL     1       1.311   6.073  -6.387  0.00  0.00    -0.026 A 
ATOM     11  C   UNL     1       0.851   5.425  -7.529  0.00  0.00    -0.023 A 
ATOM     12  C   UNL     1      -0.601   5.593  -7.859  0.00  0.00    +0.026 C 
ATOM     13  C   UNL     1       1.675   4.908  -8.497  0.00  0.00    +0.037 A 
ATOM     14  C   UNL     1       3.029   4.862  -8.302  0.00  0.00    +0.195 A 
ATOM     15  O   UNL     1       3.856   3.956  -8.974  0.00  0.00    -0.287 OA
ATOM     16  C   UNL     1       3.537   5.542  -7.230  0.00  0.00    +0.042 A 
ATOM     17  C   UNL     1       2.682   5.902  -6.208  0.00  0.00    -0.001 A 
ATOM     18  C   UNL     1       0.983   6.554  -4.076  0.00  0.00    +0.004 C 
ATOM     19  C   UNL     1      -1.422   5.234  -6.624  0.00  0.00    +0.005 C 
ATOM     20  C   UNL     1       0.187   6.226  -2.805  0.00  0.00    +0.003 C 
ENDROOT
TORSDOF 0
ENDMDL
MODEL 5
REMARK VINA RESULT:      -8.2      2.041      6.719
REMARK  Name = 
REMARK  0 active torsions:
REMARK  status: ('A' for Active; 'I' for Inactive)
REMARK                            x       y       z     vdW  Elec       q    Type
REMARK                         _______ _______ _______ _____ _____    ______ ____
ROOT
ATOM      1  C   UNL     1       3.658   4.188  -8.981  0.00  0.00    +0.003 C 
ATOM      2  C   UNL     1       3.591   5.480  -8.417  0.00  0.00    +0.028 C 
ATOM      3  C   UNL     1       4.160   6.588  -9.537  0.00  0.00    +0.152 C 
ATOM      4  O   UNL     1       5.461   5.772  -9.757  0.00  0.00    -0.223 OA
ATOM      5  C   UNL     1       3.384   5.764 -10.784  0.00  0.00    +0.033 C 
ATOM      6  C   UNL     1       2.070   5.427 -10.148  0.00  0.00    +0.003 C 
ATOM      7  C   UNL     1       2.169   6.237  -8.726  0.00  0.00    +0.003 C 
ATOM      8  C   UNL     1       1.303   5.088  -7.810  0.00  0.00    +0.004 C 
ATOM      9  C   UNL     1       1.629   6.053  -6.434  0.00  0.00    +0.022 C 
ATOM     10  C   UNL     1       0.743   5.116  -5.449  0.00  0.00    -0.026 A 
ATOM     11  C   UNL     1      -0.582   5.443  -5.721  0.00  0.00    -0.023 A 
ATOM     12  C   UNL     1      -1.072   5.166  -7.110  0.00  0.00    +0.026 C 
ATOM     13  C   UNL     1      -1.515   5.713  -4.752  0.00  0.00    +0.037 A 
ATOM     14  C   UNL     1      -1.138   5.835  -3.442  0.00  0.00    +0.195 A 
ATOM     15  O   UNL     1      -1.887   6.558  -2.507  0.00  0.00    -0.287 OA
ATOM     16  C   UNL     1       0.135   5.460  -3.113  0.00  0.00    +0.042 A 
ATOM     17  C   UNL     1       1.076   5.355  -4.118  0.00  0.00    -0.001 A 
ATOM     18  C   UNL     1       3.024   5.231  -6.129  0.00  0.00    +0.004 C 
ATOM     19  C   UNL     1      -0.106   5.810  -8.100  0.00  0.00    +0.005 C 
ATOM     20  C   UNL     1       4.036   5.855  -7.100  0.00  0.00    +0.003 C 
ENDROOT
TORSDOF 0
ENDMDL
MODEL 6
REMARK VINA RESULT:      -8.0      2.131      3.419
REMARK  Name = 
REMARK  0 active torsions:
REMARK  status: ('A' for Active; 'I' for Inactive)
REMARK                            x       y       z     vdW  Elec       q    Type
REMARK                         _______ _______ _______ _____ _____    ______ ____
ROOT
ATOM      1  C   UNL     1      -0.874   7.616  -4.901  0.00  0.00    +0.003 C 
ATOM      2  C   UNL     1       0.008   6.515  -4.861  0.00  0.00    +0.028 C 
ATOM      3  C   UNL     1      -0.573   5.398  -3.755  0.00  0.00    +0.152 C 
ATOM      4  O   UNL     1      -0.703   6.483  -2.654  0.00  0.00    -0.223 OA
ATOM      5  C   UNL     1      -2.153   5.674  -4.269  0.00  0.00    +0.033 C 
ATOM      6  C   UNL     1      -1.974   5.752  -5.755  0.00  0.00    +0.003 C 
ATOM      7  C   UNL     1      -0.399   5.335  -5.926  0.00  0.00    +0.003 C 
ATOM      8  C   UNL     1      -0.090   6.361  -7.253  0.00  0.00    +0.004 C 
ATOM      9  C   UNL     1       1.543   5.854  -7.167  0.00  0.00    +0.022 C 
ATOM     10  C   UNL     1       1.972   6.690  -8.488  0.00  0.00    -0.026 A 
ATOM     11  C   UNL     1       1.499   5.948  -9.566  0.00  0.00    -0.023 A 
ATOM     12  C   UNL     1       0.015   5.762  -9.655  0.00  0.00    +0.026 C 
ATOM     13  C   UNL     1       2.253   5.640 -10.671  0.00  0.00    +0.037 A 
ATOM     14  C   UNL     1       3.592   5.921 -10.695  0.00  0.00    +0.195 A 
ATOM     15  O   UNL     1       4.489   5.237 -11.523  0.00  0.00    -0.287 OA
ATOM     16  C   UNL     1       4.092   6.706  -9.694  0.00  0.00    +0.042 A 
ATOM     17  C   UNL     1       3.354   6.853  -8.536  0.00  0.00    -0.001 A 
ATOM     18  C   UNL     1       1.920   7.085  -6.140  0.00  0.00    +0.004 C 
ATOM     19  C   UNL     1      -0.486   5.221  -8.319  0.00  0.00    +0.005 C 
ATOM     20  C   UNL     1       1.443   6.580  -4.771  0.00  0.00    +0.003 C 
ENDROOT
TORSDOF 0
ENDMDL
MODEL 7
REMARK VINA RESULT:      -8.0      2.538      3.984
REMARK  Name = 
REMARK  0 active torsions:
REMARK  status: ('A' for Active; 'I' for Inactive)
REMARK                            x       y       z     vdW  Elec       q    Type
REMARK                         _______ _______ _______ _____ _____    ______ ____
ROOT
ATOM      1  C   UNL     1       1.030   4.685  -5.570  0.00  0.00    +0.003 C 
ATOM      2  C   UNL     1       0.327   5.720  -6.224  0.00  0.00    +0.028 C 
ATOM      3  C   UNL     1      -0.041   6.912  -5.105  0.00  0.00    +0.152 C 
ATOM      4  O   UNL     1      -0.669   5.876  -4.135  0.00  0.00    -0.223 OA
ATOM      5  C   UNL     1       1.469   6.734  -4.381  0.00  0.00    +0.033 C 
ATOM      6  C   UNL     1       2.359   6.595  -5.578  0.00  0.00    +0.003 C 
ATOM      7  C   UNL     1       1.318   6.891  -6.808  0.00  0.00    +0.003 C 
ATOM      8  C   UNL     1       2.033   5.802  -7.909  0.00  0.00    +0.004 C 
ATOM      9  C   UNL     1       0.771   6.192  -8.997  0.00  0.00    +0.022 C 
ATOM     10  C   UNL     1       1.389   5.284 -10.190  0.00  0.00    -0.026 A 
ATOM     11  C   UNL     1       2.450   6.023 -10.706  0.00  0.00    -0.023 A 
ATOM     12  C   UNL     1       3.585   6.312  -9.772  0.00  0.00    +0.026 C 
ATOM     13  C   UNL     1       2.649   6.238 -12.046  0.00  0.00    +0.037 A 
ATOM     14  C   UNL     1       1.699   5.861 -12.957  0.00  0.00    +0.195 A 
ATOM     15  O   UNL     1       1.593   6.450 -14.221  0.00  0.00    -0.287 OA
ATOM     16  C   UNL     1       0.673   5.075 -12.511  0.00  0.00    +0.042 A 
ATOM     17  C   UNL     1       0.421   5.020 -11.155  0.00  0.00    -0.001 A 
ATOM     18  C   UNL     1      -0.171   4.971  -8.416  0.00  0.00    +0.004 C 
ATOM     19  C   UNL     1       3.018   6.931  -8.498  0.00  0.00    +0.005 C 
ATOM     20  C   UNL     1      -0.776   5.554  -7.132  0.00  0.00    +0.003 C 
ENDROOT
TORSDOF 0
ENDMDL
MODEL 8
REMARK VINA RESULT:      -7.9      2.844      5.905
REMARK  Name = 
REMARK  0 active torsions:
REMARK  status: ('A' for Active; 'I' for Inactive)
REMARK                            x       y       z     vdW  Elec       q    Type
REMARK                         _______ _______ _______ _____ _____    ______ ____
ROOT
ATOM      1  C   UNL     1       2.139   4.434  -9.384  0.00  0.00    +0.003 C 
ATOM      2  C   UNL     1       2.266   5.836  -9.280  0.00  0.00    +0.028 C 
ATOM      3  C   UNL     1       1.380   6.552 -10.508  0.00  0.00    +0.152 C 
ATOM      4  O   UNL     1       2.065   5.667 -11.584  0.00  0.00    -0.223 OA
ATOM      5  C   UNL     1       0.145   5.424 -10.309  0.00  0.00    +0.033 C 
ATOM      6  C   UNL     1       0.066   5.329  -8.816  0.00  0.00    +0.003 C 
ATOM      7  C   UNL     1       1.097   6.514  -8.349  0.00  0.00    +0.003 C 
ATOM      8  C   UNL     1       1.671   5.709  -6.959  0.00  0.00    +0.004 C 
ATOM      9  C   UNL     1       2.746   7.022  -6.735  0.00  0.00    +0.022 C 
ATOM     10  C   UNL     1       3.316   6.441  -5.332  0.00  0.00    -0.026 A 
ATOM     11  C   UNL     1       2.329   6.716  -4.390  0.00  0.00    -0.023 A 
ATOM     12  C   UNL     1       0.998   6.062  -4.601  0.00  0.00    +0.026 C 
ATOM     13  C   UNL     1       2.580   7.286  -3.167  0.00  0.00    +0.037 A 
ATOM     14  C   UNL     1       3.825   7.772  -2.872  0.00  0.00    +0.195 A 
ATOM     15  O   UNL     1       4.037   8.758  -1.903  0.00  0.00    -0.287 OA
ATOM     16  C   UNL     1       4.842   7.470  -3.733  0.00  0.00    +0.042 A 
ATOM     17  C   UNL     1       4.528   7.047  -5.009  0.00  0.00    -0.001 A 
ATOM     18  C   UNL     1       3.912   6.282  -7.634  0.00  0.00    +0.004 C 
ATOM     19  C   UNL     1       0.533   6.359  -6.024  0.00  0.00    +0.005 C 
ATOM     20  C   UNL     1       3.492   6.564  -9.083  0.00  0.00    +0.003 C 
ENDROOT
TORSDOF 0
ENDMDL
MODEL 9
REMARK VINA RESULT:      -7.9      3.299      6.797
REMARK  Name = 
REMARK  0 active torsions:
REMARK  status: ('A' for Active; 'I' for Inactive)
REMARK                            x       y       z     vdW  Elec       q    Type
REMARK                         _______ _______ _______ _____ _____    ______ ____
ROOT
ATOM      1  C   UNL     1       1.645   6.149  -8.032  0.00  0.00    +0.003 C 
ATOM      2  C   UNL     1       2.209   5.048  -7.353  0.00  0.00    +0.028 C 
ATOM      3  C   UNL     1       2.932   4.035  -8.474  0.00  0.00    +0.152 C 
ATOM      4  O   UNL     1       1.644   3.991  -9.338  0.00  0.00    -0.223 OA
ATOM      5  C   UNL     1       3.512   5.361  -9.336  0.00  0.00    +0.033 C 
ATOM      6  C   UNL     1       3.961   6.264  -8.228  0.00  0.00    +0.003 C 
ATOM      7  C   UNL     1       3.770   5.304  -6.914  0.00  0.00    +0.003 C 
ATOM      8  C   UNL     1       3.315   6.555  -5.847  0.00  0.00    +0.004 C 
ATOM      9  C   UNL     1       3.076   5.349  -4.656  0.00  0.00    +0.022 C 
ATOM     10  C   UNL     1       2.730   6.429  -3.496  0.00  0.00    -0.026 A 
ATOM     11  C   UNL     1       3.956   6.968  -3.115  0.00  0.00    -0.023 A 
ATOM     12  C   UNL     1       4.717   7.716  -4.167  0.00  0.00    +0.026 C 
ATOM     13  C   UNL     1       4.355   7.107  -1.810  0.00  0.00    +0.037 A 
ATOM     14  C   UNL     1       3.615   6.560  -0.797  0.00  0.00    +0.195 A 
ATOM     15  O   UNL     1       4.165   6.239   0.448  0.00  0.00    -0.287 OA
ATOM     16  C   UNL     1       2.374   6.080  -1.109  0.00  0.00    +0.042 A 
ATOM     17  C   UNL     1       2.081   5.810  -2.431  0.00  0.00    -0.001 A 
ATOM     18  C   UNL     1       1.499   5.162  -5.095  0.00  0.00    +0.004 C 
ATOM     19  C   UNL     1       4.837   6.827  -5.401  0.00  0.00    +0.005 C 
ATOM     20  C   UNL     1       1.568   4.260  -6.335  0.00  0.00    +0.003 C 
ENDROOT
TORSDOF 0
ENDMDL
