MODEL 1
REMARK VINA RESULT:      -5.1      0.000      0.000
REMARK  Name = 
REMARK  2 active torsions:
REMARK  status: ('A' for Active; 'I' for Inactive)
REMARK    1  A    between atoms: C_2  and  C_3
REMARK    2  A    between atoms: C_5  and  C_7
REMARK                            x       y       z     vdW  Elec       q    Type
REMARK                         _______ _______ _______ _____ _____    ______ ____
ROOT
ATOM      1  C   UNL     1      -0.635   6.666  -4.352  0.00  0.00    +0.184 C 
ATOM      2  C   UNL     1      -2.282   7.112  -4.309  0.00  0.00    +0.217 C 
ATOM      3  O   UNL     1      -1.937   8.565  -4.385  0.00  0.00    -0.218 OA
ATOM      4  C   UNL     1      -2.109   7.128  -2.609  0.00  0.00    +0.241 C 
ATOM      5  O   UNL     1      -3.578   6.832  -2.416  0.00  0.00    -0.215 OA
ATOM      6  C   UNL     1      -1.621   5.580  -2.608  0.00  0.00    +0.281 C 
ATOM      7  O   UNL     1      -2.627   4.726  -2.369  0.00  0.00    -0.190 OA
ATOM      8  O   UNL     1      -1.009   5.348  -3.747  0.00  0.00    -0.325 OA
ENDROOT
BRANCH   1  10
ATOM      9  O   UNL     1      -0.000   4.987  -5.835  0.00  0.00    -0.218 OA
ATOM     10  C   UNL     1      -0.776   6.058  -5.871  0.00  0.00    +0.214 C 
ENDBRANCH   1  10
BRANCH   6  11
ATOM     11  C   UNL     1      -0.672   5.570  -1.430  0.00  0.00    +0.243 C 
ATOM     12  O   UNL     1       0.248   4.547  -1.573  0.00  0.00    -0.215 OA
ENDBRANCH   6  11
TORSDOF 2
ENDMDL
MODEL 2
REMARK VINA RESULT:      -4.9      1.558      3.417
REMARK  Name = 
REMARK  2 active torsions:
REMARK  status: ('A' for Active; 'I' for Inactive)
REMARK    1  A    between atoms: C_2  and  C_3
REMARK    2  A    between atoms: C_5  and  C_7
REMARK                            x       y       z     vdW  Elec       q    Type
REMARK                         _______ _______ _______ _____ _____    ______ ____
ROOT
ATOM      1  C   UNL     1       0.190   5.987  -1.805  0.00  0.00    +0.184 C 
ATOM      2  C   UNL     1       0.190   5.400  -3.409  0.00  0.00    +0.217 C 
ATOM      3  O   UNL     1       1.077   6.514  -3.864  0.00  0.00    -0.218 OA
ATOM      4  C   UNL     1      -1.199   6.370  -3.636  0.00  0.00    +0.241 C 
ATOM      5  O   UNL     1      -1.701   5.465  -4.737  0.00  0.00    -0.215 OA
ATOM      6  C   UNL     1      -1.971   5.613  -2.426  0.00  0.00    +0.281 C 
ATOM      7  O   UNL     1      -2.754   4.616  -2.863  0.00  0.00    -0.190 OA
ATOM      8  O   UNL     1      -1.069   5.215  -1.556  0.00  0.00    -0.325 OA
ENDROOT
BRANCH   1  10
ATOM      9  O   UNL     1       1.846   5.284  -0.328  0.00  0.00    -0.218 OA
ATOM     10  C   UNL     1       1.113   4.734  -1.282  0.00  0.00    +0.214 C 
ENDBRANCH   1  10
BRANCH   6  11
ATOM     11  C   UNL     1      -2.841   6.727  -1.887  0.00  0.00    +0.243 C 
ATOM     12  O   UNL     1      -4.097   6.665  -2.463  0.00  0.00    -0.215 OA
ENDBRANCH   6  11
TORSDOF 2
ENDMDL
MODEL 3
REMARK VINA RESULT:      -4.7      4.725      5.938
REMARK  Name = 
REMARK  2 active torsions:
REMARK  status: ('A' for Active; 'I' for Inactive)
REMARK    1  A    between atoms: C_2  and  C_3
REMARK    2  A    between atoms: C_5  and  C_7
REMARK                            x       y       z     vdW  Elec       q    Type
REMARK                         _______ _______ _______ _____ _____    ______ ____
ROOT
ATOM      1  C   UNL     1       2.449   6.724  -6.142  0.00  0.00    +0.184 C 
ATOM      2  C   UNL     1       3.493   5.376  -6.226  0.00  0.00    +0.217 C 
ATOM      3  O   UNL     1       2.340   4.424  -6.199  0.00  0.00    -0.218 OA
ATOM      4  C   UNL     1       3.519   5.442  -4.518  0.00  0.00    +0.241 C 
ATOM      5  O   UNL     1       4.882   4.791  -4.473  0.00  0.00    -0.215 OA
ATOM      6  C   UNL     1       4.060   6.971  -4.549  0.00  0.00    +0.281 C 
ATOM      7  O   UNL     1       5.395   7.045  -4.444  0.00  0.00    -0.190 OA
ATOM      8  O   UNL     1       3.598   7.542  -5.638  0.00  0.00    -0.325 OA
ENDROOT
BRANCH   1  10
ATOM      9  O   UNL     1       2.122   8.292  -7.831  0.00  0.00    -0.218 OA
ATOM     10  C   UNL     1       2.771   7.147  -7.695  0.00  0.00    +0.214 C 
ENDBRANCH   1  10
BRANCH   6  11
ATOM     11  C   UNL     1       3.432   7.532  -3.292  0.00  0.00    +0.243 C 
ATOM     12  O   UNL     1       2.695   6.551  -2.654  0.00  0.00    -0.215 OA
ENDBRANCH   6  11
TORSDOF 2
ENDMDL
MODEL 4
REMARK VINA RESULT:      -4.6      9.597     12.340
REMARK  Name = 
REMARK  2 active torsions:
REMARK  status: ('A' for Active; 'I' for Inactive)
REMARK    1  A    between atoms: C_2  and  C_3
REMARK    2  A    between atoms: C_5  and  C_7
REMARK                            x       y       z     vdW  Elec       q    Type
REMARK                         _______ _______ _______ _____ _____    ______ ____
ROOT
ATOM      1  C   UNL     1       5.904   6.470 -10.830  0.00  0.00    +0.184 C 
ATOM      2  C   UNL     1       7.464   5.857 -10.505  0.00  0.00    +0.217 C 
ATOM      3  O   UNL     1       7.833   7.082  -9.731  0.00  0.00    -0.218 OA
ATOM      4  C   UNL     1       7.931   6.603 -11.970  0.00  0.00    +0.241 C 
ATOM      5  O   UNL     1       9.053   5.610 -12.165  0.00  0.00    -0.215 OA
ATOM      6  C   UNL     1       6.814   5.763 -12.796  0.00  0.00    +0.281 C 
ATOM      7  O   UNL     1       7.317   4.651 -13.351  0.00  0.00    -0.190 OA
ATOM      8  O   UNL     1       5.807   5.524 -11.986  0.00  0.00    -0.325 OA
ENDROOT
BRANCH   1  10
ATOM      9  O   UNL     1       4.062   5.102 -10.438  0.00  0.00    -0.218 OA
ATOM     10  C   UNL     1       5.199   5.382  -9.823  0.00  0.00    +0.214 C 
ENDBRANCH   1  10
BRANCH   6  11
ATOM     11  C   UNL     1       6.455   6.745 -13.889  0.00  0.00    +0.243 C 
ATOM     12  O   UNL     1       6.917   6.283 -15.109  0.00  0.00    -0.215 OA
ENDBRANCH   6  11
TORSDOF 2
ENDMDL
MODEL 5
REMARK VINA RESULT:      -4.5      9.463     11.830
REMARK  Name = 
REMARK  2 active torsions:
REMARK  status: ('A' for Active; 'I' for Inactive)
REMARK    1  A    between atoms: C_2  and  C_3
REMARK    2  A    between atoms: C_5  and  C_7
REMARK                            x       y       z     vdW  Elec       q    Type
REMARK                         _______ _______ _______ _____ _____    ______ ____
ROOT
ATOM      1  C   UNL     1       6.079   5.519 -13.360  0.00  0.00    +0.184 C 
ATOM      2  C   UNL     1       7.485   5.931 -12.482  0.00  0.00    +0.217 C 
ATOM      3  O   UNL     1       7.949   4.509 -12.472  0.00  0.00    -0.218 OA
ATOM      4  C   UNL     1       6.542   5.666 -11.081  0.00  0.00    +0.241 C 
ATOM      5  O   UNL     1       7.395   6.620 -10.278  0.00  0.00    -0.215 OA
ATOM      6  C   UNL     1       5.455   6.771 -11.561  0.00  0.00    +0.281 C 
ATOM      7  O   UNL     1       5.681   7.979 -11.024  0.00  0.00    -0.190 OA
ATOM      8  O   UNL     1       5.444   6.786 -12.874  0.00  0.00    -0.325 OA
ENDROOT
BRANCH   1  10
ATOM      9  O   UNL     1       5.545   6.840 -15.201  0.00  0.00    -0.218 OA
ATOM     10  C   UNL     1       6.632   6.264 -14.714  0.00  0.00    +0.214 C 
ENDBRANCH   1  10
BRANCH   6  11
ATOM     11  C   UNL     1       4.179   6.202 -10.979  0.00  0.00    +0.243 C 
ATOM     12  O   UNL     1       4.449   5.015 -10.322  0.00  0.00    -0.215 OA
ENDBRANCH   6  11
TORSDOF 2
ENDMDL
MODEL 6
REMARK VINA RESULT:      -4.5      2.419      5.092
REMARK  Name = 
REMARK  2 active torsions:
REMARK  status: ('A' for Active; 'I' for Inactive)
REMARK    1  A    between atoms: C_2  and  C_3
REMARK    2  A    between atoms: C_5  and  C_7
REMARK                            x       y       z     vdW  Elec       q    Type
REMARK                         _______ _______ _______ _____ _____    ______ ____
ROOT
ATOM      1  C   UNL     1       0.429   6.918  -4.775  0.00  0.00    +0.184 C 
ATOM      2  C   UNL     1       0.452   5.211  -4.775  0.00  0.00    +0.217 C 
ATOM      3  O   UNL     1       1.045   5.174  -3.403  0.00  0.00    -0.218 OA
ATOM      4  C   UNL     1       2.004   5.351  -5.477  0.00  0.00    +0.241 C 
ATOM      5  O   UNL     1       1.867   4.004  -6.147  0.00  0.00    -0.215 OA
ATOM      6  C   UNL     1       1.408   6.219  -6.712  0.00  0.00    +0.281 C 
ATOM      7  O   UNL     1       1.133   5.462  -7.784  0.00  0.00    -0.190 OA
ATOM      8  O   UNL     1       0.364   6.885  -6.272  0.00  0.00    -0.325 OA
ENDROOT
BRANCH   1  10
ATOM      9  O   UNL     1      -1.479   8.250  -4.730  0.00  0.00    -0.218 OA
ATOM     10  C   UNL     1      -1.208   6.958  -4.661  0.00  0.00    +0.214 C 
ENDBRANCH   1  10
BRANCH   6  11
ATOM     11  C   UNL     1       2.578   7.123  -7.030  0.00  0.00    +0.243 C 
ATOM     12  O   UNL     1       2.145   8.215  -7.761  0.00  0.00    -0.215 OA
ENDBRANCH   6  11
TORSDOF 2
ENDMDL
MODEL 7
REMARK VINA RESULT:      -4.5      3.430      4.917
REMARK  Name = 
REMARK  2 active torsions:
REMARK  status: ('A' for Active; 'I' for Inactive)
REMARK    1  A    between atoms: C_2  and  C_3
REMARK    2  A    between atoms: C_5  and  C_7
REMARK                            x       y       z     vdW  Elec       q    Type
REMARK                         _______ _______ _______ _____ _____    ______ ____
ROOT
ATOM      1  C   UNL     1       1.483   6.769  -6.810  0.00  0.00    +0.184 C 
ATOM      2  C   UNL     1       1.529   5.195  -7.470  0.00  0.00    +0.217 C 
ATOM      3  O   UNL     1       0.098   5.284  -7.897  0.00  0.00    -0.218 OA
ATOM      4  C   UNL     1       1.065   4.659  -5.915  0.00  0.00    +0.241 C 
ATOM      5  O   UNL     1       1.715   3.314  -6.141  0.00  0.00    -0.215 OA
ATOM      6  C   UNL     1       2.363   5.366  -5.245  0.00  0.00    +0.281 C 
ATOM      7  O   UNL     1       3.388   4.515  -5.092  0.00  0.00    -0.190 OA
ATOM      8  O   UNL     1       2.672   6.417  -5.970  0.00  0.00    -0.325 OA
ENDROOT
BRANCH   1  10
ATOM      9  O   UNL     1       2.229   8.667  -7.933  0.00  0.00    -0.218 OA
ATOM     10  C   UNL     1       2.444   7.363  -8.000  0.00  0.00    +0.214 C 
ENDBRANCH   1  10
BRANCH   6  11
ATOM     11  C   UNL     1       1.824   5.742  -3.883  0.00  0.00    +0.243 C 
ATOM     12  O   UNL     1       0.604   5.125  -3.670  0.00  0.00    -0.215 OA
ENDBRANCH   6  11
TORSDOF 2
ENDMDL
MODEL 8
REMARK VINA RESULT:      -4.4      8.974     11.239
REMARK  Name = 
REMARK  2 active torsions:
REMARK  status: ('A' for Active; 'I' for Inactive)
REMARK    1  A    between atoms: C_2  and  C_3
REMARK    2  A    between atoms: C_5  and  C_7
REMARK                            x       y       z     vdW  Elec       q    Type
REMARK                         _______ _______ _______ _____ _____    ______ ____
ROOT
ATOM      1  C   UNL     1       4.392   5.505 -11.414  0.00  0.00    +0.184 C 
ATOM      2  C   UNL     1       4.877   5.964 -12.986  0.00  0.00    +0.217 C 
ATOM      3  O   UNL     1       4.874   4.542 -13.450  0.00  0.00    -0.218 OA
ATOM      4  C   UNL     1       6.478   5.805 -12.408  0.00  0.00    +0.241 C 
ATOM      5  O   UNL     1       6.985   6.805 -13.421  0.00  0.00    -0.215 OA
ATOM      6  C   UNL     1       6.197   6.884 -11.228  0.00  0.00    +0.281 C 
ATOM      7  O   UNL     1       6.579   8.124 -11.567  0.00  0.00    -0.190 OA
ATOM      8  O   UNL     1       4.926   6.808 -10.903  0.00  0.00    -0.325 OA
ENDROOT
BRANCH   1  10
ATOM      9  O   UNL     1       2.145   5.417 -10.815  0.00  0.00    -0.218 OA
ATOM     10  C   UNL     1       2.896   6.148 -11.621  0.00  0.00    +0.214 C 
ENDBRANCH   1  10
BRANCH   6  11
ATOM     11  C   UNL     1       7.105   6.367 -10.134  0.00  0.00    +0.243 C 
ATOM     12  O   UNL     1       7.980   5.429 -10.651  0.00  0.00    -0.215 OA
ENDBRANCH   6  11
TORSDOF 2
ENDMDL
MODEL 9
REMARK VINA RESULT:      -4.4      1.368      3.707
REMARK  Name = 
REMARK  2 active torsions:
REMARK  status: ('A' for Active; 'I' for Inactive)
REMARK    1  A    between atoms: C_2  and  C_3
REMARK    2  A    between atoms: C_5  and  C_7
REMARK                            x       y       z     vdW  Elec       q    Type
REMARK                         _______ _______ _______ _____ _____    ______ ____
ROOT
ATOM      1  C   UNL     1      -0.168   5.275  -2.313  0.00  0.00    +0.184 C 
ATOM      2  C   UNL     1      -1.633   6.152  -2.301  0.00  0.00    +0.217 C 
ATOM      3  O   UNL     1      -2.391   4.965  -1.796  0.00  0.00    -0.218 OA
ATOM      4  C   UNL     1      -1.822   5.626  -3.916  0.00  0.00    +0.241 C 
ATOM      5  O   UNL     1      -2.672   6.829  -4.251  0.00  0.00    -0.215 OA
ATOM      6  C   UNL     1      -0.404   6.294  -4.337  0.00  0.00    +0.281 C 
ATOM      7  O   UNL     1      -0.552   7.522  -4.856  0.00  0.00    -0.190 OA
ATOM      8  O   UNL     1       0.383   6.271  -3.286  0.00  0.00    -0.325 OA
ENDROOT
BRANCH   1  10
ATOM      9  O   UNL     1       1.329   5.307  -0.531  0.00  0.00    -0.218 OA
ATOM     10  C   UNL     1       0.423   6.126  -1.040  0.00  0.00    +0.214 C 
ENDBRANCH   1  10
BRANCH   6  11
ATOM     11  C   UNL     1       0.056   5.349  -5.425  0.00  0.00    +0.243 C 
ATOM     12  O   UNL     1       0.261   6.047  -6.601  0.00  0.00    -0.215 OA
ENDBRANCH   6  11
TORSDOF 2
ENDMDL
