MODEL 1
REMARK VINA RESULT:     -10.1      0.000      0.000
REMARK  Name = 
REMARK  13 active torsions:
REMARK  status: ('A' for Active; 'I' for Inactive)
REMARK    1  A    between atoms: C_2  and  N_5
REMARK    2  A    between atoms: C_6  and  C_8
REMARK    3  A    between atoms: N_17  and  C_18
REMARK    4  A    between atoms: C_18  and  C_19
REMARK    5  A    between atoms: C_19  and  C_21
REMARK    6  A    between atoms: C_21  and  C_22
REMARK    7  A    between atoms: C_21  and  N_29
REMARK    8  A    between atoms: C_22  and  C_23
REMARK    9  A    between atoms: C_30  and  C_32
REMARK   10  A    between atoms: C_32  and  C_33
REMARK   11  A    between atoms: C_32  and  N_37
REMARK   12  A    between atoms: C_33  and  C_34
REMARK   13  A    between atoms: C_38  and  C_40
REMARK                            x       y       z     vdW  Elec       q    Type
REMARK                         _______ _______ _______ _____ _____    ______ ____
ROOT
ATOM      1  C   UNL     1       3.289   6.108  -5.389  0.00  0.00    +0.131 C 
ENDROOT
BRANCH   1   2
ATOM      2  N   UNL     1       1.755   5.910  -5.593  0.00  0.00    -0.203 NA
ATOM      3  C   UNL     1       0.800   6.536  -4.778  0.00  0.00    +0.262 C 
ATOM      4  O   UNL     1       1.184   7.069  -3.726  0.00  0.00    -0.271 OA
BRANCH   3   5
ATOM      5  C   UNL     1      -0.424   5.552  -4.345  0.00  0.00    +0.182 C 
BRANCH   5   6
ATOM      6  N   UNL     1      -0.695   6.312  -2.990  0.00  0.00    -0.192 NA
ATOM      7  C   UNL     1      -1.403   5.736  -1.970  0.00  0.00    +0.283 C 
ATOM      8  O   UNL     1      -2.256   4.854  -2.285  0.00  0.00    -0.267 OA
BRANCH   7   9
ATOM      9  C   UNL     1      -1.020   5.994  -0.567  0.00  0.00    +0.136 A 
ATOM     10  N   UNL     1       0.222   6.501  -0.381  0.00  0.00    -0.241 NA
ATOM     11  C   UNL     1       0.498   7.555   0.398  0.00  0.00    +0.081 A 
ATOM     12  C   UNL     1      -0.488   8.181   1.133  0.00  0.00    +0.018 A 
ATOM     13  C   UNL     1      -0.352   9.564   1.210  0.00  0.00    +0.001 A 
ATOM     14  C   UNL     1       0.949  10.027   1.371  0.00  0.00    +0.000 A 
ATOM     15  C   UNL     1       2.016   9.145   1.243  0.00  0.00    +0.002 A 
ATOM     16  C   UNL     1      -1.693   7.526   1.199  0.00  0.00    +0.003 A 
ATOM     17  C   UNL     1       1.812   7.982   0.508  0.00  0.00    +0.019 A 
ATOM     18  C   UNL     1      -1.957   6.464   0.344  0.00  0.00    +0.024 A 
ENDBRANCH   7   9
ENDBRANCH   5   6
BRANCH   5  19
ATOM     19  C   UNL     1      -1.502   6.403  -5.262  0.00  0.00    +0.120 C 
BRANCH  19  20
ATOM     20  C   UNL     1      -1.816   5.429  -6.352  0.00  0.00    +0.263 C 
ATOM     21  O   UNL     1      -3.041   5.125  -6.470  0.00  0.00    -0.272 OA
ATOM     22  N   UNL     1      -1.079   5.439  -7.575  0.00  0.00    -0.088 NA
ENDBRANCH  19  20
ENDBRANCH   5  19
ENDBRANCH   3   5
ENDBRANCH   1   2
BRANCH   1  23
ATOM     23  C   UNL     1       3.629   5.134  -6.784  0.00  0.00    +0.188 C 
ATOM     24  O   UNL     1       5.072   4.852  -6.432  0.00  0.00    -0.220 OA
BRANCH  23  25
ATOM     25  C   UNL     1       3.974   6.406  -7.760  0.00  0.00    +0.107 C 
BRANCH  25  27
ATOM     26  C   UNL     1       3.633   6.923 -10.097  0.00  0.00    +0.137 C 
ATOM     27  N   UNL     1       4.336   5.958  -9.058  0.00  0.00    -0.264 NA
ATOM     28  C   UNL     1       5.691   6.517  -9.187  0.00  0.00    +0.072 C 
ATOM     29  C   UNL     1       6.265   5.594 -10.389  0.00  0.00    +0.016 C 
ATOM     30  C   UNL     1       5.686   6.690 -11.547  0.00  0.00    +0.003 C 
ATOM     31  C   UNL     1       6.058   5.703 -12.779  0.00  0.00    +0.000 C 
ATOM     32  C   UNL     1       7.402   5.119 -12.529  0.00  0.00    +0.000 C 
ATOM     33  C   UNL     1       8.312   5.978 -11.701  0.00  0.00    +0.000 C 
ATOM     34  C   UNL     1       7.734   6.281 -10.333  0.00  0.00    +0.001 C 
ATOM     35  C   UNL     1       4.190   6.083 -11.410  0.00  0.00    +0.025 C 
BRANCH  26  37
ATOM     36  N   UNL     1       1.182   6.965 -10.686  0.00  0.00    -0.208 NA
ATOM     37  C   UNL     1       2.211   6.154 -10.080  0.00  0.00    +0.256 C 
ATOM     38  O   UNL     1       2.161   4.980 -10.480  0.00  0.00    -0.272 OA
BRANCH  36  40
ATOM     39  C   UNL     1      -0.199   5.471 -11.185  0.00  0.00    +0.022 C 
ATOM     40  C   UNL     1       0.108   6.350 -11.473  0.00  0.00    +0.079 C 
ATOM     41  C   UNL     1      -1.065   7.325 -11.572  0.00  0.00    +0.022 C 
ATOM     42  C   UNL     1       0.689   6.323 -12.886  0.00  0.00    +0.022 C 
ENDBRANCH  36  40
ENDBRANCH  26  37
ENDBRANCH  25  27
ENDBRANCH  23  25
ENDBRANCH   1  23
BRANCH   1  43
ATOM     43  C   UNL     1       3.432   4.916  -4.284  0.00  0.00    +0.051 C 
BRANCH  43  44
ATOM     44  C   UNL     1       3.973   5.511  -3.054  0.00  0.00    -0.020 A 
ATOM     45  C   UNL     1       3.621   4.906  -1.875  0.00  0.00    -0.004 A 
ATOM     46  C   UNL     1       4.309   5.253  -0.747  0.00  0.00    -0.000 A 
ATOM     47  C   UNL     1       4.714   6.566  -0.654  0.00  0.00    -0.000 A 
ATOM     48  C   UNL     1       4.732   7.361  -1.793  0.00  0.00    -0.000 A 
ATOM     49  C   UNL     1       4.675   6.695  -2.994  0.00  0.00    -0.004 A 
ENDBRANCH  43  44
ENDBRANCH   1  43
TORSDOF 13
ENDMDL
MODEL 2
REMARK VINA RESULT:     -10.0      2.097      4.336
REMARK  Name = 
REMARK  13 active torsions:
REMARK  status: ('A' for Active; 'I' for Inactive)
REMARK    1  A    between atoms: C_2  and  N_5
REMARK    2  A    between atoms: C_6  and  C_8
REMARK    3  A    between atoms: N_17  and  C_18
REMARK    4  A    between atoms: C_18  and  C_19
REMARK    5  A    between atoms: C_19  and  C_21
REMARK    6  A    between atoms: C_21  and  C_22
REMARK    7  A    between atoms: C_21  and  N_29
REMARK    8  A    between atoms: C_22  and  C_23
REMARK    9  A    between atoms: C_30  and  C_32
REMARK   10  A    between atoms: C_32  and  C_33
REMARK   11  A    between atoms: C_32  and  N_37
REMARK   12  A    between atoms: C_33  and  C_34
REMARK   13  A    between atoms: C_38  and  C_40
REMARK                            x       y       z     vdW  Elec       q    Type
REMARK                         _______ _______ _______ _____ _____    ______ ____
ROOT
ATOM      1  C   UNL     1       1.287   5.710  -7.374  0.00  0.00    +0.131 C 
ENDROOT
BRANCH   1   2
ATOM      2  N   UNL     1       2.563   6.107  -6.570  0.00  0.00    -0.203 NA
ATOM      3  C   UNL     1       2.898   5.511  -5.345  0.00  0.00    +0.262 C 
ATOM      4  O   UNL     1       2.040   4.823  -4.773  0.00  0.00    -0.271 OA
BRANCH   3   5
ATOM      5  C   UNL     1       3.417   6.577  -4.228  0.00  0.00    +0.182 C 
BRANCH   5   6
ATOM      6  N   UNL     1       2.924   5.703  -3.012  0.00  0.00    -0.192 NA
ATOM      7  C   UNL     1       2.722   6.244  -1.772  0.00  0.00    +0.283 C 
ATOM      8  O   UNL     1       3.402   7.269  -1.470  0.00  0.00    -0.267 OA
BRANCH   7   9
ATOM      9  C   UNL     1       1.607   5.765  -0.929  0.00  0.00    +0.136 A 
ATOM     10  N   UNL     1       1.371   6.481   0.196  0.00  0.00    -0.241 NA
ATOM     11  C   UNL     1       0.159   6.905   0.580  0.00  0.00    +0.081 A 
ATOM     12  C   UNL     1      -0.975   6.582  -0.138  0.00  0.00    +0.018 A 
ATOM     13  C   UNL     1      -1.921   7.600  -0.198  0.00  0.00    +0.001 A 
ATOM     14  C   UNL     1      -2.098   8.320   0.979  0.00  0.00    +0.000 A 
ATOM     15  C   UNL     1      -1.220   8.135   2.040  0.00  0.00    +0.002 A 
ATOM     16  C   UNL     1      -0.816   5.627  -1.110  0.00  0.00    +0.003 A 
ATOM     17  C   UNL     1       0.045   7.632   1.754  0.00  0.00    +0.019 A 
ATOM     18  C   UNL     1       0.458   5.244  -1.511  0.00  0.00    +0.024 A 
ENDBRANCH   7   9
ENDBRANCH   5   6
BRANCH   5  19
ATOM     19  C   UNL     1       4.953   5.974  -4.289  0.00  0.00    +0.120 C 
BRANCH  19  20
ATOM     20  C   UNL     1       5.775   7.223  -4.292  0.00  0.00    +0.263 C 
ATOM     21  O   UNL     1       5.117   8.305  -4.230  0.00  0.00    -0.272 OA
ATOM     22  N   UNL     1       7.052   7.258  -3.653  0.00  0.00    -0.088 NA
ENDBRANCH  19  20
ENDBRANCH   5  19
ENDBRANCH   3   5
ENDBRANCH   1   2
BRANCH   1  23
ATOM     23  C   UNL     1       1.937   6.424  -8.815  0.00  0.00    +0.188 C 
ATOM     24  O   UNL     1       0.624   6.495  -9.563  0.00  0.00    -0.220 OA
BRANCH  23  25
ATOM     25  C   UNL     1       2.396   4.998  -9.482  0.00  0.00    +0.107 C 
BRANCH  25  27
ATOM     26  C   UNL     1       3.265   6.506 -11.161  0.00  0.00    +0.137 C 
ATOM     27  N   UNL     1       3.517   5.181 -10.334  0.00  0.00    -0.264 NA
ATOM     28  C   UNL     1       4.501   5.741  -9.395  0.00  0.00    +0.072 C 
ATOM     29  C   UNL     1       5.870   5.458 -10.216  0.00  0.00    +0.016 C 
ATOM     30  C   UNL     1       5.743   6.954 -11.004  0.00  0.00    +0.003 C 
ATOM     31  C   UNL     1       6.987   6.626 -11.992  0.00  0.00    +0.000 C 
ATOM     32  C   UNL     1       8.072   5.997 -11.195  0.00  0.00    +0.000 C 
ATOM     33  C   UNL     1       8.097   6.396  -9.748  0.00  0.00    +0.000 C 
ATOM     34  C   UNL     1       6.807   6.051  -9.032  0.00  0.00    +0.001 C 
ATOM     35  C   UNL     1       4.657   6.346 -12.040  0.00  0.00    +0.025 C 
BRANCH  26  37
ATOM     36  N   UNL     1       1.520   6.785 -12.959  0.00  0.00    -0.208 NA
ATOM     37  C   UNL     1       2.348   5.807 -12.293  0.00  0.00    +0.256 C 
ATOM     38  O   UNL     1       2.883   5.035 -13.103  0.00  0.00    -0.272 OA
BRANCH  36  40
ATOM     39  C   UNL     1       1.960   6.758 -15.007  0.00  0.00    +0.022 C 
ATOM     40  C   UNL     1       1.213   6.661 -14.388  0.00  0.00    +0.079 C 
ATOM     41  C   UNL     1       0.479   5.344 -14.632  0.00  0.00    +0.022 C 
ATOM     42  C   UNL     1       0.143   7.729 -14.603  0.00  0.00    +0.022 C 
ENDBRANCH  36  40
ENDBRANCH  26  37
ENDBRANCH  25  27
ENDBRANCH  23  25
ENDBRANCH   1  23
BRANCH   1  43
ATOM     43  C   UNL     1       0.418   7.004  -6.894  0.00  0.00    +0.051 C 
BRANCH  43  44
ATOM     44  C   UNL     1      -0.648   6.521  -6.004  0.00  0.00    -0.020 A 
ATOM     45  C   UNL     1      -1.619   5.743  -6.579  0.00  0.00    -0.004 A 
ATOM     46  C   UNL     1      -2.463   5.057  -5.752  0.00  0.00    -0.000 A 
ATOM     47  C   UNL     1      -2.808   5.681  -4.573  0.00  0.00    -0.000 A 
ATOM     48  C   UNL     1      -2.054   6.755  -4.119  0.00  0.00    -0.000 A 
ATOM     49  C   UNL     1      -0.814   6.907  -4.692  0.00  0.00    -0.004 A 
ENDBRANCH  43  44
ENDBRANCH   1  43
TORSDOF 13
ENDMDL
MODEL 3
REMARK VINA RESULT:      -9.8      1.120      3.472
REMARK  Name = 
REMARK  13 active torsions:
REMARK  status: ('A' for Active; 'I' for Inactive)
REMARK    1  A    between atoms: C_2  and  N_5
REMARK    2  A    between atoms: C_6  and  C_8
REMARK    3  A    between atoms: N_17  and  C_18
REMARK    4  A    between atoms: C_18  and  C_19
REMARK    5  A    between atoms: C_19  and  C_21
REMARK    6  A    between atoms: C_21  and  C_22
REMARK    7  A    between atoms: C_21  and  N_29
REMARK    8  A    between atoms: C_22  and  C_23
REMARK    9  A    between atoms: C_30  and  C_32
REMARK   10  A    between atoms: C_32  and  C_33
REMARK   11  A    between atoms: C_32  and  N_37
REMARK   12  A    between atoms: C_33  and  C_34
REMARK   13  A    between atoms: C_38  and  C_40
REMARK                            x       y       z     vdW  Elec       q    Type
REMARK                         _______ _______ _______ _____ _____    ______ ____
ROOT
ATOM      1  C   UNL     1       3.050   6.262  -5.673  0.00  0.00    +0.131 C 
ENDROOT
BRANCH   1   2
ATOM      2  N   UNL     1       1.500   6.127  -5.793  0.00  0.00    -0.203 NA
ATOM      3  C   UNL     1       0.618   6.716  -4.874  0.00  0.00    +0.262 C 
ATOM      4  O   UNL     1       1.084   7.153  -3.812  0.00  0.00    -0.271 OA
BRANCH   3   5
ATOM      5  C   UNL     1      -0.611   5.739  -4.440  0.00  0.00    +0.182 C 
BRANCH   5   6
ATOM      6  N   UNL     1      -0.803   6.429  -3.036  0.00  0.00    -0.192 NA
ATOM      7  C   UNL     1      -1.422   5.788  -1.997  0.00  0.00    +0.283 C 
ATOM      8  O   UNL     1      -2.275   4.899  -2.293  0.00  0.00    -0.267 OA
BRANCH   7   9
ATOM      9  C   UNL     1      -0.946   5.991  -0.613  0.00  0.00    +0.136 A 
ATOM     10  N   UNL     1       0.302   6.501  -0.491  0.00  0.00    -0.241 NA
ATOM     11  C   UNL     1       0.625   7.524   0.311  0.00  0.00    +0.081 A 
ATOM     12  C   UNL     1      -0.313   8.112   1.135  0.00  0.00    +0.018 A 
ATOM     13  C   UNL     1      -0.179   9.492   1.259  0.00  0.00    +0.001 A 
ATOM     14  C   UNL     1       1.128   9.958   1.351  0.00  0.00    +0.000 A 
ATOM     15  C   UNL     1       2.188   9.091   1.116  0.00  0.00    +0.002 A 
ATOM     16  C   UNL     1      -1.507   7.446   1.255  0.00  0.00    +0.003 A 
ATOM     17  C   UNL     1       1.941   7.957   0.349  0.00  0.00    +0.019 A 
ATOM     18  C   UNL     1      -1.822   6.417   0.377  0.00  0.00    +0.024 A 
ENDBRANCH   7   9
ENDBRANCH   5   6
BRANCH   5  19
ATOM     19  C   UNL     1      -1.706   6.664  -5.260  0.00  0.00    +0.120 C 
BRANCH  19  20
ATOM     20  C   UNL     1      -2.381   5.649  -6.125  0.00  0.00    +0.263 C 
ATOM     21  O   UNL     1      -1.649   5.124  -7.017  0.00  0.00    -0.272 OA
ATOM     22  N   UNL     1      -3.389   4.789  -5.592  0.00  0.00    -0.088 NA
ENDBRANCH  19  20
ENDBRANCH   5  19
ENDBRANCH   3   5
ENDBRANCH   1   2
BRANCH   1  23
ATOM     23  C   UNL     1       3.270   5.372  -7.145  0.00  0.00    +0.188 C 
ATOM     24  O   UNL     1       4.514   4.636  -6.700  0.00  0.00    -0.220 OA
BRANCH  23  25
ATOM     25  C   UNL     1       4.089   6.570  -7.910  0.00  0.00    +0.107 C 
BRANCH  25  27
ATOM     26  C   UNL     1       4.163   5.551 -10.102  0.00  0.00    +0.137 C 
ATOM     27  N   UNL     1       3.599   6.746  -9.232  0.00  0.00    -0.264 NA
ATOM     28  C   UNL     1       2.226   6.236  -9.098  0.00  0.00    +0.072 C 
ATOM     29  C   UNL     1       1.546   6.906 -10.408  0.00  0.00    +0.016 C 
ATOM     30  C   UNL     1       1.971   5.564 -11.353  0.00  0.00    +0.003 C 
ATOM     31  C   UNL     1       1.491   6.281 -12.727  0.00  0.00    +0.000 C 
ATOM     32  C   UNL     1       0.196   6.965 -12.475  0.00  0.00    +0.000 C 
ATOM     33  C   UNL     1      -0.639   6.345 -11.393  0.00  0.00    +0.000 C 
ATOM     34  C   UNL     1       0.077   6.315 -10.057  0.00  0.00    +0.001 C 
ATOM     35  C   UNL     1       3.487   6.116 -11.502  0.00  0.00    +0.025 C 
BRANCH  26  37
ATOM     36  N   UNL     1       6.338   5.483 -11.375  0.00  0.00    -0.208 NA
ATOM     37  C   UNL     1       5.596   6.240 -10.395  0.00  0.00    +0.256 C 
ATOM     38  O   UNL     1       5.637   7.458 -10.633  0.00  0.00    -0.272 OA
BRANCH  36  40
ATOM     39  C   UNL     1       7.037   7.109 -12.495  0.00  0.00    +0.022 C 
ATOM     40  C   UNL     1       7.200   6.158 -12.351  0.00  0.00    +0.079 C 
ATOM     41  C   UNL     1       8.663   5.910 -11.986  0.00  0.00    +0.022 C 
ATOM     42  C   UNL     1       6.989   5.338 -13.622  0.00  0.00    +0.022 C 
ENDBRANCH  36  40
ENDBRANCH  26  37
ENDBRANCH  25  27
ENDBRANCH  23  25
ENDBRANCH   1  23
BRANCH   1  43
ATOM     43  C   UNL     1       3.215   4.997  -4.657  0.00  0.00    +0.051 C 
BRANCH  43  44
ATOM     44  C   UNL     1       3.806   5.501  -3.409  0.00  0.00    -0.020 A 
ATOM     45  C   UNL     1       3.357   4.933  -2.245  0.00  0.00    -0.004 A 
ATOM     46  C   UNL     1       4.063   5.173  -1.101  0.00  0.00    -0.000 A 
ATOM     47  C   UNL     1       4.634   6.422  -0.982  0.00  0.00    -0.000 A 
ATOM     48  C   UNL     1       4.776   7.221  -2.109  0.00  0.00    -0.000 A 
ATOM     49  C   UNL     1       4.655   6.583  -3.320  0.00  0.00    -0.004 A 
ENDBRANCH  43  44
ENDBRANCH   1  43
TORSDOF 13
ENDMDL
MODEL 4
REMARK VINA RESULT:      -8.7      2.780     11.227
REMARK  Name = 
REMARK  13 active torsions:
REMARK  status: ('A' for Active; 'I' for Inactive)
REMARK    1  A    between atoms: C_2  and  N_5
REMARK    2  A    between atoms: C_6  and  C_8
REMARK    3  A    between atoms: N_17  and  C_18
REMARK    4  A    between atoms: C_18  and  C_19
REMARK    5  A    between atoms: C_19  and  C_21
REMARK    6  A    between atoms: C_21  and  C_22
REMARK    7  A    between atoms: C_21  and  N_29
REMARK    8  A    between atoms: C_22  and  C_23
REMARK    9  A    between atoms: C_30  and  C_32
REMARK   10  A    between atoms: C_32  and  C_33
REMARK   11  A    between atoms: C_32  and  N_37
REMARK   12  A    between atoms: C_33  and  C_34
REMARK   13  A    between atoms: C_38  and  C_40
REMARK                            x       y       z     vdW  Elec       q    Type
REMARK                         _______ _______ _______ _____ _____    ______ ____
ROOT
ATOM      1  C   UNL     1       4.145   5.694  -8.726  0.00  0.00    +0.131 C 
ENDROOT
BRANCH   1   2
ATOM      2  N   UNL     1       2.835   5.882  -9.553  0.00  0.00    -0.203 NA
ATOM      3  C   UNL     1       2.687   5.382 -10.855  0.00  0.00    +0.262 C 
ATOM      4  O   UNL     1       3.700   4.987 -11.451  0.00  0.00    -0.271 OA
BRANCH   3   5
ATOM      5  C   UNL     1       1.965   6.429 -11.872  0.00  0.00    +0.182 C 
BRANCH   5   6
ATOM      6  N   UNL     1       2.604   5.782 -13.160  0.00  0.00    -0.192 NA
ATOM      7  C   UNL     1       2.679   6.462 -14.345  0.00  0.00    +0.283 C 
ATOM      8  O   UNL     1       1.807   7.356 -14.556  0.00  0.00    -0.267 OA
BRANCH   7   9
ATOM      9  C   UNL     1       3.856   6.290 -15.222  0.00  0.00    +0.136 A 
ATOM     10  N   UNL     1       3.760   6.850 -16.451  0.00  0.00    -0.241 NA
ATOM     11  C   UNL     1       4.708   7.616 -17.008  0.00  0.00    +0.081 A 
ATOM     12  C   UNL     1       5.910   7.847 -16.370  0.00  0.00    +0.018 A 
ATOM     13  C   UNL     1       6.409   9.134 -16.541  0.00  0.00    +0.001 A 
ATOM     14  C   UNL     1       6.255   9.668 -17.816  0.00  0.00    +0.000 A 
ATOM     15  C   UNL     1       5.465   9.008 -18.750  0.00  0.00    +0.002 A 
ATOM     16  C   UNL     1       6.160   7.070 -15.266  0.00  0.00    +0.003 A 
ATOM     17  C   UNL     1       4.493   8.134 -18.275  0.00  0.00    +0.019 A 
ATOM     18  C   UNL     1       5.140   6.323 -14.693  0.00  0.00    +0.024 A 
ENDBRANCH   7   9
ENDBRANCH   5   6
BRANCH   5  19
ATOM     19  C   UNL     1       0.572   5.541 -11.882  0.00  0.00    +0.120 C 
BRANCH  19  20
ATOM     20  C   UNL     1      -0.386   6.462 -11.196  0.00  0.00    +0.263 C 
ATOM     21  O   UNL     1      -0.527   6.265  -9.951  0.00  0.00    -0.272 OA
ATOM     22  N   UNL     1      -0.515   7.822 -11.608  0.00  0.00    -0.088 NA
ENDBRANCH  19  20
ENDBRANCH   5  19
ENDBRANCH   3   5
ENDBRANCH   1   2
BRANCH   1  23
ATOM     23  C   UNL     1       3.430   6.486  -7.359  0.00  0.00    +0.188 C 
ATOM     24  O   UNL     1       4.730   6.763  -6.639  0.00  0.00    -0.220 OA
BRANCH  23  25
ATOM     25  C   UNL     1       3.117   5.098  -6.543  0.00  0.00    +0.107 C 
BRANCH  25  27
ATOM     26  C   UNL     1       2.030   6.736  -5.135  0.00  0.00    +0.137 C 
ATOM     27  N   UNL     1       1.987   5.258  -5.697  0.00  0.00    -0.264 NA
ATOM     28  C   UNL     1       0.919   5.474  -6.685  0.00  0.00    +0.072 C 
ATOM     29  C   UNL     1      -0.381   5.137  -5.777  0.00  0.00    +0.016 C 
ATOM     30  C   UNL     1      -0.490   6.754  -5.279  0.00  0.00    +0.003 C 
ATOM     31  C   UNL     1      -1.657   6.424  -4.202  0.00  0.00    +0.000 C 
ATOM     32  C   UNL     1      -2.633   5.496  -4.831  0.00  0.00    +0.000 C 
ATOM     33  C   UNL     1      -2.733   5.612  -6.324  0.00  0.00    +0.000 C 
ATOM     34  C   UNL     1      -1.410   5.347  -7.013  0.00  0.00    +0.001 C 
ATOM     35  C   UNL     1       0.688   6.526  -4.190  0.00  0.00    +0.025 C 
BRANCH  26  37
ATOM     36  N   UNL     1       3.281   7.582  -3.117  0.00  0.00    -0.208 NA
ATOM     37  C   UNL     1       3.056   6.411  -3.929  0.00  0.00    +0.256 C 
ATOM     38  O   UNL     1       2.858   5.403  -3.231  0.00  0.00    -0.272 OA
BRANCH  36  40
ATOM     39  C   UNL     1       2.772   7.019  -1.165  0.00  0.00    +0.022 C 
ATOM     40  C   UNL     1       3.478   7.466  -1.668  0.00  0.00    +0.079 C 
ATOM     41  C   UNL     1       4.832   6.813  -1.395  0.00  0.00    +0.022 C 
ATOM     42  C   UNL     1       3.669   8.917  -1.230  0.00  0.00    +0.022 C 
ENDBRANCH  36  40
ENDBRANCH  26  37
ENDBRANCH  25  27
ENDBRANCH  23  25
ENDBRANCH   1  23
BRANCH   1  43
ATOM     43  C   UNL     1       4.884   7.010  -9.345  0.00  0.00    +0.051 C 
BRANCH  43  44
ATOM     44  C   UNL     1       6.140   6.565  -9.966  0.00  0.00    -0.020 A 
ATOM     45  C   UNL     1       6.355   6.956 -11.261  0.00  0.00    -0.004 A 
ATOM     46  C   UNL     1       7.610   6.799 -11.778  0.00  0.00    -0.000 A 
ATOM     47  C   UNL     1       8.314   5.692 -11.356  0.00  0.00    -0.000 A 
ATOM     48  C   UNL     1       7.903   5.010 -10.219  0.00  0.00    -0.000 A 
ATOM     49  C   UNL     1       7.030   5.681  -9.396  0.00  0.00    -0.004 A 
ENDBRANCH  43  44
ENDBRANCH   1  43
TORSDOF 13
ENDMDL
MODEL 5
REMARK VINA RESULT:      -8.1      3.315     11.455
REMARK  Name = 
REMARK  13 active torsions:
REMARK  status: ('A' for Active; 'I' for Inactive)
REMARK    1  A    between atoms: C_2  and  N_5
REMARK    2  A    between atoms: C_6  and  C_8
REMARK    3  A    between atoms: N_17  and  C_18
REMARK    4  A    between atoms: C_18  and  C_19
REMARK    5  A    between atoms: C_19  and  C_21
REMARK    6  A    between atoms: C_21  and  C_22
REMARK    7  A    between atoms: C_21  and  N_29
REMARK    8  A    between atoms: C_22  and  C_23
REMARK    9  A    between atoms: C_30  and  C_32
REMARK   10  A    between atoms: C_32  and  C_33
REMARK   11  A    between atoms: C_32  and  N_37
REMARK   12  A    between atoms: C_33  and  C_34
REMARK   13  A    between atoms: C_38  and  C_40
REMARK                            x       y       z     vdW  Elec       q    Type
REMARK                         _______ _______ _______ _____ _____    ______ ____
ROOT
ATOM      1  C   UNL     1       4.466   5.497 -10.354  0.00  0.00    +0.131 C 
ENDROOT
BRANCH   1   2
ATOM      2  N   UNL     1       3.009   5.712 -10.871  0.00  0.00    -0.203 NA
ATOM      3  C   UNL     1       2.649   5.514 -12.212  0.00  0.00    +0.262 C 
ATOM      4  O   UNL     1       3.553   5.395 -13.051  0.00  0.00    -0.271 OA
BRANCH   3   5
ATOM      5  C   UNL     1       1.664   6.674 -12.794  0.00  0.00    +0.182 C 
BRANCH   5   6
ATOM      6  N   UNL     1       2.344   6.683 -14.217  0.00  0.00    -0.192 NA
ATOM      7  C   UNL     1       1.858   7.449 -15.242  0.00  0.00    +0.283 C 
ATOM      8  O   UNL     1       0.621   7.723 -15.223  0.00  0.00    -0.267 OA
BRANCH   7   9
ATOM      9  C   UNL     1       2.790   8.089 -16.193  0.00  0.00    +0.136 A 
ATOM     10  N   UNL     1       4.107   7.938 -15.915  0.00  0.00    -0.241 NA
ATOM     11  C   UNL     1       5.029   7.563 -16.811  0.00  0.00    +0.081 A 
ATOM     12  C   UNL     1       4.699   7.350 -18.135  0.00  0.00    +0.018 A 
ATOM     13  C   UNL     1       5.375   6.288 -18.728  0.00  0.00    +0.001 A 
ATOM     14  C   UNL     1       6.716   6.168 -18.382  0.00  0.00    +0.000 A 
ATOM     15  C   UNL     1       7.236   6.945 -17.353  0.00  0.00    +0.002 A 
ATOM     16  C   UNL     1       3.448   7.768 -18.514  0.00  0.00    +0.003 A 
ATOM     17  C   UNL     1       6.349   7.443 -16.406  0.00  0.00    +0.019 A 
ATOM     18  C   UNL     1       2.505   8.109 -17.553  0.00  0.00    +0.024 A 
ENDBRANCH   7   9
ENDBRANCH   5   6
BRANCH   5  19
ATOM     19  C   UNL     1       0.488   5.571 -13.150  0.00  0.00    +0.120 C 
BRANCH  19  20
ATOM     20  C   UNL     1      -0.354   5.608 -11.916  0.00  0.00    +0.263 C 
ATOM     21  O   UNL     1      -0.355   4.542 -11.229  0.00  0.00    -0.272 OA
ATOM     22  N   UNL     1      -0.489   6.811 -11.159  0.00  0.00    -0.088 NA
ENDBRANCH  19  20
ENDBRANCH   5  19
ENDBRANCH   3   5
ENDBRANCH   1   2
BRANCH   1  23
ATOM     23  C   UNL     1       4.054   6.190  -8.818  0.00  0.00    +0.188 C 
ATOM     24  O   UNL     1       5.400   5.952  -8.171  0.00  0.00    -0.220 OA
BRANCH  23  25
ATOM     25  C   UNL     1       3.376   4.819  -8.225  0.00  0.00    +0.107 C 
BRANCH  25  27
ATOM     26  C   UNL     1       2.715   6.639  -6.777  0.00  0.00    +0.137 C 
ATOM     27  N   UNL     1       2.490   5.120  -7.157  0.00  0.00    -0.264 NA
ATOM     28  C   UNL     1       1.222   5.303  -7.880  0.00  0.00    +0.072 C 
ATOM     29  C   UNL     1       0.170   5.126  -6.660  0.00  0.00    +0.016 C 
ATOM     30  C   UNL     1       0.237   6.786  -6.320  0.00  0.00    +0.003 C 
ATOM     31  C   UNL     1      -0.645   6.623  -4.969  0.00  0.00    +0.000 C 
ATOM     32  C   UNL     1      -1.774   5.697  -5.249  0.00  0.00    +0.000 C 
ATOM     33  C   UNL     1      -2.228   5.680  -6.679  0.00  0.00    +0.000 C 
ATOM     34  C   UNL     1      -1.120   5.278  -7.632  0.00  0.00    +0.001 C 
ATOM     35  C   UNL     1       1.635   6.593  -5.525  0.00  0.00    +0.025 C 
BRANCH  26  37
ATOM     36  N   UNL     1       4.269   7.523  -5.000  0.00  0.00    -0.208 NA
ATOM     37  C   UNL     1       3.991   6.370  -5.822  0.00  0.00    +0.256 C 
ATOM     38  O   UNL     1       4.033   5.319  -5.163  0.00  0.00    -0.272 OA
BRANCH  36  40
ATOM     39  C   UNL     1       4.493   8.043  -2.984  0.00  0.00    +0.022 C 
ATOM     40  C   UNL     1       4.767   7.366  -3.630  0.00  0.00    +0.079 C 
ATOM     41  C   UNL     1       4.419   5.967  -3.125  0.00  0.00    +0.022 C 
ATOM     42  C   UNL     1       6.282   7.328  -3.817  0.00  0.00    +0.022 C 
ENDBRANCH  36  40
ENDBRANCH  26  37
ENDBRANCH  25  27
ENDBRANCH  23  25
ENDBRANCH   1  23
BRANCH   1  43
ATOM     43  C   UNL     1       5.050   6.862 -11.030  0.00  0.00    +0.051 C 
BRANCH  43  44
ATOM     44  C   UNL     1       6.415   6.579 -11.498  0.00  0.00    -0.020 A 
ATOM     45  C   UNL     1       6.542   6.154 -12.794  0.00  0.00    -0.004 A 
ATOM     46  C   UNL     1       7.792   6.142 -13.346  0.00  0.00    -0.000 A 
ATOM     47  C   UNL     1       8.832   5.823 -12.501  0.00  0.00    -0.000 A 
ATOM     48  C   UNL     1       8.641   5.876 -11.126  0.00  0.00    -0.000 A 
ATOM     49  C   UNL     1       7.537   6.572 -10.697  0.00  0.00    -0.004 A 
ENDBRANCH  43  44
ENDBRANCH   1  43
TORSDOF 13
ENDMDL
MODEL 6
REMARK VINA RESULT:      -7.9      2.802      9.981
REMARK  Name = 
REMARK  13 active torsions:
REMARK  status: ('A' for Active; 'I' for Inactive)
REMARK    1  A    between atoms: C_2  and  N_5
REMARK    2  A    between atoms: C_6  and  C_8
REMARK    3  A    between atoms: N_17  and  C_18
REMARK    4  A    between atoms: C_18  and  C_19
REMARK    5  A    between atoms: C_19  and  C_21
REMARK    6  A    between atoms: C_21  and  C_22
REMARK    7  A    between atoms: C_21  and  N_29
REMARK    8  A    between atoms: C_22  and  C_23
REMARK    9  A    between atoms: C_30  and  C_32
REMARK   10  A    between atoms: C_32  and  C_33
REMARK   11  A    between atoms: C_32  and  N_37
REMARK   12  A    between atoms: C_33  and  C_34
REMARK   13  A    between atoms: C_38  and  C_40
REMARK                            x       y       z     vdW  Elec       q    Type
REMARK                         _______ _______ _______ _____ _____    ______ ____
ROOT
ATOM      1  C   UNL     1       3.592   6.646  -2.257  0.00  0.00    +0.131 C 
ENDROOT
BRANCH   1   2
ATOM      2  N   UNL     1       2.109   7.125  -2.193  0.00  0.00    -0.203 NA
ATOM      3  C   UNL     1       1.031   6.231  -2.104  0.00  0.00    +0.262 C 
ATOM      4  O   UNL     1       1.247   5.029  -2.318  0.00  0.00    -0.271 OA
BRANCH   3   5
ATOM      5  C   UNL     1      -0.220   6.628  -3.069  0.00  0.00    +0.182 C 
BRANCH   5   6
ATOM      6  N   UNL     1       0.332   5.808  -4.298  0.00  0.00    -0.192 NA
ATOM      7  C   UNL     1      -0.075   6.070  -5.578  0.00  0.00    +0.283 C 
ATOM      8  O   UNL     1      -1.227   6.573  -5.727  0.00  0.00    -0.267 OA
BRANCH   7   9
ATOM      9  C   UNL     1       0.886   5.960  -6.695  0.00  0.00    +0.136 A 
ATOM     10  N   UNL     1       0.569   5.059  -7.656  0.00  0.00    -0.241 NA
ATOM     11  C   UNL     1       0.602   5.315  -8.971  0.00  0.00    +0.081 A 
ATOM     12  C   UNL     1       1.028   6.536  -9.454  0.00  0.00    +0.018 A 
ATOM     13  C   UNL     1       0.324   6.987 -10.565  0.00  0.00    +0.001 A 
ATOM     14  C   UNL     1       0.001   6.011 -11.503  0.00  0.00    +0.000 A 
ATOM     15  C   UNL     1       0.202   4.670 -11.200  0.00  0.00    +0.002 A 
ATOM     16  C   UNL     1       1.626   7.366  -8.538  0.00  0.00    +0.003 A 
ATOM     17  C   UNL     1       0.254   4.309  -9.858  0.00  0.00    +0.019 A 
ATOM     18  C   UNL     1       1.534   7.089  -7.181  0.00  0.00    +0.024 A 
ENDBRANCH   7   9
ENDBRANCH   5   6
BRANCH   5  19
ATOM     19  C   UNL     1      -1.157   5.423  -2.439  0.00  0.00    +0.120 C 
BRANCH  19  20
ATOM     20  C   UNL     1      -2.535   5.968  -2.634  0.00  0.00    +0.263 C 
ATOM     21  O   UNL     1      -2.601   7.224  -2.800  0.00  0.00    -0.272 OA
ATOM     22  N   UNL     1      -3.526   5.216  -3.333  0.00  0.00    -0.088 NA
ENDBRANCH  19  20
ENDBRANCH   5  19
ENDBRANCH   3   5
ENDBRANCH   1   2
BRANCH   1  23
ATOM     23  C   UNL     1       4.093   7.972  -1.257  0.00  0.00    +0.188 C 
ATOM     24  O   UNL     1       5.309   7.283  -0.678  0.00  0.00    -0.220 OA
BRANCH  23  25
ATOM     25  C   UNL     1       3.108   7.581  -0.005  0.00  0.00    +0.107 C 
BRANCH  25  27
ATOM     26  C   UNL     1       1.929   8.262   1.993  0.00  0.00    +0.137 C 
ATOM     27  N   UNL     1       2.728   8.745   0.715  0.00  0.00    -0.264 NA
ATOM     28  C   UNL     1       3.984   9.076   1.406  0.00  0.00    +0.072 C 
ATOM     29  C   UNL     1       3.701  10.628   1.780  0.00  0.00    +0.016 C 
ATOM     30  C   UNL     1       2.991  10.174   3.252  0.00  0.00    +0.003 C 
ATOM     31  C   UNL     1       2.503  11.688   3.572  0.00  0.00    +0.000 C 
ATOM     32  C   UNL     1       3.609  12.623   3.233  0.00  0.00    +0.000 C 
ATOM     33  C   UNL     1       4.984  12.031   3.343  0.00  0.00    +0.000 C 
ATOM     34  C   UNL     1       5.169  10.829   2.440  0.00  0.00    +0.001 C 
ATOM     35  C   UNL     1       1.605   9.803   2.500  0.00  0.00    +0.025 C 
BRANCH  26  37
ATOM     36  N   UNL     1      -0.390   7.273   1.998  0.00  0.00    -0.208 NA
ATOM     37  C   UNL     1       0.510   8.104   1.235  0.00  0.00    +0.256 C 
ATOM     38  O   UNL     1      -0.058   9.123   0.810  0.00  0.00    -0.272 OA
BRANCH  36  40
ATOM     39  C   UNL     1      -2.106   8.423   2.342  0.00  0.00    +0.022 C 
ATOM     40  C   UNL     1      -1.831   7.546   2.017  0.00  0.00    +0.079 C 
ATOM     41  C   UNL     1      -2.412   7.278   0.629  0.00  0.00    +0.022 C 
ATOM     42  C   UNL     1      -2.384   6.411   2.877  0.00  0.00    +0.022 C 
ENDBRANCH  36  40
ENDBRANCH  26  37
ENDBRANCH  25  27
ENDBRANCH  23  25
ENDBRANCH   1  23
BRANCH   1  43
ATOM     43  C   UNL     1       3.902   7.359  -3.691  0.00  0.00    +0.051 C 
BRANCH  43  44
ATOM     44  C   UNL     1       4.058   6.296  -4.694  0.00  0.00    -0.020 A 
ATOM     45  C   UNL     1       4.402   6.693  -5.959  0.00  0.00    -0.004 A 
ATOM     46  C   UNL     1       4.818   5.736  -6.841  0.00  0.00    -0.000 A 
ATOM     47  C   UNL     1       4.213   4.503  -6.739  0.00  0.00    -0.000 A 
ATOM     48  C   UNL     1       3.508   4.177  -5.587  0.00  0.00    -0.000 A 
ATOM     49  C   UNL     1       3.748   4.969  -4.490  0.00  0.00    -0.004 A 
ENDBRANCH  43  44
ENDBRANCH   1  43
TORSDOF 13
ENDMDL
MODEL 7
REMARK VINA RESULT:      -7.8      3.140     10.921
REMARK  Name = 
REMARK  13 active torsions:
REMARK  status: ('A' for Active; 'I' for Inactive)
REMARK    1  A    between atoms: C_2  and  N_5
REMARK    2  A    between atoms: C_6  and  C_8
REMARK    3  A    between atoms: N_17  and  C_18
REMARK    4  A    between atoms: C_18  and  C_19
REMARK    5  A    between atoms: C_19  and  C_21
REMARK    6  A    between atoms: C_21  and  C_22
REMARK    7  A    between atoms: C_21  and  N_29
REMARK    8  A    between atoms: C_22  and  C_23
REMARK    9  A    between atoms: C_30  and  C_32
REMARK   10  A    between atoms: C_32  and  C_33
REMARK   11  A    between atoms: C_32  and  N_37
REMARK   12  A    between atoms: C_33  and  C_34
REMARK   13  A    between atoms: C_38  and  C_40
REMARK                            x       y       z     vdW  Elec       q    Type
REMARK                         _______ _______ _______ _____ _____    ______ ____
ROOT
ATOM      1  C   UNL     1       4.640   5.700 -10.199  0.00  0.00    +0.131 C 
ENDROOT
BRANCH   1   2
ATOM      2  N   UNL     1       3.139   5.995 -10.504  0.00  0.00    -0.203 NA
ATOM      3  C   UNL     1       2.544   5.679 -11.735  0.00  0.00    +0.262 C 
ATOM      4  O   UNL     1       3.283   5.376 -12.683  0.00  0.00    -0.271 OA
BRANCH   3   5
ATOM      5  C   UNL     1       1.568   6.853 -12.302  0.00  0.00    +0.182 C 
BRANCH   5   6
ATOM      6  N   UNL     1       1.780   6.446 -13.810  0.00  0.00    -0.192 NA
ATOM      7  C   UNL     1       1.726   7.369 -14.820  0.00  0.00    +0.283 C 
ATOM      8  O   UNL     1       1.015   8.398 -14.624  0.00  0.00    -0.267 OA
BRANCH   7   9
ATOM      9  C   UNL     1       2.631   7.247 -15.981  0.00  0.00    +0.136 A 
ATOM     10  N   UNL     1       2.548   8.241 -16.897  0.00  0.00    -0.241 NA
ATOM     11  C   UNL     1       3.605   8.886 -17.409  0.00  0.00    +0.081 A 
ATOM     12  C   UNL     1       4.895   8.533 -17.068  0.00  0.00    +0.018 A 
ATOM     13  C   UNL     1       5.768   9.608 -16.944  0.00  0.00    +0.001 A 
ATOM     14  C   UNL     1       5.616  10.612 -17.895  0.00  0.00    +0.000 A 
ATOM     15  C   UNL     1       4.520  10.592 -18.750  0.00  0.00    +0.002 A 
ATOM     16  C   UNL     1       5.030   7.355 -16.375  0.00  0.00    +0.003 A 
ATOM     17  C   UNL     1       3.392   9.888 -18.341  0.00  0.00    +0.019 A 
ATOM     18  C   UNL     1       3.914   6.738 -15.824  0.00  0.00    +0.024 A 
ENDBRANCH   7   9
ENDBRANCH   5   6
BRANCH   5  19
ATOM     19  C   UNL     1       0.222   5.934 -12.041  0.00  0.00    +0.120 C 
BRANCH  19  20
ATOM     20  C   UNL     1      -0.567   6.798 -11.111  0.00  0.00    +0.263 C 
ATOM     21  O   UNL     1       0.080   7.263 -10.124  0.00  0.00    -0.272 OA
ATOM     22  N   UNL     1      -1.603   7.648 -11.604  0.00  0.00    -0.088 NA
ENDBRANCH  19  20
ENDBRANCH   5  19
ENDBRANCH   3   5
ENDBRANCH   1   2
BRANCH   1  23
ATOM     23  C   UNL     1       4.515   6.502  -8.666  0.00  0.00    +0.188 C 
ATOM     24  O   UNL     1       5.863   6.057  -8.144  0.00  0.00    -0.220 OA
BRANCH  23  25
ATOM     25  C   UNL     1       3.683   5.287  -7.942  0.00  0.00    +0.107 C 
BRANCH  25  27
ATOM     26  C   UNL     1       2.592   4.428  -5.962  0.00  0.00    +0.137 C 
ATOM     27  N   UNL     1       3.161   5.712  -6.691  0.00  0.00    -0.264 NA
ATOM     28  C   UNL     1       4.392   5.837  -5.895  0.00  0.00    +0.072 C 
ATOM     29  C   UNL     1       3.860   6.788  -4.696  0.00  0.00    +0.016 C 
ATOM     30  C   UNL     1       3.391   5.434  -3.789  0.00  0.00    +0.003 C 
ATOM     31  C   UNL     1       2.660   6.345  -2.663  0.00  0.00    +0.000 C 
ATOM     32  C   UNL     1       3.534   7.508  -2.357  0.00  0.00    +0.000 C 
ATOM     33  C   UNL     1       4.999   7.263  -2.566  0.00  0.00    +0.000 C 
ATOM     34  C   UNL     1       5.320   6.872  -3.995  0.00  0.00    +0.001 C 
ATOM     35  C   UNL     1       2.034   5.287  -4.663  0.00  0.00    +0.025 C 
BRANCH  26  37
ATOM     36  N   UNL     1       0.095   4.728  -5.789  0.00  0.00    -0.208 NA
ATOM     37  C   UNL     1       1.163   4.446  -6.717  0.00  0.00    +0.256 C 
ATOM     38  O   UNL     1       1.047   5.107  -7.762  0.00  0.00    -0.272 OA
BRANCH  36  40
ATOM     39  C   UNL     1      -1.349   5.437  -7.130  0.00  0.00    +0.022 C 
ATOM     40  C   UNL     1      -1.068   5.521  -6.200  0.00  0.00    +0.079 C 
ATOM     41  C   UNL     1      -2.234   5.233  -5.255  0.00  0.00    +0.022 C 
ATOM     42  C   UNL     1      -0.651   6.949  -5.851  0.00  0.00    +0.022 C 
ENDBRANCH  36  40
ENDBRANCH  26  37
ENDBRANCH  25  27
ENDBRANCH  23  25
ENDBRANCH   1  23
BRANCH   1  43
ATOM     43  C   UNL     1       5.201   6.981 -11.039  0.00  0.00    +0.051 C 
BRANCH  43  44
ATOM     44  C   UNL     1       6.510   6.611 -11.596  0.00  0.00    -0.020 A 
ATOM     45  C   UNL     1       6.526   6.209 -12.906  0.00  0.00    -0.004 A 
ATOM     46  C   UNL     1       7.736   6.119 -13.534  0.00  0.00    -0.000 A 
ATOM     47  C   UNL     1       8.799   5.704 -12.761  0.00  0.00    -0.000 A 
ATOM     48  C   UNL     1       8.696   5.738 -11.377  0.00  0.00    -0.000 A 
ATOM     49  C   UNL     1       7.674   6.502 -10.867  0.00  0.00    -0.004 A 
ENDBRANCH  43  44
ENDBRANCH   1  43
TORSDOF 13
ENDMDL
MODEL 8
REMARK VINA RESULT:      -7.8      2.196     10.417
REMARK  Name = 
REMARK  13 active torsions:
REMARK  status: ('A' for Active; 'I' for Inactive)
REMARK    1  A    between atoms: C_2  and  N_5
REMARK    2  A    between atoms: C_6  and  C_8
REMARK    3  A    between atoms: N_17  and  C_18
REMARK    4  A    between atoms: C_18  and  C_19
REMARK    5  A    between atoms: C_19  and  C_21
REMARK    6  A    between atoms: C_21  and  C_22
REMARK    7  A    between atoms: C_21  and  N_29
REMARK    8  A    between atoms: C_22  and  C_23
REMARK    9  A    between atoms: C_30  and  C_32
REMARK   10  A    between atoms: C_32  and  C_33
REMARK   11  A    between atoms: C_32  and  N_37
REMARK   12  A    between atoms: C_33  and  C_34
REMARK   13  A    between atoms: C_38  and  C_40
REMARK                            x       y       z     vdW  Elec       q    Type
REMARK                         _______ _______ _______ _____ _____    ______ ____
ROOT
ATOM      1  C   UNL     1       2.943   5.847  -4.526  0.00  0.00    +0.131 C 
ENDROOT
BRANCH   1   2
ATOM      2  N   UNL     1       1.493   6.384  -4.736  0.00  0.00    -0.203 NA
ATOM      3  C   UNL     1       0.422   5.546  -5.082  0.00  0.00    +0.262 C 
ATOM      4  O   UNL     1       0.677   4.394  -5.462  0.00  0.00    -0.271 OA
BRANCH   3   5
ATOM      5  C   UNL     1      -0.547   6.177  -6.230  0.00  0.00    +0.182 C 
BRANCH   5   6
ATOM      6  N   UNL     1       0.072   5.299  -7.384  0.00  0.00    -0.192 NA
ATOM      7  C   UNL     1      -0.152   5.585  -8.704  0.00  0.00    +0.283 C 
ATOM      8  O   UNL     1      -1.227   6.189  -8.990  0.00  0.00    -0.267 OA
BRANCH   7   9
ATOM      9  C   UNL     1       0.923   5.377  -9.697  0.00  0.00    +0.136 A 
ATOM     10  N   UNL     1       0.574   4.676 -10.801  0.00  0.00    -0.241 NA
ATOM     11  C   UNL     1       0.858   5.052 -12.055  0.00  0.00    +0.081 A 
ATOM     12  C   UNL     1       1.597   6.189 -12.313  0.00  0.00    +0.018 A 
ATOM     13  C   UNL     1       1.179   6.899 -13.434  0.00  0.00    +0.001 A 
ATOM     14  C   UNL     1       0.805   6.124 -14.526  0.00  0.00    +0.000 A 
ATOM     15  C   UNL     1       0.675   4.747 -14.383  0.00  0.00    +0.002 A 
ATOM     16  C   UNL     1       2.210   6.763 -11.228  0.00  0.00    +0.003 A 
ATOM     17  C   UNL     1       0.447   4.247 -13.106  0.00  0.00    +0.019 A 
ATOM     18  C   UNL     1       1.858   6.375  -9.942  0.00  0.00    +0.024 A 
ENDBRANCH   7   9
ENDBRANCH   5   6
BRANCH   5  19
ATOM     19  C   UNL     1      -1.773   5.143  -5.838  0.00  0.00    +0.120 C 
BRANCH  19  20
ATOM     20  C   UNL     1      -2.350   5.794  -4.621  0.00  0.00    +0.263 C 
ATOM     21  O   UNL     1      -2.727   6.994  -4.778  0.00  0.00    -0.272 OA
ATOM     22  N   UNL     1      -3.117   5.039  -3.683  0.00  0.00    -0.088 NA
ENDBRANCH  19  20
ENDBRANCH   5  19
ENDBRANCH   3   5
ENDBRANCH   1   2
BRANCH   1  23
ATOM     23  C   UNL     1       3.213   6.991  -3.251  0.00  0.00    +0.188 C 
ATOM     24  O   UNL     1       4.699   7.144  -3.487  0.00  0.00    -0.220 OA
BRANCH  23  25
ATOM     25  C   UNL     1       3.379   5.855  -2.079  0.00  0.00    +0.107 C 
BRANCH  25  27
ATOM     26  C   UNL     1       2.929   7.720  -0.607  0.00  0.00    +0.137 C 
ATOM     27  N   UNL     1       2.617   6.203  -0.932  0.00  0.00    -0.264 NA
ATOM     28  C   UNL     1       1.288   6.418  -1.525  0.00  0.00    +0.072 C 
ATOM     29  C   UNL     1       0.363   6.296  -0.201  0.00  0.00    +0.016 C 
ATOM     30  C   UNL     1       0.517   7.958   0.098  0.00  0.00    +0.003 C 
ATOM     31  C   UNL     1      -0.226   7.848   1.535  0.00  0.00    +0.000 C 
ATOM     32  C   UNL     1      -1.407   6.956   1.390  0.00  0.00    +0.000 C 
ATOM     33  C   UNL     1      -2.006   6.931   0.014  0.00  0.00    +0.000 C 
ATOM     34  C   UNL     1      -1.015   6.476  -1.039  0.00  0.00    +0.001 C 
ATOM     35  C   UNL     1       1.983   7.731   0.750  0.00  0.00    +0.025 C 
BRANCH  26  37
ATOM     36  N   UNL     1       4.595   8.515   1.110  0.00  0.00    -0.208 NA
ATOM     37  C   UNL     1       4.287   7.423   0.218  0.00  0.00    +0.256 C 
ATOM     38  O   UNL     1       4.417   6.324   0.780  0.00  0.00    -0.272 OA
BRANCH  36  40
ATOM     39  C   UNL     1       4.954   7.441   2.872  0.00  0.00    +0.022 C 
ATOM     40  C   UNL     1       5.208   8.266   2.418  0.00  0.00    +0.079 C 
ATOM     41  C   UNL     1       6.728   8.364   2.289  0.00  0.00    +0.022 C 
ATOM     42  C   UNL     1       4.823   9.508   3.220  0.00  0.00    +0.022 C 
ENDBRANCH  36  40
ENDBRANCH  26  37
ENDBRANCH  25  27
ENDBRANCH  23  25
ENDBRANCH   1  23
BRANCH   1  43
ATOM     43  C   UNL     1       3.591   6.742  -5.726  0.00  0.00    +0.051 C 
BRANCH  43  44
ATOM     44  C   UNL     1       3.973   5.825  -6.810  0.00  0.00    -0.020 A 
ATOM     45  C   UNL     1       4.849   6.312  -7.744  0.00  0.00    -0.004 A 
ATOM     46  C   UNL     1       5.433   5.422  -8.601  0.00  0.00    -0.000 A 
ATOM     47  C   UNL     1       4.658   4.354  -8.998  0.00  0.00    -0.000 A 
ATOM     48  C   UNL     1       3.512   4.034  -8.283  0.00  0.00    -0.000 A 
ATOM     49  C   UNL     1       3.410   4.586  -7.029  0.00  0.00    -0.004 A 
ENDBRANCH  43  44
ENDBRANCH   1  43
TORSDOF 13
ENDMDL
MODEL 9
REMARK VINA RESULT:      -7.7      4.194      8.368
REMARK  Name = 
REMARK  13 active torsions:
REMARK  status: ('A' for Active; 'I' for Inactive)
REMARK    1  A    between atoms: C_2  and  N_5
REMARK    2  A    between atoms: C_6  and  C_8
REMARK    3  A    between atoms: N_17  and  C_18
REMARK    4  A    between atoms: C_18  and  C_19
REMARK    5  A    between atoms: C_19  and  C_21
REMARK    6  A    between atoms: C_21  and  C_22
REMARK    7  A    between atoms: C_21  and  N_29
REMARK    8  A    between atoms: C_22  and  C_23
REMARK    9  A    between atoms: C_30  and  C_32
REMARK   10  A    between atoms: C_32  and  C_33
REMARK   11  A    between atoms: C_32  and  N_37
REMARK   12  A    between atoms: C_33  and  C_34
REMARK   13  A    between atoms: C_38  and  C_40
REMARK                            x       y       z     vdW  Elec       q    Type
REMARK                         _______ _______ _______ _____ _____    ______ ____
ROOT
ATOM      1  C   UNL     1       3.171   6.852  -0.530  0.00  0.00    +0.131 C 
ENDROOT
BRANCH   1   2
ATOM      2  N   UNL     1       4.593   7.039   0.085  0.00  0.00    -0.203 NA
ATOM      3  C   UNL     1       4.816   7.076   1.469  0.00  0.00    +0.262 C 
ATOM      4  O   UNL     1       3.837   7.200   2.219  0.00  0.00    -0.271 OA
BRANCH   3   5
ATOM      5  C   UNL     1       5.862   8.240   1.924  0.00  0.00    +0.182 C 
BRANCH   5   6
ATOM      6  N   UNL     1       4.761   9.368   1.944  0.00  0.00    -0.192 NA
ATOM      7  C   UNL     1       5.090  10.692   2.064  0.00  0.00    +0.283 C 
ATOM      8  O   UNL     1       6.169  10.967   2.666  0.00  0.00    -0.267 OA
BRANCH   7   9
ATOM      9  C   UNL     1       4.315  11.714   1.331  0.00  0.00    +0.136 A 
ATOM     10  N   UNL     1       4.599  13.001   1.642  0.00  0.00    -0.241 NA
ATOM     11  C   UNL     1       4.825  13.964   0.739  0.00  0.00    +0.081 A 
ATOM     12  C   UNL     1       4.726  13.715  -0.615  0.00  0.00    +0.018 A 
ATOM     13  C   UNL     1       5.670  14.381  -1.389  0.00  0.00    +0.001 A 
ATOM     14  C   UNL     1       5.942  15.689  -1.003  0.00  0.00    +0.000 A 
ATOM     15  C   UNL     1       5.440  16.173   0.199  0.00  0.00    +0.002 A 
ATOM     16  C   UNL     1       4.162  12.513  -0.962  0.00  0.00    +0.003 A 
ATOM     17  C   UNL     1       5.107  15.246   1.182  0.00  0.00    +0.019 A 
ATOM     18  C   UNL     1       3.983  11.523  -0.004  0.00  0.00    +0.024 A 
ENDBRANCH   7   9
ENDBRANCH   5   6
BRANCH   5  19
ATOM     19  C   UNL     1       5.728   7.812   3.514  0.00  0.00    +0.120 C 
BRANCH  19  20
ATOM     20  C   UNL     1       7.015   7.088   3.749  0.00  0.00    +0.263 C 
ATOM     21  O   UNL     1       6.949   5.825   3.662  0.00  0.00    -0.272 OA
ATOM     22  N   UNL     1       8.258   7.655   3.336  0.00  0.00    -0.088 NA
ENDBRANCH  19  20
ENDBRANCH   5  19
ENDBRANCH   3   5
ENDBRANCH   1   2
BRANCH   1  23
ATOM     23  C   UNL     1       3.829   6.885  -2.134  0.00  0.00    +0.188 C 
ATOM     24  O   UNL     1       2.899   7.954  -2.665  0.00  0.00    -0.220 OA
BRANCH  23  25
ATOM     25  C   UNL     1       2.921   5.633  -2.682  0.00  0.00    +0.107 C 
BRANCH  25  27
ATOM     26  C   UNL     1       1.664   5.145  -4.689  0.00  0.00    +0.137 C 
ATOM     27  N   UNL     1       1.819   6.107  -3.442  0.00  0.00    -0.264 NA
ATOM     28  C   UNL     1       0.687   5.577  -2.666  0.00  0.00    +0.072 C 
ATOM     29  C   UNL     1      -0.504   6.528  -3.216  0.00  0.00    +0.016 C 
ATOM     30  C   UNL     1      -0.834   5.438  -4.474  0.00  0.00    +0.003 C 
ATOM     31  C   UNL     1      -1.888   6.451  -5.177  0.00  0.00    +0.000 C 
ATOM     32  C   UNL     1      -2.740   7.056  -4.120  0.00  0.00    +0.000 C 
ATOM     33  C   UNL     1      -2.924   6.202  -2.899  0.00  0.00    +0.000 C 
ATOM     34  C   UNL     1      -1.608   5.868  -2.226  0.00  0.00    +0.001 C 
ATOM     35  C   UNL     1       0.413   6.014  -5.334  0.00  0.00    +0.025 C 
BRANCH  26  37
ATOM     36  N   UNL     1       3.288   4.998  -6.611  0.00  0.00    -0.208 NA
ATOM     37  C   UNL     1       2.780   5.886  -5.593  0.00  0.00    +0.256 C 
ATOM     38  O   UNL     1       2.526   7.010  -6.053  0.00  0.00    -0.272 OA
BRANCH  36  40
ATOM     39  C   UNL     1       3.312   6.387  -8.179  0.00  0.00    +0.022 C 
ATOM     40  C   UNL     1       3.656   5.507  -7.936  0.00  0.00    +0.079 C 
ATOM     41  C   UNL     1       5.175   5.460  -8.089  0.00  0.00    +0.022 C 
ATOM     42  C   UNL     1       3.153   4.412  -8.876  0.00  0.00    +0.022 C 
ENDBRANCH  36  40
ENDBRANCH  26  37
ENDBRANCH  25  27
ENDBRANCH  23  25
ENDBRANCH   1  23
BRANCH   1  43
ATOM     43  C   UNL     1       2.782   8.435  -0.450  0.00  0.00    +0.051 C 
BRANCH  43  44
ATOM     44  C   UNL     1       1.600   8.560   0.416  0.00  0.00    -0.020 A 
ATOM     45  C   UNL     1       0.718   7.511   0.404  0.00  0.00    -0.004 A 
ATOM     46  C   UNL     1      -0.236   7.465   1.380  0.00  0.00    -0.000 A 
ATOM     47  C   UNL     1      -0.742   8.675   1.802  0.00  0.00    -0.000 A 
ATOM     48  C   UNL     1      -0.057   9.846   1.506  0.00  0.00    -0.000 A 
ATOM     49  C   UNL     1       1.251   9.696   1.113  0.00  0.00    -0.004 A 
ENDBRANCH  43  44
ENDBRANCH   1  43
TORSDOF 13
ENDMDL
