MODEL 1
REMARK VINA RESULT:      -9.2      0.000      0.000
REMARK  Name = 
REMARK  5 active torsions:
REMARK  status: ('A' for Active; 'I' for Inactive)
REMARK    1  A    between atoms: C_2  and  C_3
REMARK    2  A    between atoms: C_5  and  O_6
REMARK    3  A    between atoms: O_6  and  C_7
REMARK    4  A    between atoms: C_12  and  C_13
REMARK    5  A    between atoms: C_14  and  C_15
REMARK                            x       y       z     vdW  Elec       q    Type
REMARK                         _______ _______ _______ _____ _____    ______ ____
ROOT
ATOM      1  C   UNL     1       3.083   5.954 -10.221  0.00  0.00    +0.145 A 
ATOM      2  C   UNL     1       2.769   6.181  -8.878  0.00  0.00    +0.037 A 
ATOM      3  C   UNL     1       1.435   6.123  -8.483  0.00  0.00    +0.006 A 
ATOM      4  C   UNL     1       0.465   6.069  -9.482  0.00  0.00    +0.042 A 
ATOM      5  C   UNL     1       0.778   6.446 -10.783  0.00  0.00    +0.199 A 
ATOM      6  O   UNL     1      -0.180   6.316 -11.792  0.00  0.00    -0.286 OA
ATOM      7  C   UNL     1       2.112   6.480 -11.078  0.00  0.00    +0.079 A 
ENDROOT
BRANCH   3   8
ATOM      8  C   UNL     1       0.982   6.325  -7.121  0.00  0.00    +0.000 C 
ATOM      9  C   UNL     1      -0.150   5.785  -6.685  0.00  0.00    +0.000 C 
BRANCH   9  10
ATOM     10  C   UNL     1      -0.669   6.116  -5.385  0.00  0.00    +0.000 A 
ATOM     11  C   UNL     1      -2.010   6.438  -5.261  0.00  0.00    +0.003 A 
ATOM     12  C   UNL     1      -2.693   6.125  -4.089  0.00  0.00    +0.042 A 
ATOM     13  C   UNL     1      -2.049   5.472  -3.056  0.00  0.00    +0.196 A 
ATOM     14  O   UNL     1      -2.700   4.852  -2.014  0.00  0.00    -0.287 OA
ATOM     15  C   UNL     1      -0.661   5.522  -3.077  0.00  0.00    +0.042 A 
ATOM     16  C   UNL     1       0.036   5.943  -4.204  0.00  0.00    +0.003 A 
ENDBRANCH   9  10
ENDBRANCH   3   8
BRANCH   1  17
ATOM     17  O   UNL     1       4.363   6.276 -10.663  0.00  0.00    -0.450 OA
BRANCH  17  25
ATOM     18  C   UNL     1       7.135   6.727 -10.722  0.00  0.00    +0.185 C 
ATOM     19  C   UNL     1       7.757   6.589 -12.325  0.00  0.00    +0.215 C 
ATOM     20  O   UNL     1       8.990   5.904 -11.822  0.00  0.00    -0.218 OA
ATOM     21  C   UNL     1       7.056   5.106 -12.736  0.00  0.00    +0.221 C 
ATOM     22  O   UNL     1       7.247   5.394 -14.195  0.00  0.00    -0.217 OA
ATOM     23  C   UNL     1       5.523   5.835 -12.763  0.00  0.00    +0.254 C 
ATOM     24  O   UNL     1       4.943   4.665 -13.484  0.00  0.00    -0.213 OA
ATOM     25  C   UNL     1       5.186   5.095 -11.238  0.00  0.00    +0.322 C 
ATOM     26  O   UNL     1       6.463   5.438 -10.583  0.00  0.00    -0.316 OA
BRANCH  18  28
ATOM     27  O   UNL     1       5.901   8.299 -11.127  0.00  0.00    -0.218 OA
ATOM     28  C   UNL     1       5.950   7.749 -11.242  0.00  0.00    +0.214 C 
ENDBRANCH  18  28
ENDBRANCH  17  25
ENDBRANCH   1  17
TORSDOF 5
ENDMDL
MODEL 2
REMARK VINA RESULT:      -9.2      2.671     10.371
REMARK  Name = 
REMARK  5 active torsions:
REMARK  status: ('A' for Active; 'I' for Inactive)
REMARK    1  A    between atoms: C_2  and  C_3
REMARK    2  A    between atoms: C_5  and  O_6
REMARK    3  A    between atoms: O_6  and  C_7
REMARK    4  A    between atoms: C_12  and  C_13
REMARK    5  A    between atoms: C_14  and  C_15
REMARK                            x       y       z     vdW  Elec       q    Type
REMARK                         _______ _______ _______ _____ _____    ______ ____
ROOT
ATOM      1  C   UNL     1       1.738   5.543  -5.036  0.00  0.00    +0.145 A 
ATOM      2  C   UNL     1       2.166   5.876  -6.324  0.00  0.00    +0.037 A 
ATOM      3  C   UNL     1       3.488   5.618  -6.678  0.00  0.00    +0.006 A 
ATOM      4  C   UNL     1       4.372   5.256  -5.664  0.00  0.00    +0.042 A 
ATOM      5  C   UNL     1       4.058   5.515  -4.334  0.00  0.00    +0.199 A 
ATOM      6  O   UNL     1       4.914   5.080  -3.321  0.00  0.00    -0.286 OA
ATOM      7  C   UNL     1       2.737   5.763  -4.083  0.00  0.00    +0.079 A 
ENDROOT
BRANCH   3   8
ATOM      8  C   UNL     1       4.049   5.904  -7.983  0.00  0.00    +0.000 C 
ATOM      9  C   UNL     1       5.213   5.387  -8.360  0.00  0.00    +0.000 C 
BRANCH   9  10
ATOM     10  C   UNL     1       5.835   5.796  -9.591  0.00  0.00    +0.000 A 
ATOM     11  C   UNL     1       7.213   5.917  -9.637  0.00  0.00    +0.003 A 
ATOM     12  C   UNL     1       7.894   5.654 -10.823  0.00  0.00    +0.042 A 
ATOM     13  C   UNL     1       7.205   5.247 -11.949  0.00  0.00    +0.196 A 
ATOM     14  O   UNL     1       7.802   4.672 -13.048  0.00  0.00    -0.287 OA
ATOM     15  C   UNL     1       5.842   5.511 -11.957  0.00  0.00    +0.042 A 
ATOM     16  C   UNL     1       5.166   5.888 -10.802  0.00  0.00    +0.003 A 
ENDBRANCH   9  10
ENDBRANCH   3   8
BRANCH   1  17
ATOM     17  O   UNL     1       0.515   6.041  -4.597  0.00  0.00    -0.450 OA
BRANCH  17  25
ATOM     18  C   UNL     1      -2.260   6.454  -4.446  0.00  0.00    +0.185 C 
ATOM     19  C   UNL     1      -2.727   6.993  -2.875  0.00  0.00    +0.215 C 
ATOM     20  O   UNL     1      -3.964   6.152  -2.919  0.00  0.00    -0.218 OA
ATOM     21  C   UNL     1      -1.918   5.823  -1.960  0.00  0.00    +0.221 C 
ATOM     22  O   UNL     1      -1.991   6.693  -0.741  0.00  0.00    -0.217 OA
ATOM     23  C   UNL     1      -0.428   6.509  -2.396  0.00  0.00    +0.254 C 
ATOM     24  O   UNL     1       0.273   5.752  -1.319  0.00  0.00    -0.213 OA
ATOM     25  C   UNL     1      -0.193   5.203  -3.503  0.00  0.00    +0.322 C 
ATOM     26  O   UNL     1      -1.539   5.230  -4.106  0.00  0.00    -0.316 OA
BRANCH  18  28
ATOM     27  O   UNL     1      -1.087   8.076  -4.839  0.00  0.00    -0.218 OA
ATOM     28  C   UNL     1      -1.085   7.610  -4.521  0.00  0.00    +0.214 C 
ENDBRANCH  18  28
ENDBRANCH  17  25
ENDBRANCH   1  17
TORSDOF 5
ENDMDL
MODEL 3
REMARK VINA RESULT:      -8.8      2.496      9.082
REMARK  Name = 
REMARK  5 active torsions:
REMARK  status: ('A' for Active; 'I' for Inactive)
REMARK    1  A    between atoms: C_2  and  C_3
REMARK    2  A    between atoms: C_5  and  O_6
REMARK    3  A    between atoms: O_6  and  C_7
REMARK    4  A    between atoms: C_12  and  C_13
REMARK    5  A    between atoms: C_14  and  C_15
REMARK                            x       y       z     vdW  Elec       q    Type
REMARK                         _______ _______ _______ _____ _____    ______ ____
ROOT
ATOM      1  C   UNL     1       0.808   6.506  -7.930  0.00  0.00    +0.145 A 
ATOM      2  C   UNL     1       2.137   6.675  -8.328  0.00  0.00    +0.037 A 
ATOM      3  C   UNL     1       2.488   6.369  -9.641  0.00  0.00    +0.006 A 
ATOM      4  C   UNL     1       1.550   5.697 -10.422  0.00  0.00    +0.042 A 
ATOM      5  C   UNL     1       0.490   5.025  -9.823  0.00  0.00    +0.199 A 
ATOM      6  O   UNL     1      -0.486   4.419 -10.617  0.00  0.00    -0.286 OA
ATOM      7  C   UNL     1       0.223   5.388  -8.532  0.00  0.00    +0.079 A 
ENDROOT
BRANCH   3   8
ATOM      8  C   UNL     1       3.826   6.514 -10.179  0.00  0.00    +0.000 C 
ATOM      9  C   UNL     1       4.892   6.136  -9.483  0.00  0.00    +0.000 C 
BRANCH   9  10
ATOM     10  C   UNL     1       6.219   6.424  -9.959  0.00  0.00    +0.000 A 
ATOM     11  C   UNL     1       7.270   5.630  -9.531  0.00  0.00    +0.003 A 
ATOM     12  C   UNL     1       8.355   5.403 -10.373  0.00  0.00    +0.042 A 
ATOM     13  C   UNL     1       8.380   5.942 -11.644  0.00  0.00    +0.196 A 
ATOM     14  O   UNL     1       9.235   5.525 -12.639  0.00  0.00    -0.287 OA
ATOM     15  C   UNL     1       7.518   7.008 -11.870  0.00  0.00    +0.042 A 
ATOM     16  C   UNL     1       6.498   7.320 -10.979  0.00  0.00    +0.003 A 
ENDBRANCH   9  10
ENDBRANCH   3   8
BRANCH   1  17
ATOM     17  O   UNL     1       0.516   6.548  -6.571  0.00  0.00    -0.450 OA
BRANCH  17  25
ATOM     18  C   UNL     1      -0.800   5.710  -4.234  0.00  0.00    +0.185 C 
ATOM     19  C   UNL     1       0.096   6.141  -2.824  0.00  0.00    +0.215 C 
ATOM     20  O   UNL     1      -0.250   4.841  -2.167  0.00  0.00    -0.218 OA
ATOM     21  C   UNL     1       1.606   5.544  -3.296  0.00  0.00    +0.221 C 
ATOM     22  O   UNL     1       2.290   6.410  -2.281  0.00  0.00    -0.217 OA
ATOM     23  C   UNL     1       1.728   6.770  -4.465  0.00  0.00    +0.254 C 
ATOM     24  O   UNL     1       3.187   6.510  -4.633  0.00  0.00    -0.213 OA
ATOM     25  C   UNL     1       1.353   5.597  -5.678  0.00  0.00    +0.322 C 
ATOM     26  O   UNL     1       0.216   4.969  -4.979  0.00  0.00    -0.316 OA
BRANCH  18  28
ATOM     27  O   UNL     1      -1.094   7.636  -4.835  0.00  0.00    -0.218 OA
ATOM     28  C   UNL     1      -0.683   7.251  -4.811  0.00  0.00    +0.214 C 
ENDBRANCH  18  28
ENDBRANCH  17  25
ENDBRANCH   1  17
TORSDOF 5
ENDMDL
MODEL 4
REMARK VINA RESULT:      -8.8      3.737      9.191
REMARK  Name = 
REMARK  5 active torsions:
REMARK  status: ('A' for Active; 'I' for Inactive)
REMARK    1  A    between atoms: C_2  and  C_3
REMARK    2  A    between atoms: C_5  and  O_6
REMARK    3  A    between atoms: O_6  and  C_7
REMARK    4  A    between atoms: C_12  and  C_13
REMARK    5  A    between atoms: C_14  and  C_15
REMARK                            x       y       z     vdW  Elec       q    Type
REMARK                         _______ _______ _______ _____ _____    ______ ____
ROOT
ATOM      1  C   UNL     1       1.553   6.713  -5.628  0.00  0.00    +0.145 A 
ATOM      2  C   UNL     1       2.596   6.800  -6.553  0.00  0.00    +0.037 A 
ATOM      3  C   UNL     1       2.305   6.651  -7.907  0.00  0.00    +0.006 A 
ATOM      4  C   UNL     1       1.033   6.196  -8.250  0.00  0.00    +0.042 A 
ATOM      5  C   UNL     1       0.238   5.557  -7.304  0.00  0.00    +0.199 A 
ATOM      6  O   UNL     1      -1.063   5.174  -7.635  0.00  0.00    -0.286 OA
ATOM      7  C   UNL     1       0.604   5.757  -6.001  0.00  0.00    +0.079 A 
ENDROOT
BRANCH   3   8
ATOM      8  C   UNL     1       3.292   6.733  -8.964  0.00  0.00    +0.000 C 
ATOM      9  C   UNL     1       4.433   6.058  -8.894  0.00  0.00    +0.000 C 
BRANCH   9  10
ATOM     10  C   UNL     1       5.470   6.265  -9.871  0.00  0.00    +0.000 A 
ATOM     11  C   UNL     1       6.773   5.926  -9.545  0.00  0.00    +0.003 A 
ATOM     12  C   UNL     1       7.641   5.477 -10.536  0.00  0.00    +0.042 A 
ATOM     13  C   UNL     1       7.206   5.342 -11.840  0.00  0.00    +0.196 A 
ATOM     14  O   UNL     1       7.876   4.624 -12.804  0.00  0.00    -0.287 OA
ATOM     15  C   UNL     1       6.051   6.040 -12.171  0.00  0.00    +0.042 A 
ATOM     16  C   UNL     1       5.230   6.595 -11.195  0.00  0.00    +0.003 A 
ENDBRANCH   9  10
ENDBRANCH   3   8
BRANCH   1  17
ATOM     17  O   UNL     1       1.876   6.591  -4.279  0.00  0.00    -0.450 OA
BRANCH  17  25
ATOM     18  C   UNL     1       2.410   5.014  -2.016  0.00  0.00    +0.185 C 
ATOM     19  C   UNL     1       3.327   5.890  -0.847  0.00  0.00    +0.215 C 
ATOM     20  O   UNL     1       4.139   4.673  -0.525  0.00  0.00    -0.218 OA
ATOM     21  C   UNL     1       4.540   6.475  -1.870  0.00  0.00    +0.221 C 
ATOM     22  O   UNL     1       4.892   7.543  -0.878  0.00  0.00    -0.217 OA
ATOM     23  C   UNL     1       3.416   7.501  -2.620  0.00  0.00    +0.254 C 
ATOM     24  O   UNL     1       4.510   8.293  -3.253  0.00  0.00    -0.213 OA
ATOM     25  C   UNL     1       3.384   6.419  -3.967  0.00  0.00    +0.322 C 
ATOM     26  O   UNL     1       3.261   5.169  -3.194  0.00  0.00    -0.316 OA
BRANCH  18  28
ATOM     27  O   UNL     1       0.798   6.260  -1.936  0.00  0.00    -0.218 OA
ATOM     28  C   UNL     1       1.327   6.252  -2.133  0.00  0.00    +0.214 C 
ENDBRANCH  18  28
ENDBRANCH  17  25
ENDBRANCH   1  17
TORSDOF 5
ENDMDL
MODEL 5
REMARK VINA RESULT:      -8.7      2.604      3.092
REMARK  Name = 
REMARK  5 active torsions:
REMARK  status: ('A' for Active; 'I' for Inactive)
REMARK    1  A    between atoms: C_2  and  C_3
REMARK    2  A    between atoms: C_5  and  O_6
REMARK    3  A    between atoms: O_6  and  C_7
REMARK    4  A    between atoms: C_12  and  C_13
REMARK    5  A    between atoms: C_14  and  C_15
REMARK                            x       y       z     vdW  Elec       q    Type
REMARK                         _______ _______ _______ _____ _____    ______ ____
ROOT
ATOM      1  C   UNL     1       3.355   6.264 -10.149  0.00  0.00    +0.145 A 
ATOM      2  C   UNL     1       3.536   6.713  -8.838  0.00  0.00    +0.037 A 
ATOM      3  C   UNL     1       2.463   6.644  -7.954  0.00  0.00    +0.006 A 
ATOM      4  C   UNL     1       1.207   6.347  -8.479  0.00  0.00    +0.042 A 
ATOM      5  C   UNL     1       0.963   6.498  -9.840  0.00  0.00    +0.199 A 
ATOM      6  O   UNL     1      -0.275   6.126 -10.369  0.00  0.00    -0.286 OA
ATOM      7  C   UNL     1       2.077   6.561 -10.630  0.00  0.00    +0.079 A 
ENDROOT
BRANCH   3   8
ATOM      8  C   UNL     1       2.525   7.064  -6.568  0.00  0.00    +0.000 C 
ATOM      9  C   UNL     1       3.669   7.046  -5.893  0.00  0.00    +0.000 C 
BRANCH   9  10
ATOM     10  C   UNL     1       3.693   7.316  -4.480  0.00  0.00    +0.000 A 
ATOM     11  C   UNL     1       2.605   6.943  -3.709  0.00  0.00    +0.003 A 
ATOM     12  C   UNL     1       2.793   6.562  -2.383  0.00  0.00    +0.042 A 
ATOM     13  C   UNL     1       4.062   6.529  -1.837  0.00  0.00    +0.196 A 
ATOM     14  O   UNL     1       4.378   5.880  -0.666  0.00  0.00    -0.287 OA
ATOM     15  C   UNL     1       5.033   7.260  -2.510  0.00  0.00    +0.042 A 
ATOM     16  C   UNL     1       4.818   7.747  -3.795  0.00  0.00    +0.003 A 
ENDBRANCH   9  10
ENDBRANCH   3   8
BRANCH   1  17
ATOM     17  O   UNL     1       4.327   6.579 -11.095  0.00  0.00    -0.450 OA
BRANCH  17  25
ATOM     18  C   UNL     1       7.127   6.358 -11.180  0.00  0.00    +0.185 C 
ATOM     19  C   UNL     1       7.710   6.423 -12.802  0.00  0.00    +0.215 C 
ATOM     20  O   UNL     1       8.736   5.373 -12.509  0.00  0.00    -0.218 OA
ATOM     21  C   UNL     1       6.673   5.275 -13.485  0.00  0.00    +0.221 C 
ATOM     22  O   UNL     1       6.941   5.816 -14.857  0.00  0.00    -0.217 OA
ATOM     23  C   UNL     1       5.363   6.336 -13.290  0.00  0.00    +0.254 C 
ATOM     24  O   UNL     1       4.523   5.522 -14.215  0.00  0.00    -0.213 OA
ATOM     25  C   UNL     1       4.844   5.388 -11.942  0.00  0.00    +0.322 C 
ATOM     26  O   UNL     1       6.160   5.267 -11.286  0.00  0.00    -0.316 OA
BRANCH  18  28
ATOM     27  O   UNL     1       6.345   8.241 -11.235  0.00  0.00    -0.218 OA
ATOM     28  C   UNL     1       6.229   7.721 -11.420  0.00  0.00    +0.214 C 
ENDBRANCH  18  28
ENDBRANCH  17  25
ENDBRANCH   1  17
TORSDOF 5
ENDMDL
MODEL 6
REMARK VINA RESULT:      -8.6      3.931      9.713
REMARK  Name = 
REMARK  5 active torsions:
REMARK  status: ('A' for Active; 'I' for Inactive)
REMARK    1  A    between atoms: C_2  and  C_3
REMARK    2  A    between atoms: C_5  and  O_6
REMARK    3  A    between atoms: O_6  and  C_7
REMARK    4  A    between atoms: C_12  and  C_13
REMARK    5  A    between atoms: C_14  and  C_15
REMARK                            x       y       z     vdW  Elec       q    Type
REMARK                         _______ _______ _______ _____ _____    ______ ____
ROOT
ATOM      1  C   UNL     1       1.157   4.841  -5.143  0.00  0.00    +0.145 A 
ATOM      2  C   UNL     1       0.770   5.184  -6.441  0.00  0.00    +0.037 A 
ATOM      3  C   UNL     1       1.746   5.268  -7.430  0.00  0.00    +0.006 A 
ATOM      4  C   UNL     1       3.081   5.232  -7.029  0.00  0.00    +0.042 A 
ATOM      5  C   UNL     1       3.422   5.492  -5.707  0.00  0.00    +0.199 A 
ATOM      6  O   UNL     1       4.753   5.378  -5.298  0.00  0.00    -0.286 OA
ATOM      7  C   UNL     1       2.397   5.390  -4.807  0.00  0.00    +0.079 A 
ENDROOT
BRANCH   3   8
ATOM      8  C   UNL     1       1.474   5.600  -8.815  0.00  0.00    +0.000 C 
ATOM      9  C   UNL     1       0.236   5.582  -9.296  0.00  0.00    +0.000 C 
BRANCH   9  10
ATOM     10  C   UNL     1      -0.007   5.761 -10.703  0.00  0.00    +0.000 A 
ATOM     11  C   UNL     1      -0.300   7.030 -11.175  0.00  0.00    +0.003 A 
ATOM     12  C   UNL     1       0.094   7.401 -12.457  0.00  0.00    +0.042 A 
ATOM     13  C   UNL     1       0.798   6.520 -13.256  0.00  0.00    +0.196 A 
ATOM     14  O   UNL     1       1.490   6.892 -14.385  0.00  0.00    -0.287 OA
ATOM     15  C   UNL     1       0.725   5.181 -12.895  0.00  0.00    +0.042 A 
ATOM     16  C   UNL     1       0.226   4.785 -11.659  0.00  0.00    +0.003 A 
ENDBRANCH   9  10
ENDBRANCH   3   8
BRANCH   1  17
ATOM     17  O   UNL     1       0.239   5.020  -4.112  0.00  0.00    -0.450 OA
BRANCH  17  25
ATOM     18  C   UNL     1      -0.159   6.638  -1.849  0.00  0.00    +0.185 C 
ATOM     19  C   UNL     1      -1.815   6.640  -1.367  0.00  0.00    +0.215 C 
ATOM     20  O   UNL     1      -1.750   8.099  -1.037  0.00  0.00    -0.218 OA
ATOM     21  C   UNL     1      -2.512   6.972  -2.871  0.00  0.00    +0.221 C 
ATOM     22  O   UNL     1      -3.835   6.448  -2.399  0.00  0.00    -0.217 OA
ATOM     23  C   UNL     1      -2.065   5.430  -3.422  0.00  0.00    +0.254 C 
ATOM     24  O   UNL     1      -2.983   5.545  -4.592  0.00  0.00    -0.213 OA
ATOM     25  C   UNL     1      -0.785   6.164  -4.322  0.00  0.00    +0.322 C 
ATOM     26  O   UNL     1      -0.287   7.043  -3.247  0.00  0.00    -0.316 OA
BRANCH  18  28
ATOM     27  O   UNL     1       0.095   4.638  -1.537  0.00  0.00    -0.218 OA
ATOM     28  C   UNL     1      -0.150   4.989  -1.905  0.00  0.00    +0.214 C 
ENDBRANCH  18  28
ENDBRANCH  17  25
ENDBRANCH   1  17
TORSDOF 5
ENDMDL
MODEL 7
REMARK VINA RESULT:      -8.6      1.041      2.027
REMARK  Name = 
REMARK  5 active torsions:
REMARK  status: ('A' for Active; 'I' for Inactive)
REMARK    1  A    between atoms: C_2  and  C_3
REMARK    2  A    between atoms: C_5  and  O_6
REMARK    3  A    between atoms: O_6  and  C_7
REMARK    4  A    between atoms: C_12  and  C_13
REMARK    5  A    between atoms: C_14  and  C_15
REMARK                            x       y       z     vdW  Elec       q    Type
REMARK                         _______ _______ _______ _____ _____    ______ ____
ROOT
ATOM      1  C   UNL     1       2.278   5.674 -10.468  0.00  0.00    +0.145 A 
ATOM      2  C   UNL     1       2.115   5.728  -9.081  0.00  0.00    +0.037 A 
ATOM      3  C   UNL     1       0.828   5.842  -8.561  0.00  0.00    +0.006 A 
ATOM      4  C   UNL     1      -0.207   6.125  -9.450  0.00  0.00    +0.042 A 
ATOM      5  C   UNL     1       0.072   6.650 -10.707  0.00  0.00    +0.199 A 
ATOM      6  O   UNL     1      -0.965   6.859 -11.618  0.00  0.00    -0.286 OA
ATOM      7  C   UNL     1       1.363   6.496 -11.132  0.00  0.00    +0.079 A 
ENDROOT
BRANCH   3   8
ATOM      8  C   UNL     1       0.526   5.895  -7.144  0.00  0.00    +0.000 C 
ATOM      9  C   UNL     1      -0.711   6.109  -6.712  0.00  0.00    +0.000 C 
BRANCH   9  10
ATOM     10  C   UNL     1      -0.975   6.313  -5.312  0.00  0.00    +0.000 A 
ATOM     11  C   UNL     1      -2.211   6.807  -4.929  0.00  0.00    +0.003 A 
ATOM     12  C   UNL     1      -2.763   6.425  -3.710  0.00  0.00    +0.042 A 
ATOM     13  C   UNL     1      -2.098   5.535  -2.888  0.00  0.00    +0.196 A 
ATOM     14  O   UNL     1      -2.689   4.868  -1.840  0.00  0.00    -0.287 OA
ATOM     15  C   UNL     1      -0.739   5.382  -3.131  0.00  0.00    +0.042 A 
ATOM     16  C   UNL     1      -0.148   5.861  -4.296  0.00  0.00    +0.003 A 
ENDBRANCH   9  10
ENDBRANCH   3   8
BRANCH   1  17
ATOM     17  O   UNL     1       3.558   5.832 -10.989  0.00  0.00    -0.450 OA
BRANCH  17  25
ATOM     18  C   UNL     1       5.958   6.578 -12.246  0.00  0.00    +0.185 C 
ATOM     19  C   UNL     1       7.317   5.836 -11.487  0.00  0.00    +0.215 C 
ATOM     20  O   UNL     1       8.129   7.083 -11.647  0.00  0.00    -0.218 OA
ATOM     21  C   UNL     1       6.954   6.232  -9.883  0.00  0.00    +0.221 C 
ATOM     22  O   UNL     1       7.863   5.148  -9.386  0.00  0.00    -0.217 OA
ATOM     23  C   UNL     1       5.641   5.158  -9.912  0.00  0.00    +0.254 C 
ATOM     24  O   UNL     1       5.535   5.196  -8.425  0.00  0.00    -0.213 OA
ATOM     25  C   UNL     1       4.581   6.517 -10.048  0.00  0.00    +0.322 C 
ATOM     26  O   UNL     1       5.333   7.231 -11.097  0.00  0.00    -0.316 OA
BRANCH  18  28
ATOM     27  O   UNL     1       5.102   4.818 -12.819  0.00  0.00    -0.218 OA
ATOM     28  C   UNL     1       5.189   5.122 -12.353  0.00  0.00    +0.214 C 
ENDBRANCH  18  28
ENDBRANCH  17  25
ENDBRANCH   1  17
TORSDOF 5
ENDMDL
MODEL 8
REMARK VINA RESULT:      -8.6      3.507      9.433
REMARK  Name = 
REMARK  5 active torsions:
REMARK  status: ('A' for Active; 'I' for Inactive)
REMARK    1  A    between atoms: C_2  and  C_3
REMARK    2  A    between atoms: C_5  and  O_6
REMARK    3  A    between atoms: O_6  and  C_7
REMARK    4  A    between atoms: C_12  and  C_13
REMARK    5  A    between atoms: C_14  and  C_15
REMARK                            x       y       z     vdW  Elec       q    Type
REMARK                         _______ _______ _______ _____ _____    ______ ____
ROOT
ATOM      1  C   UNL     1       2.497   6.372  -6.116  0.00  0.00    +0.145 A 
ATOM      2  C   UNL     1       3.488   6.356  -7.101  0.00  0.00    +0.037 A 
ATOM      3  C   UNL     1       3.103   6.415  -8.438  0.00  0.00    +0.006 A 
ATOM      4  C   UNL     1       1.750   6.257  -8.731  0.00  0.00    +0.042 A 
ATOM      5  C   UNL     1       0.893   5.686  -7.797  0.00  0.00    +0.199 A 
ATOM      6  O   UNL     1      -0.474   5.602  -8.070  0.00  0.00    -0.286 OA
ATOM      7  C   UNL     1       1.357   5.667  -6.512  0.00  0.00    +0.079 A 
ENDROOT
BRANCH   3   8
ATOM      8  C   UNL     1       4.032   6.419  -9.551  0.00  0.00    +0.000 C 
ATOM      9  C   UNL     1       5.334   6.242  -9.362  0.00  0.00    +0.000 C 
BRANCH   9  10
ATOM     10  C   UNL     1       6.263   6.401 -10.449  0.00  0.00    +0.000 A 
ATOM     11  C   UNL     1       7.408   5.622 -10.470  0.00  0.00    +0.003 A 
ATOM     12  C   UNL     1       7.960   5.233 -11.688  0.00  0.00    +0.042 A 
ATOM     13  C   UNL     1       7.359   5.597 -12.877  0.00  0.00    +0.196 A 
ATOM     14  O   UNL     1       7.639   5.012 -14.091  0.00  0.00    -0.287 OA
ATOM     15  C   UNL     1       6.471   6.663 -12.809  0.00  0.00    +0.042 A 
ATOM     16  C   UNL     1       5.998   7.140 -11.591  0.00  0.00    +0.003 A 
ENDBRANCH   9  10
ENDBRANCH   3   8
BRANCH   1  17
ATOM     17  O   UNL     1       2.857   6.043  -4.812  0.00  0.00    -0.450 OA
BRANCH  17  25
ATOM     18  C   UNL     1       4.391   6.673  -2.544  0.00  0.00    +0.185 C 
ATOM     19  C   UNL     1       3.720   5.966  -1.121  0.00  0.00    +0.215 C 
ATOM     20  O   UNL     1       4.044   7.190  -0.322  0.00  0.00    -0.218 OA
ATOM     21  C   UNL     1       2.120   6.475  -1.321  0.00  0.00    +0.221 C 
ATOM     22  O   UNL     1       1.640   5.416  -0.375  0.00  0.00    -0.217 OA
ATOM     23  C   UNL     1       1.945   5.418  -2.638  0.00  0.00    +0.254 C 
ATOM     24  O   UNL     1       0.461   5.558  -2.597  0.00  0.00    -0.213 OA
ATOM     25  C   UNL     1       2.070   6.777  -3.697  0.00  0.00    +0.322 C 
ATOM     26  O   UNL     1       3.234   7.409  -3.049  0.00  0.00    -0.316 OA
BRANCH  18  28
ATOM     27  O   UNL     1       4.757   4.918  -3.517  0.00  0.00    -0.218 OA
ATOM     28  C   UNL     1       4.322   5.222  -3.327  0.00  0.00    +0.214 C 
ENDBRANCH  18  28
ENDBRANCH  17  25
ENDBRANCH   1  17
TORSDOF 5
ENDMDL
MODEL 9
REMARK VINA RESULT:      -8.5      3.614      8.228
REMARK  Name = 
REMARK  5 active torsions:
REMARK  status: ('A' for Active; 'I' for Inactive)
REMARK    1  A    between atoms: C_2  and  C_3
REMARK    2  A    between atoms: C_5  and  O_6
REMARK    3  A    between atoms: O_6  and  C_7
REMARK    4  A    between atoms: C_12  and  C_13
REMARK    5  A    between atoms: C_14  and  C_15
REMARK                            x       y       z     vdW  Elec       q    Type
REMARK                         _______ _______ _______ _____ _____    ______ ____
ROOT
ATOM      1  C   UNL     1       4.677   5.126  -8.029  0.00  0.00    +0.145 A 
ATOM      2  C   UNL     1       3.723   5.475  -8.988  0.00  0.00    +0.037 A 
ATOM      3  C   UNL     1       4.106   5.532 -10.325  0.00  0.00    +0.006 A 
ATOM      4  C   UNL     1       5.468   5.462 -10.612  0.00  0.00    +0.042 A 
ATOM      5  C   UNL     1       6.408   5.717  -9.619  0.00  0.00    +0.199 A 
ATOM      6  O   UNL     1       7.769   5.570  -9.897  0.00  0.00    -0.286 OA
ATOM      7  C   UNL     1       5.938   5.644  -8.337  0.00  0.00    +0.079 A 
ENDROOT
BRANCH   3   8
ATOM      8  C   UNL     1       3.210   5.867 -11.414  0.00  0.00    +0.000 C 
ATOM      9  C   UNL     1       1.895   5.743 -11.285  0.00  0.00    +0.000 C 
BRANCH   9  10
ATOM     10  C   UNL     1       1.025   5.930 -12.417  0.00  0.00    +0.000 A 
ATOM     11  C   UNL     1       0.664   7.217 -12.778  0.00  0.00    +0.003 A 
ATOM     12  C   UNL     1       0.429   7.521 -14.116  0.00  0.00    +0.042 A 
ATOM     13  C   UNL     1       0.577   6.554 -15.091  0.00  0.00    +0.196 A 
ATOM     14  O   UNL     1       0.675   6.827 -16.436  0.00  0.00    -0.287 OA
ATOM     15  C   UNL     1       0.559   5.237 -14.649  0.00  0.00    +0.042 A 
ATOM     16  C   UNL     1       0.678   4.920 -13.300  0.00  0.00    +0.003 A 
ENDBRANCH   9  10
ENDBRANCH   3   8
BRANCH   1  17
ATOM     17  O   UNL     1       4.371   5.332  -6.687  0.00  0.00    -0.450 OA
BRANCH  17  25
ATOM     18  C   UNL     1       4.648   6.617  -4.204  0.00  0.00    +0.185 C 
ATOM     19  C   UNL     1       3.229   6.430  -3.242  0.00  0.00    +0.215 C 
ATOM     20  O   UNL     1       3.343   7.837  -2.742  0.00  0.00    -0.218 OA
ATOM     21  C   UNL     1       2.083   6.893  -4.396  0.00  0.00    +0.221 C 
ATOM     22  O   UNL     1       0.995   6.213  -3.622  0.00  0.00    -0.217 OA
ATOM     23  C   UNL     1       2.388   5.472  -5.273  0.00  0.00    +0.254 C 
ATOM     24  O   UNL     1       1.145   5.661  -6.075  0.00  0.00    -0.213 OA
ATOM     25  C   UNL     1       3.293   6.410  -6.407  0.00  0.00    +0.322 C 
ATOM     26  O   UNL     1       4.073   7.184  -5.422  0.00  0.00    -0.316 OA
BRANCH  18  28
ATOM     27  O   UNL     1       5.080   4.626  -4.306  0.00  0.00    -0.218 OA
ATOM     28  C   UNL     1       4.696   4.994  -4.495  0.00  0.00    +0.214 C 
ENDBRANCH  18  28
ENDBRANCH  17  25
ENDBRANCH   1  17
TORSDOF 5
ENDMDL
