MODEL 1
REMARK VINA RESULT:      -8.8      0.000      0.000
REMARK  Name = 
REMARK  12 active torsions:
REMARK  status: ('A' for Active; 'I' for Inactive)
REMARK    1  A    between atoms: C_2  and  C_4
REMARK    2  A    between atoms: C_5  and  C_6
REMARK    3  A    between atoms: N_8  and  C_9
REMARK    4  A    between atoms: C_15  and  C_16
REMARK    5  A    between atoms: C_22  and  C_23
REMARK    6  A    between atoms: N_30  and  C_31
REMARK    7  A    between atoms: C_31  and  C_32
REMARK    8  A    between atoms: C_32  and  C_33
REMARK    9  A    between atoms: C_33  and  C_35
REMARK   10  A    between atoms: C_35  and  C_36
REMARK   11  A    between atoms: C_36  and  C_38
REMARK   12  A    between atoms: C_38  and  C_39
REMARK                            x       y       z     vdW  Elec       q    Type
REMARK                         _______ _______ _______ _____ _____    ______ ____
ROOT
ATOM      1  C   UNL     1       3.612   5.761  -4.652  0.00  0.00    +0.041 A 
ATOM      2  N   UNL     1       3.068   5.553  -5.875  0.00  0.00    -0.330 N 
ATOM      3  C   UNL     1       1.854   6.130  -5.880  0.00  0.00    +0.060 A 
ATOM      4  C   UNL     1       1.494   6.497  -4.589  0.00  0.00    +0.021 A 
ATOM      5  C   UNL     1       2.655   6.359  -3.846  0.00  0.00    +0.068 A 
ENDROOT
BRANCH   3   6
ATOM      6  C   UNL     1       1.140   6.508  -7.105  0.00  0.00    +0.016 A 
ATOM      7  C   UNL     1       1.694   7.338  -8.063  0.00  0.00    +0.004 A 
ATOM      8  C   UNL     1       1.449   7.152  -9.417  0.00  0.00    +0.030 A 
ATOM      9  C   UNL     1       0.760   6.025  -9.844  0.00  0.00    +0.140 A 
ATOM     10  F   UNL     1       1.066   5.367 -10.984  0.00  0.00    -0.204 F 
ATOM     11  C   UNL     1      -0.076   5.439  -8.904  0.00  0.00    +0.030 A 
ATOM     12  C   UNL     1       0.111   5.687  -7.550  0.00  0.00    +0.004 A 
ENDBRANCH   3   6
BRANCH   4  13
ATOM     13  C   UNL     1       0.134   6.450  -4.103  0.00  0.00    +0.002 A 
ATOM     14  C   UNL     1      -0.451   5.322  -3.544  0.00  0.00    +0.000 A 
ATOM     15  C   UNL     1      -1.694   5.417  -2.964  0.00  0.00    +0.000 A 
ATOM     16  C   UNL     1      -2.599   6.371  -3.411  0.00  0.00    +0.000 A 
ATOM     17  C   UNL     1      -2.132   7.270  -4.352  0.00  0.00    +0.000 A 
ATOM     18  C   UNL     1      -0.766   7.448  -4.461  0.00  0.00    +0.000 A 
ENDBRANCH   4  13
BRANCH   1  20
ATOM     19  C   UNL     1       5.064   5.252  -4.117  0.00  0.00    +0.006 C 
ATOM     20  C   UNL     1       5.009   5.581  -4.207  0.00  0.00    +0.038 C 
ATOM     21  C   UNL     1       5.782   6.886  -4.287  0.00  0.00    +0.006 C 
ENDBRANCH   1  20
BRANCH   5  22
ATOM     22  C   UNL     1       2.835   7.079  -2.581  0.00  0.00    +0.270 C 
ATOM     23  N   UNL     1       2.194   6.502  -1.440  0.00  0.00    -0.175 NA
ATOM     24  O   UNL     1       2.947   8.338  -2.551  0.00  0.00    -0.268 OA
BRANCH  23  25
ATOM     25  C   UNL     1       2.613   6.911  -0.133  0.00  0.00    +0.074 A 
ATOM     26  C   UNL     1       1.887   7.832   0.585  0.00  0.00    +0.017 A 
ATOM     27  C   UNL     1       2.550   8.688   1.451  0.00  0.00    +0.001 A 
ATOM     28  C   UNL     1       3.935   8.785   1.478  0.00  0.00    +0.000 A 
ATOM     29  C   UNL     1       4.635   7.726   0.938  0.00  0.00    +0.001 A 
ATOM     30  C   UNL     1       3.961   6.776   0.177  0.00  0.00    +0.017 A 
ENDBRANCH  23  25
ENDBRANCH   5  22
BRANCH   2  31
ATOM     31  C   UNL     1       3.664   4.684  -6.880  0.00  0.00    +0.108 C 
BRANCH  31  32
ATOM     32  C   UNL     1       4.757   5.414  -7.628  0.00  0.00    +0.057 C 
BRANCH  32  33
ATOM     33  C   UNL     1       4.880   4.563  -9.065  0.00  0.00    +0.156 C 
ATOM     34  O   UNL     1       3.379   4.209  -9.020  0.00  0.00    -0.223 OA
BRANCH  33  35
ATOM     35  C   UNL     1       4.596   5.945  -9.971  0.00  0.00    +0.066 C 
BRANCH  35  36
ATOM     36  C   UNL     1       4.955   5.252 -11.456  0.00  0.00    +0.166 C 
ATOM     37  O   UNL     1       3.903   6.129 -12.166  0.00  0.00    -0.222 OA
BRANCH  36  38
ATOM     38  C   UNL     1       6.194   6.342 -11.741  0.00  0.00    +0.147 C 
BRANCH  38  39
ATOM     39  C   UNL     1       7.424   5.555 -11.733  0.00  0.00    +0.367 C 
ATOM     40  O   UNL     1       7.502   4.607 -12.759  0.00  0.00    -0.246 OA
ATOM     41  O   UNL     1       8.124   5.281 -10.720  0.00  0.00    -0.246 OA
ENDBRANCH  38  39
ENDBRANCH  36  38
ENDBRANCH  35  36
ENDBRANCH  33  35
ENDBRANCH  32  33
ENDBRANCH  31  32
ENDBRANCH   2  31
TORSDOF 12
ENDMDL
MODEL 2
REMARK VINA RESULT:      -8.7      2.645      4.823
REMARK  Name = 
REMARK  12 active torsions:
REMARK  status: ('A' for Active; 'I' for Inactive)
REMARK    1  A    between atoms: C_2  and  C_4
REMARK    2  A    between atoms: C_5  and  C_6
REMARK    3  A    between atoms: N_8  and  C_9
REMARK    4  A    between atoms: C_15  and  C_16
REMARK    5  A    between atoms: C_22  and  C_23
REMARK    6  A    between atoms: N_30  and  C_31
REMARK    7  A    between atoms: C_31  and  C_32
REMARK    8  A    between atoms: C_32  and  C_33
REMARK    9  A    between atoms: C_33  and  C_35
REMARK   10  A    between atoms: C_35  and  C_36
REMARK   11  A    between atoms: C_36  and  C_38
REMARK   12  A    between atoms: C_38  and  C_39
REMARK                            x       y       z     vdW  Elec       q    Type
REMARK                         _______ _______ _______ _____ _____    ______ ____
ROOT
ATOM      1  C   UNL     1      -0.310   6.508  -5.117  0.00  0.00    +0.041 A 
ATOM      2  N   UNL     1       0.604   6.317  -6.099  0.00  0.00    -0.330 N 
ATOM      3  C   UNL     1       1.709   5.808  -5.528  0.00  0.00    +0.060 A 
ATOM      4  C   UNL     1       1.617   5.899  -4.144  0.00  0.00    +0.021 A 
ATOM      5  C   UNL     1       0.296   6.238  -3.900  0.00  0.00    +0.068 A 
ENDROOT
BRANCH   3   6
ATOM      6  C   UNL     1       2.739   5.069  -6.268  0.00  0.00    +0.016 A 
ATOM      7  C   UNL     1       2.448   3.957  -7.037  0.00  0.00    +0.004 A 
ATOM      8  C   UNL     1       3.121   3.697  -8.225  0.00  0.00    +0.030 A 
ATOM      9  C   UNL     1       3.999   4.640  -8.740  0.00  0.00    +0.140 A 
ATOM     10  F   UNL     1       4.123   4.881 -10.063  0.00  0.00    -0.204 F 
ATOM     11  C   UNL     1       4.542   5.524  -7.817  0.00  0.00    +0.030 A 
ATOM     12  C   UNL     1       3.920   5.727  -6.592  0.00  0.00    +0.004 A 
ENDBRANCH   3   6
BRANCH   4  13
ATOM     13  C   UNL     1       2.756   6.144  -3.290  0.00  0.00    +0.002 A 
ATOM     14  C   UNL     1       3.176   5.276  -2.291  0.00  0.00    +0.000 A 
ATOM     15  C   UNL     1       4.362   5.514  -1.637  0.00  0.00    +0.000 A 
ATOM     16  C   UNL     1       4.835   6.814  -1.504  0.00  0.00    +0.000 A 
ATOM     17  C   UNL     1       4.123   7.798  -2.166  0.00  0.00    +0.000 A 
ATOM     18  C   UNL     1       3.307   7.418  -3.214  0.00  0.00    +0.000 A 
ENDBRANCH   4  13
BRANCH   1  20
ATOM     19  C   UNL     1      -1.822   7.113  -5.156  0.00  0.00    +0.006 C 
ATOM     20  C   UNL     1      -1.757   6.782  -5.228  0.00  0.00    +0.038 C 
ATOM     21  C   UNL     1      -2.521   5.533  -5.632  0.00  0.00    +0.006 C 
ENDBRANCH   1  20
BRANCH   5  22
ATOM     22  C   UNL     1      -0.326   5.970  -2.600  0.00  0.00    +0.270 C 
ATOM     23  N   UNL     1       0.137   6.772  -1.511  0.00  0.00    -0.175 NA
ATOM     24  O   UNL     1      -0.712   4.808  -2.281  0.00  0.00    -0.268 OA
BRANCH  23  25
ATOM     25  C   UNL     1      -0.654   6.843  -0.319  0.00  0.00    +0.074 A 
ATOM     26  C   UNL     1      -1.902   7.420  -0.333  0.00  0.00    +0.017 A 
ATOM     27  C   UNL     1      -2.358   8.073   0.802  0.00  0.00    +0.001 A 
ATOM     28  C   UNL     1      -1.530   8.335   1.886  0.00  0.00    +0.000 A 
ATOM     29  C   UNL     1      -0.384   7.572   1.981  0.00  0.00    +0.001 A 
ATOM     30  C   UNL     1       0.018   6.800   0.897  0.00  0.00    +0.017 A 
ENDBRANCH  23  25
ENDBRANCH   5  22
BRANCH   2  31
ATOM     31  C   UNL     1       0.423   6.788  -7.465  0.00  0.00    +0.108 C 
BRANCH  31  32
ATOM     32  C   UNL     1      -0.095   5.671  -8.344  0.00  0.00    +0.057 C 
BRANCH  32  33
ATOM     33  C   UNL     1       0.119   6.266  -9.895  0.00  0.00    +0.156 C 
ATOM     34  O   UNL     1       1.518   6.805  -9.529  0.00  0.00    -0.223 OA
BRANCH  33  35
ATOM     35  C   UNL     1       0.747   4.806 -10.428  0.00  0.00    +0.066 C 
BRANCH  35  36
ATOM     36  C   UNL     1       0.009   4.841 -11.933  0.00  0.00    +0.166 C 
ATOM     37  O   UNL     1      -0.436   6.304 -11.726  0.00  0.00    -0.222 OA
BRANCH  36  38
ATOM     38  C   UNL     1       1.433   5.284 -12.696  0.00  0.00    +0.147 C 
BRANCH  38  39
ATOM     39  C   UNL     1       1.321   4.786 -14.064  0.00  0.00    +0.367 C 
ATOM     40  O   UNL     1       2.456   4.107 -14.519  0.00  0.00    -0.246 OA
ATOM     41  O   UNL     1       0.614   5.286 -14.981  0.00  0.00    -0.246 OA
ENDBRANCH  38  39
ENDBRANCH  36  38
ENDBRANCH  35  36
ENDBRANCH  33  35
ENDBRANCH  32  33
ENDBRANCH  31  32
ENDBRANCH   2  31
TORSDOF 12
ENDMDL
MODEL 3
REMARK VINA RESULT:      -8.3      3.202      9.501
REMARK  Name = 
REMARK  12 active torsions:
REMARK  status: ('A' for Active; 'I' for Inactive)
REMARK    1  A    between atoms: C_2  and  C_4
REMARK    2  A    between atoms: C_5  and  C_6
REMARK    3  A    between atoms: N_8  and  C_9
REMARK    4  A    between atoms: C_15  and  C_16
REMARK    5  A    between atoms: C_22  and  C_23
REMARK    6  A    between atoms: N_30  and  C_31
REMARK    7  A    between atoms: C_31  and  C_32
REMARK    8  A    between atoms: C_32  and  C_33
REMARK    9  A    between atoms: C_33  and  C_35
REMARK   10  A    between atoms: C_35  and  C_36
REMARK   11  A    between atoms: C_36  and  C_38
REMARK   12  A    between atoms: C_38  and  C_39
REMARK                            x       y       z     vdW  Elec       q    Type
REMARK                         _______ _______ _______ _____ _____    ______ ____
ROOT
ATOM      1  C   UNL     1       0.936   5.520  -6.674  0.00  0.00    +0.041 A 
ATOM      2  N   UNL     1       1.771   5.443  -5.610  0.00  0.00    -0.330 N 
ATOM      3  C   UNL     1       2.977   5.881  -6.011  0.00  0.00    +0.060 A 
ATOM      4  C   UNL     1       3.003   6.005  -7.395  0.00  0.00    +0.021 A 
ATOM      5  C   UNL     1       1.680   5.883  -7.786  0.00  0.00    +0.068 A 
ENDROOT
BRANCH   3   6
ATOM      6  C   UNL     1       4.014   6.362  -5.091  0.00  0.00    +0.016 A 
ATOM      7  C   UNL     1       4.074   7.675  -4.659  0.00  0.00    +0.004 A 
ATOM      8  C   UNL     1       4.481   8.000  -3.372  0.00  0.00    +0.030 A 
ATOM      9  C   UNL     1       4.690   6.993  -2.439  0.00  0.00    +0.140 A 
ATOM     10  F   UNL     1       4.366   7.124  -1.135  0.00  0.00    -0.204 F 
ATOM     11  C   UNL     1       4.985   5.741  -2.962  0.00  0.00    +0.030 A 
ATOM     12  C   UNL     1       4.656   5.436  -4.277  0.00  0.00    +0.004 A 
ENDBRANCH   3   6
BRANCH   4  13
ATOM     13  C   UNL     1       4.180   5.740  -8.191  0.00  0.00    +0.002 A 
ATOM     14  C   UNL     1       5.277   5.021  -7.735  0.00  0.00    +0.000 A 
ATOM     15  C   UNL     1       6.279   4.681  -8.613  0.00  0.00    +0.000 A 
ATOM     16  C   UNL     1       6.535   5.480  -9.720  0.00  0.00    +0.000 A 
ATOM     17  C   UNL     1       5.659   6.528  -9.940  0.00  0.00    +0.000 A 
ATOM     18  C   UNL     1       4.409   6.463  -9.355  0.00  0.00    +0.000 A 
ENDBRANCH   4  13
BRANCH   1  20
ATOM     19  C   UNL     1      -0.635   5.154  -6.904  0.00  0.00    +0.006 C 
ATOM     20  C   UNL     1      -0.538   5.425  -6.714  0.00  0.00    +0.038 C 
ATOM     21  C   UNL     1      -1.180   6.539  -5.906  0.00  0.00    +0.006 C 
ENDBRANCH   1  20
BRANCH   5  22
ATOM     22  C   UNL     1       1.217   6.417  -9.071  0.00  0.00    +0.270 C 
ATOM     23  N   UNL     1       1.339   5.536 -10.190  0.00  0.00    -0.175 NA
ATOM     24  O   UNL     1       1.315   7.647  -9.345  0.00  0.00    -0.268 OA
BRANCH  23  25
ATOM     25  C   UNL     1       0.588   5.820 -11.377  0.00  0.00    +0.074 A 
ATOM     26  C   UNL     1       0.983   5.327 -12.598  0.00  0.00    +0.017 A 
ATOM     27  C   UNL     1       0.725   6.068 -13.741  0.00  0.00    +0.001 A 
ATOM     28  C   UNL     1       0.259   7.375 -13.685  0.00  0.00    +0.000 A 
ATOM     29  C   UNL     1      -0.334   7.765 -12.501  0.00  0.00    +0.001 A 
ATOM     30  C   UNL     1      -0.203   6.963 -11.373  0.00  0.00    +0.017 A 
ENDBRANCH  23  25
ENDBRANCH   5  22
BRANCH   2  31
ATOM     31  C   UNL     1       1.409   4.807  -4.351  0.00  0.00    +0.108 C 
BRANCH  31  32
ATOM     32  C   UNL     1       1.148   5.850  -3.287  0.00  0.00    +0.057 C 
BRANCH  32  33
ATOM     33  C   UNL     1       0.573   4.952  -1.995  0.00  0.00    +0.156 C 
ATOM     34  O   UNL     1       1.981   4.898  -1.367  0.00  0.00    -0.223 OA
BRANCH  33  35
ATOM     35  C   UNL     1       0.172   6.338  -1.141  0.00  0.00    +0.066 C 
BRANCH  35  36
ATOM     36  C   UNL     1      -1.367   5.832  -0.706  0.00  0.00    +0.166 C 
ATOM     37  O   UNL     1      -1.441   6.886   0.418  0.00  0.00    -0.222 OA
BRANCH  36  38
ATOM     38  C   UNL     1      -2.090   6.841  -1.830  0.00  0.00    +0.147 C 
BRANCH  38  39
ATOM     39  C   UNL     1      -3.002   5.995  -2.594  0.00  0.00    +0.367 C 
ATOM     40  O   UNL     1      -4.315   6.475  -2.650  0.00  0.00    -0.246 OA
ATOM     41  O   UNL     1      -2.899   4.747  -2.754  0.00  0.00    -0.246 OA
ENDBRANCH  38  39
ENDBRANCH  36  38
ENDBRANCH  35  36
ENDBRANCH  33  35
ENDBRANCH  32  33
ENDBRANCH  31  32
ENDBRANCH   2  31
TORSDOF 12
ENDMDL
MODEL 4
REMARK VINA RESULT:      -8.2      3.178      9.507
REMARK  Name = 
REMARK  12 active torsions:
REMARK  status: ('A' for Active; 'I' for Inactive)
REMARK    1  A    between atoms: C_2  and  C_4
REMARK    2  A    between atoms: C_5  and  C_6
REMARK    3  A    between atoms: N_8  and  C_9
REMARK    4  A    between atoms: C_15  and  C_16
REMARK    5  A    between atoms: C_22  and  C_23
REMARK    6  A    between atoms: N_30  and  C_31
REMARK    7  A    between atoms: C_31  and  C_32
REMARK    8  A    between atoms: C_32  and  C_33
REMARK    9  A    between atoms: C_33  and  C_35
REMARK   10  A    between atoms: C_35  and  C_36
REMARK   11  A    between atoms: C_36  and  C_38
REMARK   12  A    between atoms: C_38  and  C_39
REMARK                            x       y       z     vdW  Elec       q    Type
REMARK                         _______ _______ _______ _____ _____    ______ ____
ROOT
ATOM      1  C   UNL     1      -0.277   5.552  -6.192  0.00  0.00    +0.041 A 
ATOM      2  N   UNL     1       0.338   5.420  -4.992  0.00  0.00    -0.330 N 
ATOM      3  C   UNL     1       1.643   5.688  -5.176  0.00  0.00    +0.060 A 
ATOM      4  C   UNL     1       1.931   5.749  -6.534  0.00  0.00    +0.021 A 
ATOM      5  C   UNL     1       0.694   5.772  -7.157  0.00  0.00    +0.068 A 
ENDROOT
BRANCH   3   6
ATOM      6  C   UNL     1       2.552   6.078  -4.093  0.00  0.00    +0.016 A 
ATOM      7  C   UNL     1       3.463   5.199  -3.534  0.00  0.00    +0.004 A 
ATOM      8  C   UNL     1       4.717   5.621  -3.111  0.00  0.00    +0.030 A 
ATOM      9  C   UNL     1       5.138   6.915  -3.386  0.00  0.00    +0.140 A 
ATOM     10  F   UNL     1       6.414   7.217  -3.709  0.00  0.00    -0.204 F 
ATOM     11  C   UNL     1       4.128   7.845  -3.589  0.00  0.00    +0.030 A 
ATOM     12  C   UNL     1       2.848   7.427  -3.931  0.00  0.00    +0.004 A 
ENDBRANCH   3   6
BRANCH   4  13
ATOM     13  C   UNL     1       3.186   5.307  -7.097  0.00  0.00    +0.002 A 
ATOM     14  C   UNL     1       4.379   6.006  -6.975  0.00  0.00    +0.000 A 
ATOM     15  C   UNL     1       5.552   5.431  -7.404  0.00  0.00    +0.000 A 
ATOM     16  C   UNL     1       5.535   4.501  -8.436  0.00  0.00    +0.000 A 
ATOM     17  C   UNL     1       4.289   4.113  -8.894  0.00  0.00    +0.000 A 
ATOM     18  C   UNL     1       3.201   4.309  -8.065  0.00  0.00    +0.000 A 
ENDBRANCH   4  13
BRANCH   1  20
ATOM     19  C   UNL     1      -1.814   5.375  -6.700  0.00  0.00    +0.006 C 
ATOM     20  C   UNL     1      -1.720   5.637  -6.498  0.00  0.00    +0.038 C 
ATOM     21  C   UNL     1      -2.351   6.845  -5.827  0.00  0.00    +0.006 C 
ENDBRANCH   1  20
BRANCH   5  22
ATOM     22  C   UNL     1       0.540   6.303  -8.515  0.00  0.00    +0.270 C 
ATOM     23  N   UNL     1       0.530   5.332  -9.565  0.00  0.00    -0.175 NA
ATOM     24  O   UNL     1       1.006   7.433  -8.837  0.00  0.00    -0.268 OA
BRANCH  23  25
ATOM     25  C   UNL     1       0.020   5.709 -10.849  0.00  0.00    +0.074 A 
ATOM     26  C   UNL     1       0.574   5.209 -12.004  0.00  0.00    +0.017 A 
ATOM     27  C   UNL     1       0.581   5.995 -13.146  0.00  0.00    +0.001 A 
ATOM     28  C   UNL     1       0.227   7.338 -13.121  0.00  0.00    +0.000 A 
ATOM     29  C   UNL     1      -0.524   7.754 -12.040  0.00  0.00    +0.001 A 
ATOM     30  C   UNL     1      -0.658   6.919 -10.936  0.00  0.00    +0.017 A 
ENDBRANCH  23  25
ENDBRANCH   5  22
BRANCH   2  31
ATOM     31  C   UNL     1      -0.320   4.888  -3.808  0.00  0.00    +0.108 C 
BRANCH  31  32
ATOM     32  C   UNL     1      -0.339   5.922  -2.704  0.00  0.00    +0.057 C 
BRANCH  32  33
ATOM     33  C   UNL     1      -1.972   6.206  -2.465  0.00  0.00    +0.156 C 
ATOM     34  O   UNL     1      -2.288   4.704  -2.618  0.00  0.00    -0.223 OA
BRANCH  33  35
ATOM     35  C   UNL     1      -1.808   6.071  -0.802  0.00  0.00    +0.066 C 
BRANCH  35  36
ATOM     36  C   UNL     1      -0.614   7.240  -0.653  0.00  0.00    +0.166 C 
ATOM     37  O   UNL     1      -1.668   8.353  -0.477  0.00  0.00    -0.222 OA
BRANCH  36  38
ATOM     38  C   UNL     1      -0.474   6.983   0.996  0.00  0.00    +0.147 C 
BRANCH  38  39
ATOM     39  C   UNL     1       0.777   7.623   1.391  0.00  0.00    +0.367 C 
ATOM     40  O   UNL     1       1.199   7.304   2.687  0.00  0.00    -0.246 OA
ATOM     41  O   UNL     1       1.216   8.725   0.961  0.00  0.00    -0.246 OA
ENDBRANCH  38  39
ENDBRANCH  36  38
ENDBRANCH  35  36
ENDBRANCH  33  35
ENDBRANCH  32  33
ENDBRANCH  31  32
ENDBRANCH   2  31
TORSDOF 12
ENDMDL
MODEL 5
REMARK VINA RESULT:      -8.2      3.931      7.992
REMARK  Name = 
REMARK  12 active torsions:
REMARK  status: ('A' for Active; 'I' for Inactive)
REMARK    1  A    between atoms: C_2  and  C_4
REMARK    2  A    between atoms: C_5  and  C_6
REMARK    3  A    between atoms: N_8  and  C_9
REMARK    4  A    between atoms: C_15  and  C_16
REMARK    5  A    between atoms: C_22  and  C_23
REMARK    6  A    between atoms: N_30  and  C_31
REMARK    7  A    between atoms: C_31  and  C_32
REMARK    8  A    between atoms: C_32  and  C_33
REMARK    9  A    between atoms: C_33  and  C_35
REMARK   10  A    between atoms: C_35  and  C_36
REMARK   11  A    between atoms: C_36  and  C_38
REMARK   12  A    between atoms: C_38  and  C_39
REMARK                            x       y       z     vdW  Elec       q    Type
REMARK                         _______ _______ _______ _____ _____    ______ ____
ROOT
ATOM      1  C   UNL     1       1.756   6.082 -11.112  0.00  0.00    +0.041 A 
ATOM      2  N   UNL     1       2.203   6.346 -12.364  0.00  0.00    -0.330 N 
ATOM      3  C   UNL     1       3.527   6.112 -12.377  0.00  0.00    +0.060 A 
ATOM      4  C   UNL     1       3.994   5.941 -11.080  0.00  0.00    +0.021 A 
ATOM      5  C   UNL     1       2.852   5.814 -10.307  0.00  0.00    +0.068 A 
ENDROOT
BRANCH   3   6
ATOM      6  C   UNL     1       4.294   5.857 -13.602  0.00  0.00    +0.016 A 
ATOM      7  C   UNL     1       4.239   6.694 -14.701  0.00  0.00    +0.004 A 
ATOM      8  C   UNL     1       5.357   6.933 -15.491  0.00  0.00    +0.030 A 
ATOM      9  C   UNL     1       6.597   6.450 -15.095  0.00  0.00    +0.140 A 
ATOM     10  F   UNL     1       7.744   7.138 -15.277  0.00  0.00    -0.204 F 
ATOM     11  C   UNL     1       6.571   5.350 -14.248  0.00  0.00    +0.030 A 
ATOM     12  C   UNL     1       5.427   5.056 -13.517  0.00  0.00    +0.004 A 
ENDBRANCH   3   6
BRANCH   4  13
ATOM     13  C   UNL     1       5.301   6.378 -10.646  0.00  0.00    +0.002 A 
ATOM     14  C   UNL     1       5.952   7.496 -11.151  0.00  0.00    +0.000 A 
ATOM     15  C   UNL     1       7.118   7.927 -10.565  0.00  0.00    +0.000 A 
ATOM     16  C   UNL     1       7.952   7.018  -9.925  0.00  0.00    +0.000 A 
ATOM     17  C   UNL     1       7.478   5.724  -9.808  0.00  0.00    +0.000 A 
ATOM     18  C   UNL     1       6.117   5.517  -9.920  0.00  0.00    +0.000 A 
ENDBRANCH   4  13
BRANCH   1  20
ATOM     19  C   UNL     1       0.260   6.205 -10.480  0.00  0.00    +0.006 C 
ATOM     20  C   UNL     1       0.370   5.915 -10.630  0.00  0.00    +0.038 C 
ATOM     21  C   UNL     1      -0.156   4.526 -10.949  0.00  0.00    +0.006 C 
ENDBRANCH   1  20
BRANCH   5  22
ATOM     22  C   UNL     1       2.894   5.157  -8.996  0.00  0.00    +0.270 C 
ATOM     23  N   UNL     1       3.112   6.019  -7.876  0.00  0.00    -0.175 NA
ATOM     24  O   UNL     1       3.343   3.982  -8.862  0.00  0.00    -0.268 OA
BRANCH  23  25
ATOM     25  C   UNL     1       2.800   5.536  -6.563  0.00  0.00    +0.074 A 
ATOM     26  C   UNL     1       1.652   4.818  -6.329  0.00  0.00    +0.017 A 
ATOM     27  C   UNL     1       1.026   4.926  -5.096  0.00  0.00    +0.001 A 
ATOM     28  C   UNL     1       1.403   5.879  -4.158  0.00  0.00    +0.000 A 
ATOM     29  C   UNL     1       2.663   6.420  -4.306  0.00  0.00    +0.001 A 
ATOM     30  C   UNL     1       3.367   6.207  -5.486  0.00  0.00    +0.017 A 
ENDBRANCH  23  25
ENDBRANCH   5  22
BRANCH   2  31
ATOM     31  C   UNL     1       1.379   6.957 -13.397  0.00  0.00    +0.108 C 
BRANCH  31  32
ATOM     32  C   UNL     1       0.989   5.931 -14.438  0.00  0.00    +0.057 C 
BRANCH  32  33
ATOM     33  C   UNL     1       0.879   6.829 -15.847  0.00  0.00    +0.156 C 
ATOM     34  O   UNL     1      -0.572   6.357 -16.071  0.00  0.00    -0.223 OA
BRANCH  33  35
ATOM     35  C   UNL     1       0.378   8.190 -15.006  0.00  0.00    +0.066 C 
BRANCH  35  36
ATOM     36  C   UNL     1       0.588   9.264 -16.277  0.00  0.00    +0.166 C 
ATOM     37  O   UNL     1       1.103  10.359 -15.320  0.00  0.00    -0.222 OA
BRANCH  36  38
ATOM     38  C   UNL     1       2.128   8.688 -16.597  0.00  0.00    +0.147 C 
BRANCH  38  39
ATOM     39  C   UNL     1       2.918   9.858 -16.973  0.00  0.00    +0.367 C 
ATOM     40  O   UNL     1       2.503  10.469 -18.161  0.00  0.00    -0.246 OA
ATOM     41  O   UNL     1       4.127  10.063 -16.680  0.00  0.00    -0.246 OA
ENDBRANCH  38  39
ENDBRANCH  36  38
ENDBRANCH  35  36
ENDBRANCH  33  35
ENDBRANCH  32  33
ENDBRANCH  31  32
ENDBRANCH   2  31
TORSDOF 12
ENDMDL
MODEL 6
REMARK VINA RESULT:      -8.1      4.301      8.509
REMARK  Name = 
REMARK  12 active torsions:
REMARK  status: ('A' for Active; 'I' for Inactive)
REMARK    1  A    between atoms: C_2  and  C_4
REMARK    2  A    between atoms: C_5  and  C_6
REMARK    3  A    between atoms: N_8  and  C_9
REMARK    4  A    between atoms: C_15  and  C_16
REMARK    5  A    between atoms: C_22  and  C_23
REMARK    6  A    between atoms: N_30  and  C_31
REMARK    7  A    between atoms: C_31  and  C_32
REMARK    8  A    between atoms: C_32  and  C_33
REMARK    9  A    between atoms: C_33  and  C_35
REMARK   10  A    between atoms: C_35  and  C_36
REMARK   11  A    between atoms: C_36  and  C_38
REMARK   12  A    between atoms: C_38  and  C_39
REMARK                            x       y       z     vdW  Elec       q    Type
REMARK                         _______ _______ _______ _____ _____    ______ ____
ROOT
ATOM      1  C   UNL     1       1.894   5.540 -11.417  0.00  0.00    +0.041 A 
ATOM      2  N   UNL     1       2.317   5.859 -12.664  0.00  0.00    -0.330 N 
ATOM      3  C   UNL     1       3.661   5.825 -12.655  0.00  0.00    +0.060 A 
ATOM      4  C   UNL     1       4.128   5.733 -11.349  0.00  0.00    +0.021 A 
ATOM      5  C   UNL     1       3.004   5.443 -10.592  0.00  0.00    +0.068 A 
ENDROOT
BRANCH   3   6
ATOM      6  C   UNL     1       4.478   5.679 -13.865  0.00  0.00    +0.016 A 
ATOM      7  C   UNL     1       4.240   6.409 -15.016  0.00  0.00    +0.004 A 
ATOM      8  C   UNL     1       5.278   6.852 -15.826  0.00  0.00    +0.030 A 
ATOM      9  C   UNL     1       6.592   6.698 -15.406  0.00  0.00    +0.140 A 
ATOM     10  F   UNL     1       7.549   7.623 -15.639  0.00  0.00    -0.204 F 
ATOM     11  C   UNL     1       6.816   5.679 -14.490  0.00  0.00    +0.030 A 
ATOM     12  C   UNL     1       5.766   5.173 -13.736  0.00  0.00    +0.004 A 
ENDBRANCH   3   6
BRANCH   4  13
ATOM     13  C   UNL     1       5.347   6.363 -10.899  0.00  0.00    +0.002 A 
ATOM     14  C   UNL     1       5.820   7.574 -11.387  0.00  0.00    +0.000 A 
ATOM     15  C   UNL     1       6.902   8.174 -10.786  0.00  0.00    +0.000 A 
ATOM     16  C   UNL     1       7.861   7.398 -10.146  0.00  0.00    +0.000 A 
ATOM     17  C   UNL     1       7.593   6.045 -10.047  0.00  0.00    +0.000 A 
ATOM     18  C   UNL     1       6.281   5.631 -10.174  0.00  0.00    +0.000 A 
ENDBRANCH   4  13
BRANCH   1  20
ATOM     19  C   UNL     1       0.476   4.840 -11.027  0.00  0.00    +0.006 C 
ATOM     20  C   UNL     1       0.540   5.171 -10.956  0.00  0.00    +0.038 C 
ATOM     21  C   UNL     1      -0.155   6.352 -10.299  0.00  0.00    +0.006 C 
ENDBRANCH   1  20
BRANCH   5  22
ATOM     22  C   UNL     1       3.121   4.808  -9.276  0.00  0.00    +0.270 C 
ATOM     23  N   UNL     1       3.094   5.694  -8.154  0.00  0.00    -0.175 NA
ATOM     24  O   UNL     1       3.804   3.756  -9.110  0.00  0.00    -0.268 OA
BRANCH  23  25
ATOM     25  C   UNL     1       2.829   5.154  -6.854  0.00  0.00    +0.074 A 
ATOM     26  C   UNL     1       1.580   4.682  -6.526  0.00  0.00    +0.017 A 
ATOM     27  C   UNL     1       1.138   4.791  -5.217  0.00  0.00    +0.001 A 
ATOM     28  C   UNL     1       1.826   5.533  -4.264  0.00  0.00    +0.000 A 
ATOM     29  C   UNL     1       3.152   5.800  -4.535  0.00  0.00    +0.001 A 
ATOM     30  C   UNL     1       3.652   5.565  -5.812  0.00  0.00    +0.017 A 
ENDBRANCH  23  25
ENDBRANCH   5  22
BRANCH   2  31
ATOM     31  C   UNL     1       1.429   6.334 -13.715  0.00  0.00    +0.108 C 
BRANCH  31  32
ATOM     32  C   UNL     1       1.171   7.816 -13.560  0.00  0.00    +0.057 C 
BRANCH  32  33
ATOM     33  C   UNL     1       0.076   8.152 -14.782  0.00  0.00    +0.156 C 
ATOM     34  O   UNL     1       0.565   9.613 -14.862  0.00  0.00    -0.223 OA
BRANCH  33  35
ATOM     35  C   UNL     1       1.159   7.655 -15.963  0.00  0.00    +0.066 C 
BRANCH  35  36
ATOM     36  C   UNL     1       0.170   8.023 -17.267  0.00  0.00    +0.166 C 
ATOM     37  O   UNL     1       0.872   6.970 -18.149  0.00  0.00    -0.222 OA
BRANCH  36  38
ATOM     38  C   UNL     1      -1.011   6.948 -16.760  0.00  0.00    +0.147 C 
BRANCH  38  39
ATOM     39  C   UNL     1      -2.032   6.961 -17.804  0.00  0.00    +0.367 C 
ATOM     40  O   UNL     1      -2.192   5.737 -18.462  0.00  0.00    -0.246 OA
ATOM     41  O   UNL     1      -2.388   7.964 -18.482  0.00  0.00    -0.246 OA
ENDBRANCH  38  39
ENDBRANCH  36  38
ENDBRANCH  35  36
ENDBRANCH  33  35
ENDBRANCH  32  33
ENDBRANCH  31  32
ENDBRANCH   2  31
TORSDOF 12
ENDMDL
MODEL 7
REMARK VINA RESULT:      -8.1      4.074     10.620
REMARK  Name = 
REMARK  12 active torsions:
REMARK  status: ('A' for Active; 'I' for Inactive)
REMARK    1  A    between atoms: C_2  and  C_4
REMARK    2  A    between atoms: C_5  and  C_6
REMARK    3  A    between atoms: N_8  and  C_9
REMARK    4  A    between atoms: C_15  and  C_16
REMARK    5  A    between atoms: C_22  and  C_23
REMARK    6  A    between atoms: N_30  and  C_31
REMARK    7  A    between atoms: C_31  and  C_32
REMARK    8  A    between atoms: C_32  and  C_33
REMARK    9  A    between atoms: C_33  and  C_35
REMARK   10  A    between atoms: C_35  and  C_36
REMARK   11  A    between atoms: C_36  and  C_38
REMARK   12  A    between atoms: C_38  and  C_39
REMARK                            x       y       z     vdW  Elec       q    Type
REMARK                         _______ _______ _______ _____ _____    ______ ____
ROOT
ATOM      1  C   UNL     1       1.718   5.540 -11.932  0.00  0.00    +0.041 A 
ATOM      2  N   UNL     1       2.662   5.470 -10.964  0.00  0.00    -0.330 N 
ATOM      3  C   UNL     1       3.788   6.013 -11.457  0.00  0.00    +0.060 A 
ATOM      4  C   UNL     1       3.662   6.210 -12.827  0.00  0.00    +0.021 A 
ATOM      5  C   UNL     1       2.317   6.012 -13.090  0.00  0.00    +0.068 A 
ENDROOT
BRANCH   3   6
ATOM      6  C   UNL     1       4.881   6.520 -10.620  0.00  0.00    +0.016 A 
ATOM      7  C   UNL     1       5.643   5.695  -9.812  0.00  0.00    +0.004 A 
ATOM      8  C   UNL     1       6.999   5.921  -9.612  0.00  0.00    +0.030 A 
ATOM      9  C   UNL     1       7.650   6.900 -10.351  0.00  0.00    +0.140 A 
ATOM     10  F   UNL     1       8.914   6.757 -10.804  0.00  0.00    -0.204 F 
ATOM     11  C   UNL     1       6.844   7.918 -10.842  0.00  0.00    +0.030 A 
ATOM     12  C   UNL     1       5.474   7.729 -10.966  0.00  0.00    +0.004 A 
ENDBRANCH   3   6
BRANCH   4  13
ATOM     13  C   UNL     1       4.764   6.071 -13.751  0.00  0.00    +0.002 A 
ATOM     14  C   UNL     1       6.003   5.546 -13.407  0.00  0.00    +0.000 A 
ATOM     15  C   UNL     1       6.935   5.304 -14.388  0.00  0.00    +0.000 A 
ATOM     16  C   UNL     1       6.938   6.066 -15.549  0.00  0.00    +0.000 A 
ATOM     17  C   UNL     1       5.895   6.962 -15.700  0.00  0.00    +0.000 A 
ATOM     18  C   UNL     1       4.745   6.752 -14.964  0.00  0.00    +0.000 A 
ENDBRANCH   4  13
BRANCH   1  20
ATOM     19  C   UNL     1       0.172   5.024 -11.936  0.00  0.00    +0.006 C 
ATOM     20  C   UNL     1       0.257   5.342 -11.831  0.00  0.00    +0.038 C 
ATOM     21  C   UNL     1      -0.427   6.584 -11.288  0.00  0.00    +0.006 C 
ENDBRANCH   1  20
BRANCH   5  22
ATOM     22  C   UNL     1       1.688   6.577 -14.289  0.00  0.00    +0.270 C 
ATOM     23  N   UNL     1       1.285   7.945 -14.194  0.00  0.00    -0.175 NA
ATOM     24  O   UNL     1       0.983   5.864 -15.060  0.00  0.00    -0.268 OA
BRANCH  23  25
ATOM     25  C   UNL     1       1.015   8.671 -15.399  0.00  0.00    +0.074 A 
ATOM     26  C   UNL     1       1.531   8.256 -16.604  0.00  0.00    +0.017 A 
ATOM     27  C   UNL     1       1.850   9.203 -17.565  0.00  0.00    +0.001 A 
ATOM     28  C   UNL     1       1.852  10.564 -17.289  0.00  0.00    +0.000 A 
ATOM     29  C   UNL     1       1.132  10.967 -16.183  0.00  0.00    +0.001 A 
ATOM     30  C   UNL     1       0.683  10.015 -15.274  0.00  0.00    +0.017 A 
ENDBRANCH  23  25
ENDBRANCH   5  22
BRANCH   2  31
ATOM     31  C   UNL     1       2.476   4.745  -9.714  0.00  0.00    +0.108 C 
BRANCH  31  32
ATOM     32  C   UNL     1       2.017   5.685  -8.622  0.00  0.00    +0.057 C 
BRANCH  32  33
ATOM     33  C   UNL     1       2.032   4.723  -7.250  0.00  0.00    +0.156 C 
ATOM     34  O   UNL     1       2.572   3.525  -8.058  0.00  0.00    -0.223 OA
BRANCH  33  35
ATOM     35  C   UNL     1       3.577   5.232  -6.845  0.00  0.00    +0.066 C 
BRANCH  35  36
ATOM     36  C   UNL     1       3.266   5.434  -5.209  0.00  0.00    +0.166 C 
ATOM     37  O   UNL     1       4.661   4.890  -4.835  0.00  0.00    -0.222 OA
BRANCH  36  38
ATOM     38  C   UNL     1       3.790   7.024  -5.236  0.00  0.00    +0.147 C 
BRANCH  38  39
ATOM     39  C   UNL     1       3.724   7.487  -3.853  0.00  0.00    +0.367 C 
ATOM     40  O   UNL     1       4.960   7.863  -3.316  0.00  0.00    -0.246 OA
ATOM     41  O   UNL     1       2.871   7.136  -2.993  0.00  0.00    -0.246 OA
ENDBRANCH  38  39
ENDBRANCH  36  38
ENDBRANCH  35  36
ENDBRANCH  33  35
ENDBRANCH  32  33
ENDBRANCH  31  32
ENDBRANCH   2  31
TORSDOF 12
ENDMDL
MODEL 8
REMARK VINA RESULT:      -8.0      3.939     10.534
REMARK  Name = 
REMARK  12 active torsions:
REMARK  status: ('A' for Active; 'I' for Inactive)
REMARK    1  A    between atoms: C_2  and  C_4
REMARK    2  A    between atoms: C_5  and  C_6
REMARK    3  A    between atoms: N_8  and  C_9
REMARK    4  A    between atoms: C_15  and  C_16
REMARK    5  A    between atoms: C_22  and  C_23
REMARK    6  A    between atoms: N_30  and  C_31
REMARK    7  A    between atoms: C_31  and  C_32
REMARK    8  A    between atoms: C_32  and  C_33
REMARK    9  A    between atoms: C_33  and  C_35
REMARK   10  A    between atoms: C_35  and  C_36
REMARK   11  A    between atoms: C_36  and  C_38
REMARK   12  A    between atoms: C_38  and  C_39
REMARK                            x       y       z     vdW  Elec       q    Type
REMARK                         _______ _______ _______ _____ _____    ______ ____
ROOT
ATOM      1  C   UNL     1       1.371   5.383 -11.495  0.00  0.00    +0.041 A 
ATOM      2  N   UNL     1       1.732   5.402 -10.190  0.00  0.00    -0.330 N 
ATOM      3  C   UNL     1       2.876   6.101 -10.098  0.00  0.00    +0.060 A 
ATOM      4  C   UNL     1       3.401   6.326 -11.364  0.00  0.00    +0.021 A 
ATOM      5  C   UNL     1       2.387   5.966 -12.237  0.00  0.00    +0.068 A 
ENDROOT
BRANCH   3   6
ATOM      6  C   UNL     1       3.355   6.716  -8.854  0.00  0.00    +0.016 A 
ATOM      7  C   UNL     1       2.612   7.647  -8.151  0.00  0.00    +0.004 A 
ATOM      8  C   UNL     1       2.629   7.695  -6.763  0.00  0.00    +0.030 A 
ATOM      9  C   UNL     1       3.279   6.699  -6.047  0.00  0.00    +0.140 A 
ATOM     10  F   UNL     1       2.810   6.210  -4.879  0.00  0.00    -0.204 F 
ATOM     11  C   UNL     1       4.287   6.029  -6.729  0.00  0.00    +0.030 A 
ATOM     12  C   UNL     1       4.325   6.047  -8.117  0.00  0.00    +0.004 A 
ENDBRANCH   3   6
BRANCH   4  13
ATOM     13  C   UNL     1       4.820   6.361 -11.638  0.00  0.00    +0.002 A 
ATOM     14  C   UNL     1       5.572   5.242 -11.969  0.00  0.00    +0.000 A 
ATOM     15  C   UNL     1       6.879   5.395 -12.369  0.00  0.00    +0.000 A 
ATOM     16  C   UNL     1       7.625   6.474 -11.912  0.00  0.00    +0.000 A 
ATOM     17  C   UNL     1       6.947   7.417 -11.162  0.00  0.00    +0.000 A 
ATOM     18  C   UNL     1       5.571   7.472 -11.275  0.00  0.00    +0.000 A 
ENDBRANCH   4  13
BRANCH   1  20
ATOM     19  C   UNL     1      -0.177   5.172 -11.958  0.00  0.00    +0.006 C 
ATOM     20  C   UNL     1       0.081   4.996 -12.103  0.00  0.00    +0.038 C 
ATOM     21  C   UNL     1       0.279   3.949 -13.186  0.00  0.00    +0.006 C 
ENDBRANCH   1  20
BRANCH   5  22
ATOM     22  C   UNL     1       2.347   6.485 -13.608  0.00  0.00    +0.270 C 
ATOM     23  N   UNL     1       1.223   7.310 -13.927  0.00  0.00    -0.175 NA
ATOM     24  O   UNL     1       2.816   5.822 -14.577  0.00  0.00    -0.268 OA
BRANCH  23  25
ATOM     25  C   UNL     1       1.289   8.146 -15.089  0.00  0.00    +0.074 A 
ATOM     26  C   UNL     1       1.043   9.495 -15.004  0.00  0.00    +0.017 A 
ATOM     27  C   UNL     1       0.466  10.147 -16.083  0.00  0.00    +0.001 A 
ATOM     28  C   UNL     1      -0.051   9.457 -17.172  0.00  0.00    +0.000 A 
ATOM     29  C   UNL     1       0.395   8.163 -17.347  0.00  0.00    +0.001 A 
ATOM     30  C   UNL     1       1.099   7.537 -16.325  0.00  0.00    +0.017 A 
ENDBRANCH  23  25
ENDBRANCH   5  22
BRANCH   2  31
ATOM     31  C   UNL     1       1.062   4.618  -9.161  0.00  0.00    +0.108 C 
BRANCH  31  32
ATOM     32  C   UNL     1      -0.081   5.404  -8.560  0.00  0.00    +0.057 C 
BRANCH  32  33
ATOM     33  C   UNL     1      -0.343   4.645  -7.089  0.00  0.00    +0.156 C 
ATOM     34  O   UNL     1       1.175   4.475  -6.872  0.00  0.00    -0.223 OA
BRANCH  33  35
ATOM     35  C   UNL     1      -0.363   6.111  -6.275  0.00  0.00    +0.066 C 
BRANCH  35  36
ATOM     36  C   UNL     1      -0.579   5.454  -4.747  0.00  0.00    +0.166 C 
ATOM     37  O   UNL     1      -0.282   6.812  -4.076  0.00  0.00    -0.222 OA
BRANCH  36  38
ATOM     38  C   UNL     1      -2.230   5.730  -4.788  0.00  0.00    +0.147 C 
BRANCH  38  39
ATOM     39  C   UNL     1      -2.650   5.832  -3.393  0.00  0.00    +0.367 C 
ATOM     40  O   UNL     1      -2.707   4.605  -2.722  0.00  0.00    -0.246 OA
ATOM     41  O   UNL     1      -3.396   6.725  -2.905  0.00  0.00    -0.246 OA
ENDBRANCH  38  39
ENDBRANCH  36  38
ENDBRANCH  35  36
ENDBRANCH  33  35
ENDBRANCH  32  33
ENDBRANCH  31  32
ENDBRANCH   2  31
TORSDOF 12
ENDMDL
MODEL 9
REMARK VINA RESULT:      -7.9      4.250     10.830
REMARK  Name = 
REMARK  12 active torsions:
REMARK  status: ('A' for Active; 'I' for Inactive)
REMARK    1  A    between atoms: C_2  and  C_4
REMARK    2  A    between atoms: C_5  and  C_6
REMARK    3  A    between atoms: N_8  and  C_9
REMARK    4  A    between atoms: C_15  and  C_16
REMARK    5  A    between atoms: C_22  and  C_23
REMARK    6  A    between atoms: N_30  and  C_31
REMARK    7  A    between atoms: C_31  and  C_32
REMARK    8  A    between atoms: C_32  and  C_33
REMARK    9  A    between atoms: C_33  and  C_35
REMARK   10  A    between atoms: C_35  and  C_36
REMARK   11  A    between atoms: C_36  and  C_38
REMARK   12  A    between atoms: C_38  and  C_39
REMARK                            x       y       z     vdW  Elec       q    Type
REMARK                         _______ _______ _______ _____ _____    ______ ____
ROOT
ATOM      1  C   UNL     1       1.719   5.554 -11.830  0.00  0.00    +0.041 A 
ATOM      2  N   UNL     1       2.673   5.489 -10.870  0.00  0.00    -0.330 N 
ATOM      3  C   UNL     1       3.796   6.022 -11.381  0.00  0.00    +0.060 A 
ATOM      4  C   UNL     1       3.658   6.206 -12.751  0.00  0.00    +0.021 A 
ATOM      5  C   UNL     1       2.308   6.011 -12.999  0.00  0.00    +0.068 A 
ENDROOT
BRANCH   3   6
ATOM      6  C   UNL     1       4.900   6.532 -10.559  0.00  0.00    +0.016 A 
ATOM      7  C   UNL     1       5.665   5.712  -9.749  0.00  0.00    +0.004 A 
ATOM      8  C   UNL     1       7.024   5.933  -9.566  0.00  0.00    +0.030 A 
ATOM      9  C   UNL     1       7.673   6.900 -10.321  0.00  0.00    +0.140 A 
ATOM     10  F   UNL     1       8.932   6.744 -10.785  0.00  0.00    -0.204 F 
ATOM     11  C   UNL     1       6.869   7.917 -10.817  0.00  0.00    +0.030 A 
ATOM     12  C   UNL     1       5.496   7.733 -10.925  0.00  0.00    +0.004 A 
ENDBRANCH   3   6
BRANCH   4  13
ATOM     13  C   UNL     1       4.749   6.052 -13.685  0.00  0.00    +0.002 A 
ATOM     14  C   UNL     1       5.995   5.541 -13.344  0.00  0.00    +0.000 A 
ATOM     15  C   UNL     1       6.917   5.282 -14.330  0.00  0.00    +0.000 A 
ATOM     16  C   UNL     1       6.902   6.019 -15.508  0.00  0.00    +0.000 A 
ATOM     17  C   UNL     1       5.852   6.906 -15.666  0.00  0.00    +0.000 A 
ATOM     18  C   UNL     1       4.712   6.706 -14.911  0.00  0.00    +0.000 A 
ENDBRANCH   4  13
BRANCH   1  20
ATOM     19  C   UNL     1       0.171   5.046 -11.814  0.00  0.00    +0.006 C 
ATOM     20  C   UNL     1       0.259   5.363 -11.711  0.00  0.00    +0.038 C 
ATOM     21  C   UNL     1      -0.413   6.611 -11.165  0.00  0.00    +0.006 C 
ENDBRANCH   1  20
BRANCH   5  22
ATOM     22  C   UNL     1       1.670   6.566 -14.196  0.00  0.00    +0.270 C 
ATOM     23  N   UNL     1       1.278   7.939 -14.112  0.00  0.00    -0.175 NA
ATOM     24  O   UNL     1       0.951   5.850 -14.951  0.00  0.00    -0.268 OA
BRANCH  23  25
ATOM     25  C   UNL     1       1.000   8.653 -15.323  0.00  0.00    +0.074 A 
ATOM     26  C   UNL     1       1.437   8.180 -16.537  0.00  0.00    +0.017 A 
ATOM     27  C   UNL     1       1.769   9.085 -17.535  0.00  0.00    +0.001 A 
ATOM     28  C   UNL     1       1.864  10.449 -17.293  0.00  0.00    +0.000 A 
ATOM     29  C   UNL     1       1.218  10.919 -16.167  0.00  0.00    +0.001 A 
ATOM     30  C   UNL     1       0.753  10.017 -15.217  0.00  0.00    +0.017 A 
ENDBRANCH  23  25
ENDBRANCH   5  22
BRANCH   2  31
ATOM     31  C   UNL     1       2.497   4.778  -9.611  0.00  0.00    +0.108 C 
BRANCH  31  32
ATOM     32  C   UNL     1       2.111   5.740  -8.511  0.00  0.00    +0.057 C 
BRANCH  32  33
ATOM     33  C   UNL     1       1.260   4.779  -7.434  0.00  0.00    +0.156 C 
ATOM     34  O   UNL     1       2.397   3.736  -7.419  0.00  0.00    -0.223 OA
BRANCH  33  35
ATOM     35  C   UNL     1       1.900   5.595  -6.116  0.00  0.00    +0.066 C 
BRANCH  35  36
ATOM     36  C   UNL     1       0.647   5.227  -5.064  0.00  0.00    +0.166 C 
ATOM     37  O   UNL     1       1.229   6.158  -3.980  0.00  0.00    -0.222 OA
BRANCH  36  38
ATOM     38  C   UNL     1      -0.332   6.427  -5.702  0.00  0.00    +0.147 C 
BRANCH  38  39
ATOM     39  C   UNL     1      -1.702   5.955  -5.528  0.00  0.00    +0.367 C 
ATOM     40  O   UNL     1      -1.993   5.508  -4.235  0.00  0.00    -0.246 OA
ATOM     41  O   UNL     1      -2.436   5.456  -6.425  0.00  0.00    -0.246 OA
ENDBRANCH  38  39
ENDBRANCH  36  38
ENDBRANCH  35  36
ENDBRANCH  33  35
ENDBRANCH  32  33
ENDBRANCH  31  32
ENDBRANCH   2  31
TORSDOF 12
ENDMDL
