MODEL 1
REMARK VINA RESULT:      -7.8      0.000      0.000
REMARK  Name = 
REMARK  4 active torsions:
REMARK  status: ('A' for Active; 'I' for Inactive)
REMARK    1  A    between atoms: C_2  and  C_3
REMARK    2  A    between atoms: C_12  and  C_13
REMARK    3  A    between atoms: C_12  and  C_15
REMARK    4  A    between atoms: C_15  and  C_16
REMARK                            x       y       z     vdW  Elec       q    Type
REMARK                         _______ _______ _______ _____ _____    ______ ____
ROOT
ATOM      1  C   UNL     1      -1.647   6.369  -4.341  0.00  0.00    -0.005 A 
ATOM      2  C   UNL     1      -0.370   5.887  -4.219  0.00  0.00    +0.077 A 
ATOM      3  C   UNL     1       0.188   5.286  -5.340  0.00  0.00    +0.015 A 
ATOM      4  C   UNL     1       1.510   5.083  -5.050  0.00  0.00    -0.002 A 
ATOM      5  C   UNL     1       2.646   4.500  -5.781  0.00  0.00    +0.060 C 
ATOM      6  C   UNL     1       3.982   4.916  -5.336  0.00  0.00    +0.147 C 
ATOM      7  O   UNL     1       4.151   5.622  -4.222  0.00  0.00    -0.352 OA
ATOM      8  C   UNL     1       3.155   5.832  -3.341  0.00  0.00    +0.138 C 
ATOM      9  C   UNL     1       1.786   5.596  -3.800  0.00  0.00    +0.080 A 
ATOM     10  C   UNL     1      -0.538   5.092  -6.491  0.00  0.00    +0.001 A 
ATOM     11  C   UNL     1      -1.835   5.550  -6.592  0.00  0.00    -0.000 A 
ATOM     12  N   UNL     1       0.604   5.929  -3.278  0.00  0.00    -0.248 NA
ATOM     13  C   UNL     1      -2.409   6.121  -5.476  0.00  0.00    -0.003 A 
ENDROOT
BRANCH   1  15
ATOM     14  C   UNL     1      -3.246   6.597  -2.579  0.00  0.00    +0.005 C 
ATOM     15  C   UNL     1      -2.204   7.224  -3.263  0.00  0.00    +0.028 C 
ENDBRANCH   1  15
BRANCH   8  16
ATOM     16  C   UNL     1       3.265   7.282  -2.876  0.00  0.00    +0.034 C 
ATOM     17  C   UNL     1       4.537   7.917  -3.421  0.00  0.00    +0.003 C 
ENDBRANCH   8  16
BRANCH   8  18
ATOM     18  C   UNL     1       3.369   4.989  -2.090  0.00  0.00    +0.147 C 
BRANCH  18  19
ATOM     19  C   UNL     1       3.177   5.803  -0.849  0.00  0.00    +0.368 C 
ATOM     20  O   UNL     1       4.300   5.892  -0.019  0.00  0.00    -0.246 OA
ATOM     21  O   UNL     1       2.071   5.728  -0.232  0.00  0.00    -0.246 OA
ENDBRANCH  18  19
ENDBRANCH   8  18
TORSDOF 4
ENDMDL
MODEL 2
REMARK VINA RESULT:      -7.3      5.855      8.163
REMARK  Name = 
REMARK  4 active torsions:
REMARK  status: ('A' for Active; 'I' for Inactive)
REMARK    1  A    between atoms: C_2  and  C_3
REMARK    2  A    between atoms: C_12  and  C_13
REMARK    3  A    between atoms: C_12  and  C_15
REMARK    4  A    between atoms: C_15  and  C_16
REMARK                            x       y       z     vdW  Elec       q    Type
REMARK                         _______ _______ _______ _____ _____    ______ ____
ROOT
ATOM      1  C   UNL     1       3.792   5.462  -6.673  0.00  0.00    -0.005 A 
ATOM      2  C   UNL     1       4.254   5.368  -7.959  0.00  0.00    +0.077 A 
ATOM      3  C   UNL     1       3.305   5.204  -8.961  0.00  0.00    +0.015 A 
ATOM      4  C   UNL     1       3.970   5.348 -10.148  0.00  0.00    -0.002 A 
ATOM      5  C   UNL     1       3.571   5.293 -11.564  0.00  0.00    +0.060 C 
ATOM      6  C   UNL     1       4.454   5.986 -12.510  0.00  0.00    +0.147 C 
ATOM      7  O   UNL     1       5.635   6.465 -12.130  0.00  0.00    -0.352 OA
ATOM      8  C   UNL     1       6.178   6.183 -10.931  0.00  0.00    +0.138 C 
ATOM      9  C   UNL     1       5.291   5.650  -9.897  0.00  0.00    +0.080 A 
ATOM     10  C   UNL     1       1.970   5.045  -8.670  0.00  0.00    +0.001 A 
ATOM     11  C   UNL     1       1.520   5.107  -7.368  0.00  0.00    -0.000 A 
ATOM     12  N   UNL     1       5.451   5.502  -8.581  0.00  0.00    -0.248 NA
ATOM     13  C   UNL     1       2.457   5.239  -6.365  0.00  0.00    -0.003 A 
ENDROOT
BRANCH   1  15
ATOM     14  C   UNL     1       4.647   5.036  -4.482  0.00  0.00    +0.005 C 
ATOM     15  C   UNL     1       4.728   5.871  -5.596  0.00  0.00    +0.028 C 
ENDBRANCH   1  15
BRANCH   8  16
ATOM     16  C   UNL     1       6.809   7.472 -10.410  0.00  0.00    +0.034 C 
ATOM     17  C   UNL     1       6.526   8.623 -11.365  0.00  0.00    +0.003 C 
ENDBRANCH   8  16
BRANCH   8  18
ATOM     18  C   UNL     1       7.333   5.202 -11.092  0.00  0.00    +0.147 C 
BRANCH  18  19
ATOM     19  C   UNL     1       8.146   5.518 -12.309  0.00  0.00    +0.368 C 
ATOM     20  O   UNL     1       7.841   4.753 -13.439  0.00  0.00    -0.246 OA
ATOM     21  O   UNL     1       9.378   5.785 -12.170  0.00  0.00    -0.246 OA
ENDBRANCH  18  19
ENDBRANCH   8  18
TORSDOF 4
ENDMDL
MODEL 3
REMARK VINA RESULT:      -7.2      6.623      9.791
REMARK  Name = 
REMARK  4 active torsions:
REMARK  status: ('A' for Active; 'I' for Inactive)
REMARK    1  A    between atoms: C_2  and  C_3
REMARK    2  A    between atoms: C_12  and  C_13
REMARK    3  A    between atoms: C_12  and  C_15
REMARK    4  A    between atoms: C_15  and  C_16
REMARK                            x       y       z     vdW  Elec       q    Type
REMARK                         _______ _______ _______ _____ _____    ______ ____
ROOT
ATOM      1  C   UNL     1       5.887   6.004 -10.620  0.00  0.00    -0.005 A 
ATOM      2  C   UNL     1       4.586   5.601 -10.762  0.00  0.00    +0.077 A 
ATOM      3  C   UNL     1       3.951   5.105  -9.630  0.00  0.00    +0.015 A 
ATOM      4  C   UNL     1       2.629   4.971  -9.958  0.00  0.00    -0.002 A 
ATOM      5  C   UNL     1       1.432   4.508  -9.238  0.00  0.00    +0.060 C 
ATOM      6  C   UNL     1       0.144   4.982  -9.756  0.00  0.00    +0.147 C 
ATOM      7  O   UNL     1       0.060   5.631 -10.914  0.00  0.00    -0.352 OA
ATOM      8  C   UNL     1       1.097   5.724 -11.767  0.00  0.00    +0.138 C 
ATOM      9  C   UNL     1       2.431   5.426 -11.244  0.00  0.00    +0.080 A 
ATOM     10  C   UNL     1       4.624   4.932  -8.444  0.00  0.00    +0.001 A 
ATOM     11  C   UNL     1       5.945   5.310  -8.321  0.00  0.00    -0.000 A 
ATOM     12  N   UNL     1       3.649   5.650 -11.740  0.00  0.00    -0.248 NA
ATOM     13  C   UNL     1       6.592   5.776  -9.445  0.00  0.00    -0.003 A 
ENDROOT
BRANCH   1  15
ATOM     14  C   UNL     1       6.449   8.137 -11.543  0.00  0.00    +0.005 C 
ATOM     15  C   UNL     1       6.537   6.756 -11.723  0.00  0.00    +0.028 C 
ENDBRANCH   1  15
BRANCH   8  16
ATOM     16  C   UNL     1       1.100   7.148 -12.318  0.00  0.00    +0.034 C 
ATOM     17  C   UNL     1      -0.279   7.775 -12.170  0.00  0.00    +0.003 C 
ENDBRANCH   8  16
BRANCH   8  18
ATOM     18  C   UNL     1       0.868   4.823 -12.975  0.00  0.00    +0.147 C 
BRANCH  18  19
ATOM     19  C   UNL     1       1.435   5.433 -14.219  0.00  0.00    +0.368 C 
ATOM     20  O   UNL     1       0.501   5.699 -15.227  0.00  0.00    -0.246 OA
ATOM     21  O   UNL     1       2.563   5.032 -14.639  0.00  0.00    -0.246 OA
ENDBRANCH  18  19
ENDBRANCH   8  18
TORSDOF 4
ENDMDL
MODEL 4
REMARK VINA RESULT:      -7.2      2.118      4.240
REMARK  Name = 
REMARK  4 active torsions:
REMARK  status: ('A' for Active; 'I' for Inactive)
REMARK    1  A    between atoms: C_2  and  C_3
REMARK    2  A    between atoms: C_12  and  C_13
REMARK    3  A    between atoms: C_12  and  C_15
REMARK    4  A    between atoms: C_15  and  C_16
REMARK                            x       y       z     vdW  Elec       q    Type
REMARK                         _______ _______ _______ _____ _____    ______ ____
ROOT
ATOM      1  C   UNL     1      -1.799   6.475  -4.257  0.00  0.00    -0.005 A 
ATOM      2  C   UNL     1      -0.433   6.458  -4.360  0.00  0.00    +0.077 A 
ATOM      3  C   UNL     1       0.280   6.073  -3.232  0.00  0.00    +0.015 A 
ATOM      4  C   UNL     1       1.582   5.929  -3.630  0.00  0.00    -0.002 A 
ATOM      5  C   UNL     1       2.830   5.551  -2.950  0.00  0.00    +0.060 C 
ATOM      6  C   UNL     1       3.901   5.029  -3.809  0.00  0.00    +0.147 C 
ATOM      7  O   UNL     1       3.810   5.078  -5.134  0.00  0.00    -0.352 OA
ATOM      8  C   UNL     1       2.845   5.770  -5.768  0.00  0.00    +0.138 C 
ATOM      9  C   UNL     1       1.671   6.162  -4.986  0.00  0.00    +0.080 A 
ATOM     10  C   UNL     1      -0.346   5.815  -2.036  0.00  0.00    +0.001 A 
ATOM     11  C   UNL     1      -1.721   5.869  -1.934  0.00  0.00    -0.000 A 
ATOM     12  N   UNL     1       0.474   6.623  -5.354  0.00  0.00    -0.248 NA
ATOM     13  C   UNL     1      -2.436   6.279  -3.039  0.00  0.00    -0.003 A 
ENDROOT
BRANCH   1  15
ATOM     14  C   UNL     1      -2.551   5.530  -6.321  0.00  0.00    +0.005 C 
ATOM     15  C   UNL     1      -2.615   6.646  -5.485  0.00  0.00    +0.028 C 
ENDBRANCH   1  15
BRANCH   8  16
ATOM     16  C   UNL     1       2.379   4.917  -6.945  0.00  0.00    +0.034 C 
ATOM     17  C   UNL     1       1.923   3.548  -6.458  0.00  0.00    +0.003 C 
ENDBRANCH   8  16
BRANCH   8  18
ATOM     18  C   UNL     1       3.423   7.036  -6.389  0.00  0.00    +0.147 C 
BRANCH  18  19
ATOM     19  C   UNL     1       2.799   7.319  -7.720  0.00  0.00    +0.368 C 
ATOM     20  O   UNL     1       3.601   7.021  -8.826  0.00  0.00    -0.246 OA
ATOM     21  O   UNL     1       2.085   8.359  -7.852  0.00  0.00    -0.246 OA
ENDBRANCH  18  19
ENDBRANCH   8  18
TORSDOF 4
ENDMDL
MODEL 5
REMARK VINA RESULT:      -7.2      2.927      5.327
REMARK  Name = 
REMARK  4 active torsions:
REMARK  status: ('A' for Active; 'I' for Inactive)
REMARK    1  A    between atoms: C_2  and  C_3
REMARK    2  A    between atoms: C_12  and  C_13
REMARK    3  A    between atoms: C_12  and  C_15
REMARK    4  A    between atoms: C_15  and  C_16
REMARK                            x       y       z     vdW  Elec       q    Type
REMARK                         _______ _______ _______ _____ _____    ______ ____
ROOT
ATOM      1  C   UNL     1       0.975   5.146  -8.832  0.00  0.00    -0.005 A 
ATOM      2  C   UNL     1       0.569   5.185  -7.525  0.00  0.00    +0.077 A 
ATOM      3  C   UNL     1       1.558   5.094  -6.553  0.00  0.00    +0.015 A 
ATOM      4  C   UNL     1       0.950   5.365  -5.358  0.00  0.00    -0.002 A 
ATOM      5  C   UNL     1       1.410   5.435  -3.962  0.00  0.00    +0.060 C 
ATOM      6  C   UNL     1       0.585   6.236  -3.049  0.00  0.00    +0.147 C 
ATOM      7  O   UNL     1      -0.602   6.706  -3.423  0.00  0.00    -0.352 OA
ATOM      8  C   UNL     1      -1.203   6.326  -4.565  0.00  0.00    +0.138 C 
ATOM      9  C   UNL     1      -0.375   5.675  -5.581  0.00  0.00    +0.080 A 
ATOM     10  C   UNL     1       2.875   4.875  -6.883  0.00  0.00    +0.001 A 
ATOM     11  C   UNL     1       3.267   4.802  -8.204  0.00  0.00    -0.000 A 
ATOM     12  N   UNL     1      -0.597   5.407  -6.869  0.00  0.00    -0.248 NA
ATOM     13  C   UNL     1       2.290   4.862  -9.174  0.00  0.00    -0.003 A 
ENDROOT
BRANCH   1  15
ATOM     14  C   UNL     1       0.320   6.663 -10.560  0.00  0.00    +0.005 C 
ATOM     15  C   UNL     1      -0.000   5.475  -9.903  0.00  0.00    +0.028 C 
ENDBRANCH   1  15
BRANCH   8  16
ATOM     16  C   UNL     1      -1.831   7.575  -5.180  0.00  0.00    +0.034 C 
ATOM     17  C   UNL     1      -1.873   8.703  -4.158  0.00  0.00    +0.003 C 
ENDBRANCH   8  16
BRANCH   8  18
ATOM     18  C   UNL     1      -2.371   5.394  -4.262  0.00  0.00    +0.147 C 
BRANCH  18  19
ATOM     19  C   UNL     1      -2.975   5.700  -2.928  0.00  0.00    +0.368 C 
ATOM     20  O   UNL     1      -2.630   4.813  -1.903  0.00  0.00    -0.246 OA
ATOM     21  O   UNL     1      -4.172   6.120  -2.880  0.00  0.00    -0.246 OA
ENDBRANCH  18  19
ENDBRANCH   8  18
TORSDOF 4
ENDMDL
MODEL 6
REMARK VINA RESULT:      -7.2      1.597      3.269
REMARK  Name = 
REMARK  4 active torsions:
REMARK  status: ('A' for Active; 'I' for Inactive)
REMARK    1  A    between atoms: C_2  and  C_3
REMARK    2  A    between atoms: C_12  and  C_13
REMARK    3  A    between atoms: C_12  and  C_15
REMARK    4  A    between atoms: C_15  and  C_16
REMARK                            x       y       z     vdW  Elec       q    Type
REMARK                         _______ _______ _______ _____ _____    ______ ____
ROOT
ATOM      1  C   UNL     1      -1.931   6.396  -4.203  0.00  0.00    -0.005 A 
ATOM      2  C   UNL     1      -0.586   6.382  -3.944  0.00  0.00    +0.077 A 
ATOM      3  C   UNL     1      -0.189   5.943  -2.687  0.00  0.00    +0.015 A 
ATOM      4  C   UNL     1       1.173   5.817  -2.735  0.00  0.00    -0.002 A 
ATOM      5  C   UNL     1       2.203   5.405  -1.768  0.00  0.00    +0.060 C 
ATOM      6  C   UNL     1       3.467   4.924  -2.338  0.00  0.00    +0.147 C 
ATOM      7  O   UNL     1       3.727   5.036  -3.638  0.00  0.00    -0.352 OA
ATOM      8  C   UNL     1       2.955   5.758  -4.470  0.00  0.00    +0.138 C 
ATOM      9  C   UNL     1       1.613   6.114  -4.007  0.00  0.00    +0.080 A 
ATOM     10  C   UNL     1      -1.105   5.630  -1.710  0.00  0.00    +0.001 A 
ATOM     11  C   UNL     1      -2.459   5.680  -1.971  0.00  0.00    -0.000 A 
ATOM     12  N   UNL     1       0.549   6.594  -4.655  0.00  0.00    -0.248 NA
ATOM     13  C   UNL     1      -2.863   6.143  -3.205  0.00  0.00    -0.003 A 
ENDROOT
BRANCH   1  15
ATOM     14  C   UNL     1      -2.316   5.473  -6.374  0.00  0.00    +0.005 C 
ATOM     15  C   UNL     1      -2.398   6.626  -5.593  0.00  0.00    +0.028 C 
ENDBRANCH   1  15
BRANCH   8  16
ATOM     16  C   UNL     1       2.824   4.963  -5.766  0.00  0.00    +0.034 C 
ATOM     17  C   UNL     1       3.576   5.659  -6.892  0.00  0.00    +0.003 C 
ENDBRANCH   8  16
BRANCH   8  18
ATOM     18  C   UNL     1       3.662   7.052  -4.858  0.00  0.00    +0.147 C 
BRANCH  18  19
ATOM     19  C   UNL     1       4.705   7.421  -3.851  0.00  0.00    +0.368 C 
ATOM     20  O   UNL     1       4.282   8.314  -2.860  0.00  0.00    -0.246 OA
ATOM     21  O   UNL     1       5.900   7.595  -4.241  0.00  0.00    -0.246 OA
ENDBRANCH  18  19
ENDBRANCH   8  18
TORSDOF 4
ENDMDL
MODEL 7
REMARK VINA RESULT:      -7.1      5.092      7.979
REMARK  Name = 
REMARK  4 active torsions:
REMARK  status: ('A' for Active; 'I' for Inactive)
REMARK    1  A    between atoms: C_2  and  C_3
REMARK    2  A    between atoms: C_12  and  C_13
REMARK    3  A    between atoms: C_12  and  C_15
REMARK    4  A    between atoms: C_15  and  C_16
REMARK                            x       y       z     vdW  Elec       q    Type
REMARK                         _______ _______ _______ _____ _____    ______ ____
ROOT
ATOM      1  C   UNL     1       5.721   5.428 -11.751  0.00  0.00    -0.005 A 
ATOM      2  C   UNL     1       5.011   5.374 -10.581  0.00  0.00    +0.077 A 
ATOM      3  C   UNL     1       5.728   5.526  -9.400  0.00  0.00    +0.015 A 
ATOM      4  C   UNL     1       4.801   5.648  -8.401  0.00  0.00    -0.002 A 
ATOM      5  C   UNL     1       4.878   5.831  -6.943  0.00  0.00    +0.060 C 
ATOM      6  C   UNL     1       3.693   6.413  -6.302  0.00  0.00    +0.147 C 
ATOM      7  O   UNL     1       2.557   6.584  -6.973  0.00  0.00    -0.352 OA
ATOM      8  C   UNL     1       2.357   6.066  -8.199  0.00  0.00    +0.138 C 
ATOM      9  C   UNL     1       3.536   5.630  -8.948  0.00  0.00    +0.080 A 
ATOM     10  C   UNL     1       7.099   5.628  -9.397  0.00  0.00    +0.001 A 
ATOM     11  C   UNL     1       7.807   5.647 -10.580  0.00  0.00    -0.000 A 
ATOM     12  N   UNL     1       3.703   5.312 -10.233  0.00  0.00    -0.248 NA
ATOM     13  C   UNL     1       7.109   5.467 -11.756  0.00  0.00    -0.003 A 
ENDROOT
BRANCH   1  15
ATOM     14  C   UNL     1       5.771   6.053 -14.058  0.00  0.00    +0.005 C 
ATOM     15  C   UNL     1       4.988   5.510 -13.039  0.00  0.00    +0.028 C 
ENDBRANCH   1  15
BRANCH   8  16
ATOM     16  C   UNL     1       1.627   7.126  -9.020  0.00  0.00    +0.034 C 
ATOM     17  C   UNL     1       0.612   6.470  -9.946  0.00  0.00    +0.003 C 
ENDBRANCH   8  16
BRANCH   8  18
ATOM     18  C   UNL     1       1.400   4.882  -8.123  0.00  0.00    +0.147 C 
BRANCH  18  19
ATOM     19  C   UNL     1       0.688   4.846  -6.807  0.00  0.00    +0.368 C 
ATOM     20  O   UNL     1       1.108   3.836  -5.934  0.00  0.00    -0.246 OA
ATOM     21  O   UNL     1      -0.557   5.083  -6.777  0.00  0.00    -0.246 OA
ENDBRANCH  18  19
ENDBRANCH   8  18
TORSDOF 4
ENDMDL
MODEL 8
REMARK VINA RESULT:      -7.0      3.325      4.302
REMARK  Name = 
REMARK  4 active torsions:
REMARK  status: ('A' for Active; 'I' for Inactive)
REMARK    1  A    between atoms: C_2  and  C_3
REMARK    2  A    between atoms: C_12  and  C_13
REMARK    3  A    between atoms: C_12  and  C_15
REMARK    4  A    between atoms: C_15  and  C_16
REMARK                            x       y       z     vdW  Elec       q    Type
REMARK                         _______ _______ _______ _____ _____    ______ ____
ROOT
ATOM      1  C   UNL     1      -0.957   5.522  -3.545  0.00  0.00    -0.005 A 
ATOM      2  C   UNL     1      -0.225   5.426  -4.699  0.00  0.00    +0.077 A 
ATOM      3  C   UNL     1      -0.928   5.457  -5.897  0.00  0.00    +0.015 A 
ATOM      4  C   UNL     1       0.008   5.560  -6.890  0.00  0.00    -0.002 A 
ATOM      5  C   UNL     1      -0.054   5.638  -8.358  0.00  0.00    +0.060 C 
ATOM      6  C   UNL     1       1.109   6.239  -9.022  0.00  0.00    +0.147 C 
ATOM      7  O   UNL     1       2.221   6.519  -8.349  0.00  0.00    -0.352 OA
ATOM      8  C   UNL     1       2.428   6.099  -7.088  0.00  0.00    +0.138 C 
ATOM      9  C   UNL     1       1.262   5.651  -6.325  0.00  0.00    +0.080 A 
ATOM     10  C   UNL     1      -2.302   5.482  -5.926  0.00  0.00    +0.001 A 
ATOM     11  C   UNL     1      -3.031   5.543  -4.756  0.00  0.00    -0.000 A 
ATOM     12  N   UNL     1       1.091   5.413  -5.024  0.00  0.00    -0.248 NA
ATOM     13  C   UNL     1      -2.345   5.484  -3.562  0.00  0.00    -0.003 A 
ENDROOT
BRANCH   1  15
ATOM     14  C   UNL     1      -1.098   6.235  -1.267  0.00  0.00    +0.005 C 
ATOM     15  C   UNL     1      -0.251   5.733  -2.256  0.00  0.00    +0.028 C 
ENDBRANCH   1  15
BRANCH   8  16
ATOM     16  C   UNL     1       3.086   7.251  -6.333  0.00  0.00    +0.034 C 
ATOM     17  C   UNL     1       4.165   6.724  -5.398  0.00  0.00    +0.003 C 
ENDBRANCH   8  16
BRANCH   8  18
ATOM     18  C   UNL     1       3.449   4.967  -7.068  0.00  0.00    +0.147 C 
BRANCH  18  19
ATOM     19  C   UNL     1       4.166   4.863  -8.378  0.00  0.00    +0.368 C 
ATOM     20  O   UNL     1       3.819   3.754  -9.157  0.00  0.00    -0.246 OA
ATOM     21  O   UNL     1       5.393   5.180  -8.431  0.00  0.00    -0.246 OA
ENDBRANCH  18  19
ENDBRANCH   8  18
TORSDOF 4
ENDMDL
MODEL 9
REMARK VINA RESULT:      -7.0      3.136      4.377
REMARK  Name = 
REMARK  4 active torsions:
REMARK  status: ('A' for Active; 'I' for Inactive)
REMARK    1  A    between atoms: C_2  and  C_3
REMARK    2  A    between atoms: C_12  and  C_13
REMARK    3  A    between atoms: C_12  and  C_15
REMARK    4  A    between atoms: C_15  and  C_16
REMARK                            x       y       z     vdW  Elec       q    Type
REMARK                         _______ _______ _______ _____ _____    ______ ____
ROOT
ATOM      1  C   UNL     1      -0.878   5.843  -2.289  0.00  0.00    -0.005 A 
ATOM      2  C   UNL     1      -0.423   5.587  -3.556  0.00  0.00    +0.077 A 
ATOM      3  C   UNL     1      -1.378   5.471  -4.558  0.00  0.00    +0.015 A 
ATOM      4  C   UNL     1      -0.691   5.430  -5.742  0.00  0.00    -0.002 A 
ATOM      5  C   UNL     1      -1.082   5.316  -7.155  0.00  0.00    +0.060 C 
ATOM      6  C   UNL     1      -0.108   5.809  -8.136  0.00  0.00    +0.147 C 
ATOM      7  O   UNL     1       1.124   6.157  -7.774  0.00  0.00    -0.352 OA
ATOM      8  C   UNL     1       1.615   5.903  -6.547  0.00  0.00    +0.138 C 
ATOM      9  C   UNL     1       0.657   5.575  -5.490  0.00  0.00    +0.080 A 
ATOM     10  C   UNL     1      -2.724   5.512  -4.281  0.00  0.00    +0.001 A 
ATOM     11  C   UNL     1      -3.172   5.736  -2.996  0.00  0.00    -0.000 A 
ATOM     12  N   UNL     1       0.786   5.512  -4.164  0.00  0.00    -0.248 NA
ATOM     13  C   UNL     1      -2.234   5.823  -1.989  0.00  0.00    -0.003 A 
ENDROOT
BRANCH   1  15
ATOM     14  C   UNL     1      -0.532   6.676  -0.075  0.00  0.00    +0.005 C 
ATOM     15  C   UNL     1       0.096   6.210  -1.231  0.00  0.00    +0.028 C 
ENDBRANCH   1  15
BRANCH   8  16
ATOM     16  C   UNL     1       2.408   7.134  -6.116  0.00  0.00    +0.034 C 
ATOM     17  C   UNL     1       3.694   6.717  -5.416  0.00  0.00    +0.003 C 
ENDBRANCH   8  16
BRANCH   8  18
ATOM     18  C   UNL     1       2.631   4.769  -6.610  0.00  0.00    +0.147 C 
BRANCH  18  19
ATOM     19  C   UNL     1       3.093   4.533  -8.014  0.00  0.00    +0.368 C 
ATOM     20  O   UNL     1       2.601   3.367  -8.611  0.00  0.00    -0.246 OA
ATOM     21  O   UNL     1       4.290   4.817  -8.321  0.00  0.00    -0.246 OA
ENDBRANCH  18  19
ENDBRANCH   8  18
TORSDOF 4
ENDMDL
