MODEL 1
REMARK VINA RESULT:      -7.8      0.000      0.000
REMARK  Name = 
REMARK  6 active torsions:
REMARK  status: ('A' for Active; 'I' for Inactive)
REMARK    1  A    between atoms: C_2  and  C_3
REMARK    2  A    between atoms: C_3  and  N_4
REMARK    3  A    between atoms: N_4  and  C_5
REMARK    4  A    between atoms: N_4  and  C_12
REMARK    5  A    between atoms: C_5  and  C_6
REMARK    6  A    between atoms: C_6  and  C_7
REMARK                            x       y       z     vdW  Elec       q    Type
REMARK                         _______ _______ _______ _____ _____    ______ ____
ROOT
ATOM      1  N   UNL     1       2.037   6.429  -8.548  0.00  0.00    -0.273 NA
ENDROOT
BRANCH   1   2
ATOM      2  C   UNL     1       3.570   6.658  -8.776  0.00  0.00    +0.062 C 
ATOM      3  C   UNL     1       3.572   6.120 -10.330  0.00  0.00    +0.042 C 
ATOM      4  C   UNL     1       5.026   6.327 -10.639  0.00  0.00    -0.022 A 
ATOM      5  C   UNL     1       5.861   5.859  -9.629  0.00  0.00    +0.013 A 
ATOM      6  C   UNL     1       7.222   6.001  -9.802  0.00  0.00    +0.191 A 
ATOM      7  C   UNL     1       7.675   7.105 -10.486  0.00  0.00    +0.042 A 
ATOM      8  C   UNL     1       6.750   7.922 -11.123  0.00  0.00    +0.003 A 
ATOM      9  O   UNL     1       8.103   5.035  -9.305  0.00  0.00    -0.287 OA
ATOM     10  C   UNL     1       5.329   4.861  -8.677  0.00  0.00    +0.031 C 
ATOM     11  C   UNL     1       5.413   7.546 -11.186  0.00  0.00    -0.004 A 
ATOM     12  C   UNL     1       3.949   5.171  -8.184  0.00  0.00    +0.021 C 
ENDBRANCH   1   2
BRANCH   1  13
ATOM     13  C   UNL     1       1.291   6.466  -9.670  0.00  0.00    +0.072 C 
BRANCH  13  15
ATOM     14  C   UNL     1       0.101   5.219 -10.085  0.00  0.00    +0.001 C 
ATOM     15  C   UNL     1       0.138   5.473  -9.815  0.00  0.00    +0.017 C 
ENDBRANCH  13  15
ENDBRANCH   1  13
BRANCH   1  16
ATOM     16  C   UNL     1       1.664   7.064  -7.347  0.00  0.00    +0.077 C 
BRANCH  16  17
ATOM     17  C   UNL     1       1.263   6.179  -6.217  0.00  0.00    +0.050 C 
BRANCH  17  18
ATOM     18  C   UNL     1      -0.177   6.281  -5.864  0.00  0.00    +0.009 A 
ATOM     19  S   UNL     1      -0.960   7.417  -4.844  0.00  0.00    -0.091 S 
ATOM     20  C   UNL     1      -2.579   6.878  -5.031  0.00  0.00    +0.035 A 
ATOM     21  C   UNL     1      -2.359   5.663  -5.674  0.00  0.00    +0.007 A 
ATOM     22  C   UNL     1      -1.280   5.753  -6.525  0.00  0.00    +0.003 A 
ENDBRANCH  17  18
ENDBRANCH  16  17
ENDBRANCH   1  16
TORSDOF 6
ENDMDL
MODEL 2
REMARK VINA RESULT:      -7.7      2.454      3.352
REMARK  Name = 
REMARK  6 active torsions:
REMARK  status: ('A' for Active; 'I' for Inactive)
REMARK    1  A    between atoms: C_2  and  C_3
REMARK    2  A    between atoms: C_3  and  N_4
REMARK    3  A    between atoms: N_4  and  C_5
REMARK    4  A    between atoms: N_4  and  C_12
REMARK    5  A    between atoms: C_5  and  C_6
REMARK    6  A    between atoms: C_6  and  C_7
REMARK                            x       y       z     vdW  Elec       q    Type
REMARK                         _______ _______ _______ _____ _____    ______ ____
ROOT
ATOM      1  N   UNL     1       2.399   5.810 -10.024  0.00  0.00    -0.273 NA
ENDROOT
BRANCH   1   2
ATOM      2  C   UNL     1       3.838   5.357 -10.446  0.00  0.00    +0.062 C 
ATOM      3  C   UNL     1       4.490   6.867 -10.399  0.00  0.00    +0.042 C 
ATOM      4  C   UNL     1       5.899   6.515 -10.777  0.00  0.00    -0.022 A 
ATOM      5  C   UNL     1       5.963   5.649 -11.864  0.00  0.00    +0.013 A 
ATOM      6  C   UNL     1       7.210   5.253 -12.299  0.00  0.00    +0.191 A 
ATOM      7  C   UNL     1       8.205   5.105 -11.361  0.00  0.00    +0.042 A 
ATOM      8  C   UNL     1       7.966   5.532 -10.062  0.00  0.00    +0.003 A 
ATOM      9  O   UNL     1       7.447   5.026 -13.659  0.00  0.00    -0.287 OA
ATOM     10  C   UNL     1       4.794   5.556 -12.765  0.00  0.00    +0.031 C 
ATOM     11  C   UNL     1       6.799   6.224  -9.758  0.00  0.00    -0.004 A 
ATOM     12  C   UNL     1       3.482   5.482 -12.046  0.00  0.00    +0.021 C 
ENDBRANCH   1   2
BRANCH   1  13
ATOM     13  C   UNL     1       1.484   5.769 -11.014  0.00  0.00    +0.072 C 
BRANCH  13  15
ATOM     14  C   UNL     1       0.067   4.712 -10.882  0.00  0.00    +0.001 C 
ATOM     15  C   UNL     1       0.160   5.051 -10.757  0.00  0.00    +0.017 C 
ENDBRANCH  13  15
ENDBRANCH   1  13
BRANCH   1  16
ATOM     16  C   UNL     1       2.514   6.885  -9.121  0.00  0.00    +0.077 C 
BRANCH  16  17
ATOM     17  C   UNL     1       1.811   6.742  -7.815  0.00  0.00    +0.050 C 
BRANCH  17  18
ATOM     18  C   UNL     1       2.644   6.117  -6.756  0.00  0.00    +0.009 A 
ATOM     19  S   UNL     1       2.170   5.048  -5.500  0.00  0.00    -0.091 S 
ATOM     20  C   UNL     1       3.707   4.765  -4.790  0.00  0.00    +0.035 A 
ATOM     21  C   UNL     1       4.455   5.751  -5.426  0.00  0.00    +0.007 A 
ATOM     22  C   UNL     1       4.021   5.930  -6.721  0.00  0.00    +0.003 A 
ENDBRANCH  17  18
ENDBRANCH  16  17
ENDBRANCH   1  16
TORSDOF 6
ENDMDL
MODEL 3
REMARK VINA RESULT:      -7.7      4.079      7.544
REMARK  Name = 
REMARK  6 active torsions:
REMARK  status: ('A' for Active; 'I' for Inactive)
REMARK    1  A    between atoms: C_2  and  C_3
REMARK    2  A    between atoms: C_3  and  N_4
REMARK    3  A    between atoms: N_4  and  C_5
REMARK    4  A    between atoms: N_4  and  C_12
REMARK    5  A    between atoms: C_5  and  C_6
REMARK    6  A    between atoms: C_6  and  C_7
REMARK                            x       y       z     vdW  Elec       q    Type
REMARK                         _______ _______ _______ _____ _____    ______ ____
ROOT
ATOM      1  N   UNL     1       3.008   5.808  -5.091  0.00  0.00    -0.273 NA
ENDROOT
BRANCH   1   2
ATOM      2  C   UNL     1       1.538   5.379  -4.761  0.00  0.00    +0.062 C 
ATOM      3  C   UNL     1       0.918   6.901  -4.835  0.00  0.00    +0.042 C 
ATOM      4  C   UNL     1      -0.518   6.573  -4.545  0.00  0.00    -0.022 A 
ATOM      5  C   UNL     1      -0.663   5.701  -3.470  0.00  0.00    +0.013 A 
ATOM      6  C   UNL     1      -1.942   5.326  -3.115  0.00  0.00    +0.191 A 
ATOM      7  C   UNL     1      -2.881   5.203  -4.112  0.00  0.00    +0.042 A 
ATOM      8  C   UNL     1      -2.555   5.634  -5.392  0.00  0.00    +0.003 A 
ATOM      9  O   UNL     1      -2.264   5.095  -1.773  0.00  0.00    -0.287 OA
ATOM     10  C   UNL     1       0.447   5.581  -2.502  0.00  0.00    +0.031 C 
ATOM     11  C   UNL     1      -1.360   6.306  -5.619  0.00  0.00    -0.004 A 
ATOM     12  C   UNL     1       1.799   5.486  -3.141  0.00  0.00    +0.021 C 
ENDBRANCH   1   2
BRANCH   1  13
ATOM     13  C   UNL     1       3.313   7.077  -4.750  0.00  0.00    +0.072 C 
BRANCH  13  15
ATOM     14  C   UNL     1       4.878   7.693  -4.190  0.00  0.00    +0.001 C 
ATOM     15  C   UNL     1       4.764   7.413  -4.408  0.00  0.00    +0.017 C 
ENDBRANCH  13  15
ENDBRANCH   1  13
BRANCH   1  16
ATOM     16  C   UNL     1       3.380   5.225  -6.318  0.00  0.00    +0.077 C 
BRANCH  16  17
ATOM     17  C   UNL     1       3.407   6.123  -7.507  0.00  0.00    +0.050 C 
BRANCH  17  18
ATOM     18  C   UNL     1       2.299   5.874  -8.465  0.00  0.00    +0.009 A 
ATOM     19  S   UNL     1       2.356   5.766 -10.177  0.00  0.00    -0.091 S 
ATOM     20  C   UNL     1       0.705   5.406 -10.481  0.00  0.00    +0.035 A 
ATOM     21  C   UNL     1       0.164   5.665  -9.226  0.00  0.00    +0.007 A 
ATOM     22  C   UNL     1       1.049   5.310  -8.232  0.00  0.00    +0.003 A 
ENDBRANCH  17  18
ENDBRANCH  16  17
ENDBRANCH   1  16
TORSDOF 6
ENDMDL
MODEL 4
REMARK VINA RESULT:      -7.6      1.759      2.719
REMARK  Name = 
REMARK  6 active torsions:
REMARK  status: ('A' for Active; 'I' for Inactive)
REMARK    1  A    between atoms: C_2  and  C_3
REMARK    2  A    between atoms: C_3  and  N_4
REMARK    3  A    between atoms: N_4  and  C_5
REMARK    4  A    between atoms: N_4  and  C_12
REMARK    5  A    between atoms: C_5  and  C_6
REMARK    6  A    between atoms: C_6  and  C_7
REMARK                            x       y       z     vdW  Elec       q    Type
REMARK                         _______ _______ _______ _____ _____    ______ ____
ROOT
ATOM      1  N   UNL     1       2.144   6.571  -8.323  0.00  0.00    -0.273 NA
ENDROOT
BRANCH   1   2
ATOM      2  C   UNL     1       3.670   6.753  -8.629  0.00  0.00    +0.062 C 
ATOM      3  C   UNL     1       3.576   6.215 -10.181  0.00  0.00    +0.042 C 
ATOM      4  C   UNL     1       5.019   6.378 -10.563  0.00  0.00    -0.022 A 
ATOM      5  C   UNL     1       5.889   5.884  -9.596  0.00  0.00    +0.013 A 
ATOM      6  C   UNL     1       7.243   5.985  -9.838  0.00  0.00    +0.191 A 
ATOM      7  C   UNL     1       7.695   7.074 -10.545  0.00  0.00    +0.042 A 
ATOM      8  C   UNL     1       6.764   7.919 -11.136  0.00  0.00    +0.003 A 
ATOM      9  O   UNL     1       8.118   4.991  -9.385  0.00  0.00    -0.287 OA
ATOM     10  C   UNL     1       5.376   4.903  -8.617  0.00  0.00    +0.031 C 
ATOM     11  C   UNL     1       5.415   7.584 -11.130  0.00  0.00    -0.004 A 
ATOM     12  C   UNL     1       4.032   5.255  -8.055  0.00  0.00    +0.021 C 
ENDBRANCH   1   2
BRANCH   1  13
ATOM     13  C   UNL     1       1.371   6.386  -9.413  0.00  0.00    +0.072 C 
BRANCH  13  15
ATOM     14  C   UNL     1       0.011   5.268  -9.618  0.00  0.00    +0.001 C 
ATOM     15  C   UNL     1       0.225   5.378  -9.333  0.00  0.00    +0.017 C 
ENDBRANCH  13  15
ENDBRANCH   1  13
BRANCH   1  16
ATOM     16  C   UNL     1       1.795   7.429  -7.263  0.00  0.00    +0.077 C 
BRANCH  16  17
ATOM     17  C   UNL     1       1.441   6.784  -5.966  0.00  0.00    +0.050 C 
BRANCH  17  18
ATOM     18  C   UNL     1       2.561   6.754  -4.992  0.00  0.00    +0.009 A 
ATOM     19  S   UNL     1       2.774   5.740  -3.624  0.00  0.00    -0.091 S 
ATOM     20  C   UNL     1       4.312   6.301  -3.107  0.00  0.00    +0.035 A 
ATOM     21  C   UNL     1       4.432   7.443  -3.893  0.00  0.00    +0.007 A 
ATOM     22  C   UNL     1       3.854   7.245  -5.128  0.00  0.00    +0.003 A 
ENDBRANCH  17  18
ENDBRANCH  16  17
ENDBRANCH   1  16
TORSDOF 6
ENDMDL
MODEL 5
REMARK VINA RESULT:      -7.6      3.324      7.482
REMARK  Name = 
REMARK  6 active torsions:
REMARK  status: ('A' for Active; 'I' for Inactive)
REMARK    1  A    between atoms: C_2  and  C_3
REMARK    2  A    between atoms: C_3  and  N_4
REMARK    3  A    between atoms: N_4  and  C_5
REMARK    4  A    between atoms: N_4  and  C_12
REMARK    5  A    between atoms: C_5  and  C_6
REMARK    6  A    between atoms: C_6  and  C_7
REMARK                            x       y       z     vdW  Elec       q    Type
REMARK                         _______ _______ _______ _____ _____    ______ ____
ROOT
ATOM      1  N   UNL     1       1.186   5.363  -7.783  0.00  0.00    -0.273 NA
ENDROOT
BRANCH   1   2
ATOM      2  C   UNL     1       0.210   5.293  -6.560  0.00  0.00    +0.062 C 
ATOM      3  C   UNL     1       0.481   6.837  -6.062  0.00  0.00    +0.042 C 
ATOM      4  C   UNL     1      -0.449   6.860  -4.884  0.00  0.00    -0.022 A 
ATOM      5  C   UNL     1      -0.329   5.728  -4.084  0.00  0.00    +0.013 A 
ATOM      6  C   UNL     1      -1.140   5.639  -2.971  0.00  0.00    +0.191 A 
ATOM      7  C   UNL     1      -2.399   6.187  -3.043  0.00  0.00    +0.042 A 
ATOM      8  C   UNL     1      -2.729   6.958  -4.150  0.00  0.00    +0.003 A 
ATOM      9  O   UNL     1      -0.676   5.019  -1.806  0.00  0.00    -0.287 OA
ATOM     10  C   UNL     1       0.910   4.927  -4.171  0.00  0.00    +0.031 C 
ATOM     11  C   UNL     1      -1.758   7.283  -5.089  0.00  0.00    -0.004 A 
ATOM     12  C   UNL     1       1.380   4.692  -5.574  0.00  0.00    +0.021 C 
ENDBRANCH   1   2
BRANCH   1  13
ATOM     13  C   UNL     1       0.578   5.382  -8.987  0.00  0.00    +0.072 C 
BRANCH  13  15
ATOM     14  C   UNL     1       0.761   6.646 -10.216  0.00  0.00    +0.001 C 
ATOM     15  C   UNL     1       0.699   6.638  -9.848  0.00  0.00    +0.017 C 
ENDBRANCH  13  15
ENDBRANCH   1  13
BRANCH   1  16
ATOM     16  C   UNL     1       2.317   4.575  -7.499  0.00  0.00    +0.077 C 
BRANCH  16  17
ATOM     17  C   UNL     1       3.001   3.939  -8.661  0.00  0.00    +0.050 C 
BRANCH  17  18
ATOM     18  C   UNL     1       4.167   4.711  -9.160  0.00  0.00    +0.009 A 
ATOM     19  S   UNL     1       4.400   5.442 -10.695  0.00  0.00    -0.091 S 
ATOM     20  C   UNL     1       5.935   6.163 -10.422  0.00  0.00    +0.035 A 
ATOM     21  C   UNL     1       6.284   5.547  -9.225  0.00  0.00    +0.007 A 
ATOM     22  C   UNL     1       5.170   5.348  -8.438  0.00  0.00    +0.003 A 
ENDBRANCH  17  18
ENDBRANCH  16  17
ENDBRANCH   1  16
TORSDOF 6
ENDMDL
MODEL 6
REMARK VINA RESULT:      -7.5      1.752      2.367
REMARK  Name = 
REMARK  6 active torsions:
REMARK  status: ('A' for Active; 'I' for Inactive)
REMARK    1  A    between atoms: C_2  and  C_3
REMARK    2  A    between atoms: C_3  and  N_4
REMARK    3  A    between atoms: N_4  and  C_5
REMARK    4  A    between atoms: N_4  and  C_12
REMARK    5  A    between atoms: C_5  and  C_6
REMARK    6  A    between atoms: C_6  and  C_7
REMARK                            x       y       z     vdW  Elec       q    Type
REMARK                         _______ _______ _______ _____ _____    ______ ____
ROOT
ATOM      1  N   UNL     1       2.291   5.797 -10.291  0.00  0.00    -0.273 NA
ENDROOT
BRANCH   1   2
ATOM      2  C   UNL     1       3.759   5.361 -10.619  0.00  0.00    +0.062 C 
ATOM      3  C   UNL     1       4.376   6.885 -10.599  0.00  0.00    +0.042 C 
ATOM      4  C   UNL     1       5.810   6.552 -10.889  0.00  0.00    -0.022 A 
ATOM      5  C   UNL     1       5.949   5.645 -11.935  0.00  0.00    +0.013 A 
ATOM      6  C   UNL     1       7.226   5.262 -12.288  0.00  0.00    +0.191 A 
ATOM      7  C   UNL     1       8.173   5.174 -11.295  0.00  0.00    +0.042 A 
ATOM      8  C   UNL     1       7.856   5.646 -10.028  0.00  0.00    +0.003 A 
ATOM      9  O   UNL     1       7.539   4.987 -13.624  0.00  0.00    -0.287 OA
ATOM     10  C   UNL     1       4.832   5.490 -12.891  0.00  0.00    +0.031 C 
ATOM     11  C   UNL     1       6.661   6.322  -9.813  0.00  0.00    -0.004 A 
ATOM     12  C   UNL     1       3.485   5.414 -12.238  0.00  0.00    +0.021 C 
ENDBRANCH   1   2
BRANCH   1  13
ATOM     13  C   UNL     1       1.552   6.137 -11.367  0.00  0.00    +0.072 C 
BRANCH  13  15
ATOM     14  C   UNL     1      -0.017   5.318 -11.270  0.00  0.00    +0.001 C 
ATOM     15  C   UNL     1       0.134   5.582 -11.487  0.00  0.00    +0.017 C 
ENDBRANCH  13  15
ENDBRANCH   1  13
BRANCH   1  16
ATOM     16  C   UNL     1       2.299   6.536  -9.092  0.00  0.00    +0.077 C 
BRANCH  16  17
ATOM     17  C   UNL     1       2.231   5.758  -7.823  0.00  0.00    +0.050 C 
BRANCH  17  18
ATOM     18  C   UNL     1       0.889   5.775  -7.187  0.00  0.00    +0.009 A 
ATOM     19  S   UNL     1       0.407   6.492  -5.704  0.00  0.00    -0.091 S 
ATOM     20  C   UNL     1      -1.267   6.113  -5.751  0.00  0.00    +0.035 A 
ATOM     21  C   UNL     1      -1.282   5.207  -6.807  0.00  0.00    +0.007 A 
ATOM     22  C   UNL     1      -0.357   5.561  -7.764  0.00  0.00    +0.003 A 
ENDBRANCH  17  18
ENDBRANCH  16  17
ENDBRANCH   1  16
TORSDOF 6
ENDMDL
MODEL 7
REMARK VINA RESULT:      -7.5      2.940      5.228
REMARK  Name = 
REMARK  6 active torsions:
REMARK  status: ('A' for Active; 'I' for Inactive)
REMARK    1  A    between atoms: C_2  and  C_3
REMARK    2  A    between atoms: C_3  and  N_4
REMARK    3  A    between atoms: N_4  and  C_5
REMARK    4  A    between atoms: N_4  and  C_12
REMARK    5  A    between atoms: C_5  and  C_6
REMARK    6  A    between atoms: C_6  and  C_7
REMARK                            x       y       z     vdW  Elec       q    Type
REMARK                         _______ _______ _______ _____ _____    ______ ____
ROOT
ATOM      1  N   UNL     1       0.026   5.946  -4.915  0.00  0.00    -0.273 NA
ENDROOT
BRANCH   1   2
ATOM      2  C   UNL     1       0.807   5.469  -6.186  0.00  0.00    +0.062 C 
ATOM      3  C   UNL     1       1.273   6.977  -6.650  0.00  0.00    +0.042 C 
ATOM      4  C   UNL     1       2.059   6.603  -7.873  0.00  0.00    -0.022 A 
ATOM      5  C   UNL     1       1.392   5.687  -8.681  0.00  0.00    +0.013 A 
ATOM      6  C   UNL     1       2.023   5.267  -9.833  0.00  0.00    +0.191 A 
ATOM      7  C   UNL     1       3.394   5.160  -9.818  0.00  0.00    +0.042 A 
ATOM      8  C   UNL     1       4.089   5.647  -8.719  0.00  0.00    +0.003 A 
ATOM      9  O   UNL     1       1.278   4.977 -10.981  0.00  0.00    -0.287 OA
ATOM     10  C   UNL     1      -0.074   5.557  -8.542  0.00  0.00    +0.031 C 
ATOM     11  C   UNL     1       3.420   6.356  -7.728  0.00  0.00    -0.004 A 
ATOM     12  C   UNL     1      -0.545   5.521  -7.119  0.00  0.00    +0.021 C 
ENDBRANCH   1   2
BRANCH   1  13
ATOM     13  C   UNL     1      -0.352   7.241  -4.941  0.00  0.00    +0.072 C 
BRANCH  13  15
ATOM     14  C   UNL     1      -1.890   7.944  -4.410  0.00  0.00    +0.001 C 
ATOM     15  C   UNL     1      -1.765   7.600  -4.482  0.00  0.00    +0.017 C 
ENDBRANCH  13  15
ENDBRANCH   1  13
BRANCH   1  16
ATOM     16  C   UNL     1       0.589   5.326  -3.783  0.00  0.00    +0.077 C 
BRANCH  16  17
ATOM     17  C   UNL     1       1.355   6.201  -2.850  0.00  0.00    +0.050 C 
BRANCH  17  18
ATOM     18  C   UNL     1       2.773   6.397  -3.248  0.00  0.00    +0.009 A 
ATOM     19  S   UNL     1       3.798   7.743  -2.962  0.00  0.00    -0.091 S 
ATOM     20  C   UNL     1       5.240   7.142  -3.673  0.00  0.00    +0.035 A 
ATOM     21  C   UNL     1       4.740   6.024  -4.332  0.00  0.00    +0.007 A 
ATOM     22  C   UNL     1       3.723   5.446  -3.605  0.00  0.00    +0.003 A 
ENDBRANCH  17  18
ENDBRANCH  16  17
ENDBRANCH   1  16
TORSDOF 6
ENDMDL
MODEL 8
REMARK VINA RESULT:      -7.3      2.245      4.106
REMARK  Name = 
REMARK  6 active torsions:
REMARK  status: ('A' for Active; 'I' for Inactive)
REMARK    1  A    between atoms: C_2  and  C_3
REMARK    2  A    between atoms: C_3  and  N_4
REMARK    3  A    between atoms: N_4  and  C_5
REMARK    4  A    between atoms: N_4  and  C_12
REMARK    5  A    between atoms: C_5  and  C_6
REMARK    6  A    between atoms: C_6  and  C_7
REMARK                            x       y       z     vdW  Elec       q    Type
REMARK                         _______ _______ _______ _____ _____    ______ ____
ROOT
ATOM      1  N   UNL     1       2.758   5.820  -6.447  0.00  0.00    -0.273 NA
ENDROOT
BRANCH   1   2
ATOM      2  C   UNL     1       2.398   6.141  -7.937  0.00  0.00    +0.062 C 
ATOM      3  C   UNL     1       1.972   4.601  -8.324  0.00  0.00    +0.042 C 
ATOM      4  C   UNL     1       1.587   4.827  -9.757  0.00  0.00    -0.022 A 
ATOM      5  C   UNL     1       2.517   5.597 -10.447  0.00  0.00    +0.013 A 
ATOM      6  C   UNL     1       2.265   5.874 -11.775  0.00  0.00    +0.191 A 
ATOM      7  C   UNL     1       0.956   6.029 -12.166  0.00  0.00    +0.042 A 
ATOM      8  C   UNL     1      -0.052   5.724 -11.260  0.00  0.00    +0.003 A 
ATOM      9  O   UNL     1       3.319   5.975 -12.689  0.00  0.00    -0.287 OA
ATOM     10  C   UNL     1       3.892   5.695  -9.912  0.00  0.00    +0.031 C 
ATOM     11  C   UNL     1       0.261   5.138 -10.039  0.00  0.00    -0.004 A 
ATOM     12  C   UNL     1       3.949   5.914  -8.431  0.00  0.00    +0.021 C 
ENDBRANCH   1   2
BRANCH   1  13
ATOM     13  C   UNL     1       4.067   5.938  -6.147  0.00  0.00    +0.072 C 
BRANCH  13  15
ATOM     14  C   UNL     1       4.255   7.124  -4.843  0.00  0.00    +0.001 C 
ATOM     15  C   UNL     1       4.485   6.946  -5.077  0.00  0.00    +0.017 C 
ENDBRANCH  13  15
ENDBRANCH   1  13
BRANCH   1  16
ATOM     16  C   UNL     1       1.958   4.744  -6.015  0.00  0.00    +0.077 C 
BRANCH  16  17
ATOM     17  C   UNL     1       1.091   4.987  -4.827  0.00  0.00    +0.050 C 
BRANCH  17  18
ATOM     18  C   UNL     1      -0.239   5.556  -5.168  0.00  0.00    +0.009 A 
ATOM     19  S   UNL     1      -1.065   6.876  -4.446  0.00  0.00    -0.091 S 
ATOM     20  C   UNL     1      -2.457   6.905  -5.451  0.00  0.00    +0.035 A 
ATOM     21  C   UNL     1      -2.303   5.694  -6.117  0.00  0.00    +0.007 A 
ATOM     22  C   UNL     1      -0.970   5.431  -6.344  0.00  0.00    +0.003 A 
ENDBRANCH  17  18
ENDBRANCH  16  17
ENDBRANCH   1  16
TORSDOF 6
ENDMDL
MODEL 9
REMARK VINA RESULT:      -7.3      2.504      4.293
REMARK  Name = 
REMARK  6 active torsions:
REMARK  status: ('A' for Active; 'I' for Inactive)
REMARK    1  A    between atoms: C_2  and  C_3
REMARK    2  A    between atoms: C_3  and  N_4
REMARK    3  A    between atoms: N_4  and  C_5
REMARK    4  A    between atoms: N_4  and  C_12
REMARK    5  A    between atoms: C_5  and  C_6
REMARK    6  A    between atoms: C_6  and  C_7
REMARK                            x       y       z     vdW  Elec       q    Type
REMARK                         _______ _______ _______ _____ _____    ______ ____
ROOT
ATOM      1  N   UNL     1       0.269   5.526  -6.868  0.00  0.00    -0.273 NA
ENDROOT
BRANCH   1   2
ATOM      2  C   UNL     1       1.274   5.297  -8.046  0.00  0.00    +0.062 C 
ATOM      3  C   UNL     1       1.790   6.858  -8.108  0.00  0.00    +0.042 C 
ATOM      4  C   UNL     1       2.790   6.720  -9.220  0.00  0.00    -0.022 A 
ATOM      5  C   UNL     1       2.295   5.997 -10.300  0.00  0.00    +0.013 A 
ATOM      6  C   UNL     1       3.130   5.804 -11.381  0.00  0.00    +0.191 A 
ATOM      7  C   UNL     1       4.478   5.669 -11.141  0.00  0.00    +0.042 A 
ATOM      8  C   UNL     1       4.955   5.914  -9.860  0.00  0.00    +0.003 A 
ATOM      9  O   UNL     1       2.610   5.763 -12.679  0.00  0.00    -0.287 OA
ATOM     10  C   UNL     1       0.831   5.871 -10.456  0.00  0.00    +0.031 C 
ATOM     11  C   UNL     1       4.107   6.423  -8.884  0.00  0.00    -0.004 A 
ATOM     12  C   UNL     1       0.112   5.560  -9.178  0.00  0.00    +0.021 C 
ENDBRANCH   1   2
BRANCH   1  13
ATOM     13  C   UNL     1      -1.031   5.411  -7.208  0.00  0.00    +0.072 C 
BRANCH  13  15
ATOM     14  C   UNL     1      -2.459   5.577  -6.171  0.00  0.00    +0.001 C 
ATOM     15  C   UNL     1      -2.091   5.613  -6.125  0.00  0.00    +0.017 C 
ENDBRANCH  13  15
ENDBRANCH   1  13
BRANCH   1  16
ATOM     16  C   UNL     1       0.767   6.557  -6.048  0.00  0.00    +0.077 C 
BRANCH  16  17
ATOM     17  C   UNL     1       1.250   6.164  -4.694  0.00  0.00    +0.050 C 
BRANCH  17  18
ATOM     18  C   UNL     1       2.605   6.681  -4.373  0.00  0.00    +0.009 A 
ATOM     19  S   UNL     1       3.211   7.267  -2.878  0.00  0.00    -0.091 S 
ATOM     20  C   UNL     1       4.830   7.590  -3.350  0.00  0.00    +0.035 A 
ATOM     21  C   UNL     1       4.711   7.469  -4.731  0.00  0.00    +0.007 A 
ATOM     22  C   UNL     1       3.801   6.487  -5.056  0.00  0.00    +0.003 A 
ENDBRANCH  17  18
ENDBRANCH  16  17
ENDBRANCH   1  16
TORSDOF 6
ENDMDL
