MODEL 1
REMARK VINA RESULT:      -6.1      0.000      0.000
REMARK  Name = 
REMARK  4 active torsions:
REMARK  status: ('A' for Active; 'I' for Inactive)
REMARK    1  A    between atoms: C_2  and  N_5
REMARK    2  A    between atoms: N_5  and  C_6
REMARK    3  A    between atoms: C_6  and  C_7
REMARK    4  A    between atoms: C_7  and  C_9
REMARK                            x       y       z     vdW  Elec       q    Type
REMARK                         _______ _______ _______ _____ _____    ______ ____
ROOT
ATOM      1  C   UNL     1       3.519   5.867  -9.450  0.00  0.00    +0.192 C 
ATOM      2  O   UNL     1       3.925   4.394  -9.404  0.00  0.00    -0.217 OA
ENDROOT
BRANCH   1   3
ATOM      3  C   UNL     1       4.991   6.343  -9.928  0.00  0.00    +0.015 A 
ATOM      4  C   UNL     1       5.995   5.693  -9.290  0.00  0.00    +0.040 A 
ATOM      5  C   UNL     1       7.270   5.873  -9.807  0.00  0.00    +0.199 A 
ATOM      6  O   UNL     1       8.240   4.935  -9.460  0.00  0.00    -0.286 OA
ATOM      7  C   UNL     1       7.444   6.753 -10.866  0.00  0.00    +0.084 A 
ATOM      8  C   UNL     1       6.401   7.550 -11.283  0.00  0.00    +0.199 A 
ATOM      9  O   UNL     1       6.582   8.277 -12.451  0.00  0.00    -0.286 OA
ATOM     10  C   UNL     1       5.139   7.372 -10.734  0.00  0.00    +0.040 A 
ENDBRANCH   1   3
BRANCH   1  11
ATOM     11  C   UNL     1       2.858   5.684 -10.977  0.00  0.00    +0.126 C 
BRANCH  11  12
ATOM     12  N   UNL     1       1.686   6.252 -10.604  0.00  0.00    -0.218 NA
BRANCH  12  14
ATOM     13  C   UNL     1       0.365   4.613 -11.148  0.00  0.00    +0.017 C 
ATOM     14  C   UNL     1       0.432   5.714 -10.445  0.00  0.00    +0.060 C 
ATOM     15  C   UNL     1      -0.439   6.809 -11.077  0.00  0.00    +0.017 C 
ATOM     16  C   UNL     1      -0.104   5.559  -9.037  0.00  0.00    +0.017 C 
ENDBRANCH  12  14
ENDBRANCH  11  12
ENDBRANCH   1  11
TORSDOF 4
ENDMDL
MODEL 2
REMARK VINA RESULT:      -6.1      2.855      6.305
REMARK  Name = 
REMARK  4 active torsions:
REMARK  status: ('A' for Active; 'I' for Inactive)
REMARK    1  A    between atoms: C_2  and  N_5
REMARK    2  A    between atoms: N_5  and  C_6
REMARK    3  A    between atoms: C_6  and  C_7
REMARK    4  A    between atoms: C_7  and  C_9
REMARK                            x       y       z     vdW  Elec       q    Type
REMARK                         _______ _______ _______ _____ _____    ______ ____
ROOT
ATOM      1  C   UNL     1       4.528   5.906 -12.898  0.00  0.00    +0.192 C 
ATOM      2  O   UNL     1       4.797   4.501 -13.439  0.00  0.00    -0.217 OA
ENDROOT
BRANCH   1   3
ATOM      3  C   UNL     1       2.938   5.634 -12.751  0.00  0.00    +0.015 A 
ATOM      4  C   UNL     1       2.383   5.101 -13.866  0.00  0.00    +0.040 A 
ATOM      5  C   UNL     1       1.086   4.624 -13.740  0.00  0.00    +0.199 A 
ATOM      6  O   UNL     1       0.638   3.724 -14.704  0.00  0.00    -0.286 OA
ATOM      7  C   UNL     1       0.425   4.797 -12.532  0.00  0.00    +0.084 A 
ATOM      8  C   UNL     1       0.987   5.569 -11.540  0.00  0.00    +0.199 A 
ATOM      9  O   UNL     1       0.367   5.562 -10.298  0.00  0.00    -0.286 OA
ATOM     10  C   UNL     1       2.276   6.059 -11.697  0.00  0.00    +0.040 A 
ENDBRANCH   1   3
BRANCH   1  11
ATOM     11  C   UNL     1       4.959   5.442 -11.349  0.00  0.00    +0.126 C 
BRANCH  11  12
ATOM     12  N   UNL     1       6.280   5.469 -11.643  0.00  0.00    -0.218 NA
BRANCH  12  14
ATOM     13  C   UNL     1       8.378   6.001 -11.853  0.00  0.00    +0.017 C 
ATOM     14  C   UNL     1       7.296   6.262 -11.166  0.00  0.00    +0.060 C 
ATOM     15  C   UNL     1       7.431   5.732  -9.731  0.00  0.00    +0.017 C 
ATOM     16  C   UNL     1       7.029   7.744 -11.007  0.00  0.00    +0.017 C 
ENDBRANCH  12  14
ENDBRANCH  11  12
ENDBRANCH   1  11
TORSDOF 4
ENDMDL
MODEL 3
REMARK VINA RESULT:      -6.0      3.047      5.897
REMARK  Name = 
REMARK  4 active torsions:
REMARK  status: ('A' for Active; 'I' for Inactive)
REMARK    1  A    between atoms: C_2  and  N_5
REMARK    2  A    between atoms: N_5  and  C_6
REMARK    3  A    between atoms: C_6  and  C_7
REMARK    4  A    between atoms: C_7  and  C_9
REMARK                            x       y       z     vdW  Elec       q    Type
REMARK                         _______ _______ _______ _____ _____    ______ ____
ROOT
ATOM      1  C   UNL     1       4.090   6.141  -9.102  0.00  0.00    +0.192 C 
ATOM      2  O   UNL     1       3.499   4.977  -9.897  0.00  0.00    -0.217 OA
ENDROOT
BRANCH   1   3
ATOM      3  C   UNL     1       3.729   5.460  -7.677  0.00  0.00    +0.015 A 
ATOM      4  C   UNL     1       4.635   5.737  -6.709  0.00  0.00    +0.040 A 
ATOM      5  C   UNL     1       4.278   5.391  -5.414  0.00  0.00    +0.199 A 
ATOM      6  O   UNL     1       4.966   6.009  -4.372  0.00  0.00    -0.286 OA
ATOM      7  C   UNL     1       3.080   4.721  -5.208  0.00  0.00    +0.084 A 
ATOM      8  C   UNL     1       2.346   4.268  -6.282  0.00  0.00    +0.199 A 
ATOM      9  O   UNL     1       1.079   3.765  -6.023  0.00  0.00    -0.286 OA
ATOM     10  C   UNL     1       2.736   4.604  -7.571  0.00  0.00    +0.040 A 
ENDBRANCH   1   3
BRANCH   1  11
ATOM     11  C   UNL     1       5.635   5.514  -9.243  0.00  0.00    +0.126 C 
BRANCH  11  12
ATOM     12  N   UNL     1       5.827   6.098 -10.449  0.00  0.00    -0.218 NA
BRANCH  12  14
ATOM     13  C   UNL     1       7.829   6.848 -10.054  0.00  0.00    +0.017 C 
ATOM     14  C   UNL     1       6.937   6.693 -10.999  0.00  0.00    +0.060 C 
ATOM     15  C   UNL     1       6.362   8.052 -11.423  0.00  0.00    +0.017 C 
ATOM     16  C   UNL     1       7.508   6.101 -12.270  0.00  0.00    +0.017 C 
ENDBRANCH  12  14
ENDBRANCH  11  12
ENDBRANCH   1  11
TORSDOF 4
ENDMDL
MODEL 4
REMARK VINA RESULT:      -6.0      0.415      2.345
REMARK  Name = 
REMARK  4 active torsions:
REMARK  status: ('A' for Active; 'I' for Inactive)
REMARK    1  A    between atoms: C_2  and  N_5
REMARK    2  A    between atoms: N_5  and  C_6
REMARK    3  A    between atoms: C_6  and  C_7
REMARK    4  A    between atoms: C_7  and  C_9
REMARK                            x       y       z     vdW  Elec       q    Type
REMARK                         _______ _______ _______ _____ _____    ______ ____
ROOT
ATOM      1  C   UNL     1       3.341   6.072  -9.486  0.00  0.00    +0.192 C 
ATOM      2  O   UNL     1       3.511   4.566  -9.287  0.00  0.00    -0.217 OA
ENDROOT
BRANCH   1   3
ATOM      3  C   UNL     1       4.874   6.264  -9.975  0.00  0.00    +0.015 A 
ATOM      4  C   UNL     1       5.034   7.300 -10.834  0.00  0.00    +0.040 A 
ATOM      5  C   UNL     1       6.341   7.674 -11.110  0.00  0.00    +0.199 A 
ATOM      6  O   UNL     1       6.546   8.947 -11.637  0.00  0.00    -0.286 OA
ATOM      7  C   UNL     1       7.378   6.926 -10.571  0.00  0.00    +0.084 A 
ATOM      8  C   UNL     1       7.111   5.747  -9.912  0.00  0.00    +0.199 A 
ATOM      9  O   UNL     1       8.164   5.137  -9.245  0.00  0.00    -0.286 OA
ATOM     10  C   UNL     1       5.796   5.378  -9.668  0.00  0.00    +0.040 A 
ENDBRANCH   1   3
BRANCH   1  11
ATOM     11  C   UNL     1       2.670   5.844 -11.002  0.00  0.00    +0.126 C 
BRANCH  11  12
ATOM     12  N   UNL     1       1.501   6.421 -10.638  0.00  0.00    -0.218 NA
BRANCH  12  14
ATOM     13  C   UNL     1      -0.552   6.965 -11.104  0.00  0.00    +0.017 C 
ATOM     14  C   UNL     1       0.206   5.970 -10.722  0.00  0.00    +0.060 C 
ATOM     15  C   UNL     1      -0.076   5.613  -9.255  0.00  0.00    +0.017 C 
ATOM     16  C   UNL     1      -0.055   4.690 -11.487  0.00  0.00    +0.017 C 
ENDBRANCH  12  14
ENDBRANCH  11  12
ENDBRANCH   1  11
TORSDOF 4
ENDMDL
MODEL 5
REMARK VINA RESULT:      -6.0      4.673      6.764
REMARK  Name = 
REMARK  4 active torsions:
REMARK  status: ('A' for Active; 'I' for Inactive)
REMARK    1  A    between atoms: C_2  and  N_5
REMARK    2  A    between atoms: N_5  and  C_6
REMARK    3  A    between atoms: C_6  and  C_7
REMARK    4  A    between atoms: C_7  and  C_9
REMARK                            x       y       z     vdW  Elec       q    Type
REMARK                         _______ _______ _______ _____ _____    ______ ____
ROOT
ATOM      1  C   UNL     1       0.973   5.136  -4.610  0.00  0.00    +0.192 C 
ATOM      2  O   UNL     1      -0.353   5.863  -4.838  0.00  0.00    -0.217 OA
ENDROOT
BRANCH   1   3
ATOM      3  C   UNL     1       1.481   5.415  -6.123  0.00  0.00    +0.015 A 
ATOM      4  C   UNL     1       1.304   6.699  -6.516  0.00  0.00    +0.040 A 
ATOM      5  C   UNL     1       1.924   7.070  -7.701  0.00  0.00    +0.199 A 
ATOM      6  O   UNL     1       2.114   8.432  -7.925  0.00  0.00    -0.286 OA
ATOM      7  C   UNL     1       2.598   6.103  -8.434  0.00  0.00    +0.084 A 
ATOM      8  C   UNL     1       2.511   4.777  -8.075  0.00  0.00    +0.199 A 
ATOM      9  O   UNL     1       3.342   3.882  -8.734  0.00  0.00    -0.286 OA
ATOM     10  C   UNL     1       1.864   4.424  -6.899  0.00  0.00    +0.040 A 
ENDBRANCH   1   3
BRANCH   1  11
ATOM     11  C   UNL     1       1.653   6.497  -3.912  0.00  0.00    +0.126 C 
BRANCH  11  12
ATOM     12  N   UNL     1       2.779   5.829  -3.566  0.00  0.00    -0.218 NA
BRANCH  12  14
ATOM     13  C   UNL     1       4.752   5.036  -4.020  0.00  0.00    +0.017 C 
ATOM     14  C   UNL     1       4.105   6.140  -3.748  0.00  0.00    +0.060 C 
ATOM     15  C   UNL     1       4.481   6.651  -2.350  0.00  0.00    +0.017 C 
ATOM     16  C   UNL     1       4.449   7.281  -4.682  0.00  0.00    +0.017 C 
ENDBRANCH  12  14
ENDBRANCH  11  12
ENDBRANCH   1  11
TORSDOF 4
ENDMDL
MODEL 6
REMARK VINA RESULT:      -6.0      6.424      9.134
REMARK  Name = 
REMARK  4 active torsions:
REMARK  status: ('A' for Active; 'I' for Inactive)
REMARK    1  A    between atoms: C_2  and  N_5
REMARK    2  A    between atoms: N_5  and  C_6
REMARK    3  A    between atoms: C_6  and  C_7
REMARK    4  A    between atoms: C_7  and  C_9
REMARK                            x       y       z     vdW  Elec       q    Type
REMARK                         _______ _______ _______ _____ _____    ______ ____
ROOT
ATOM      1  C   UNL     1       1.422   5.904  -5.161  0.00  0.00    +0.192 C 
ATOM      2  O   UNL     1       0.997   4.461  -5.433  0.00  0.00    -0.217 OA
ENDROOT
BRANCH   1   3
ATOM      3  C   UNL     1      -0.055   6.332  -4.651  0.00  0.00    +0.015 A 
ATOM      4  C   UNL     1      -0.699   5.339  -3.991  0.00  0.00    +0.040 A 
ATOM      5  C   UNL     1      -1.861   5.697  -3.324  0.00  0.00    +0.199 A 
ATOM      6  O   UNL     1      -2.317   4.840  -2.325  0.00  0.00    -0.286 OA
ATOM      7  C   UNL     1      -2.326   7.000  -3.443  0.00  0.00    +0.084 A 
ATOM      8  C   UNL     1      -1.734   7.867  -4.334  0.00  0.00    +0.199 A 
ATOM      9  O   UNL     1      -2.123   9.198  -4.282  0.00  0.00    -0.286 OA
ATOM     10  C   UNL     1      -0.587   7.480  -5.011  0.00  0.00    +0.040 A 
ENDBRANCH   1   3
BRANCH   1  11
ATOM     11  C   UNL     1       2.042   5.488  -3.663  0.00  0.00    +0.126 C 
BRANCH  11  12
ATOM     12  N   UNL     1       2.907   6.531  -3.664  0.00  0.00    -0.218 NA
BRANCH  12  14
ATOM     13  C   UNL     1       4.738   5.360  -3.716  0.00  0.00    +0.017 C 
ATOM     14  C   UNL     1       4.275   6.570  -3.540  0.00  0.00    +0.060 C 
ATOM     15  C   UNL     1       4.424   6.995  -2.072  0.00  0.00    +0.017 C 
ATOM     16  C   UNL     1       5.031   7.622  -4.325  0.00  0.00    +0.017 C 
ENDBRANCH  12  14
ENDBRANCH  11  12
ENDBRANCH   1  11
TORSDOF 4
ENDMDL
MODEL 7
REMARK VINA RESULT:      -6.0      2.356      5.868
REMARK  Name = 
REMARK  4 active torsions:
REMARK  status: ('A' for Active; 'I' for Inactive)
REMARK    1  A    between atoms: C_2  and  N_5
REMARK    2  A    between atoms: N_5  and  C_6
REMARK    3  A    between atoms: C_6  and  C_7
REMARK    4  A    between atoms: C_7  and  C_9
REMARK                            x       y       z     vdW  Elec       q    Type
REMARK                         _______ _______ _______ _____ _____    ______ ____
ROOT
ATOM      1  C   UNL     1       4.017   5.183 -10.094  0.00  0.00    +0.192 C 
ATOM      2  O   UNL     1       4.125   6.251  -9.006  0.00  0.00    -0.217 OA
ENDROOT
BRANCH   1   3
ATOM      3  C   UNL     1       2.468   5.537 -10.405  0.00  0.00    +0.015 A 
ATOM      4  C   UNL     1       1.619   5.112  -9.438  0.00  0.00    +0.040 A 
ATOM      5  C   UNL     1       0.316   5.581  -9.514  0.00  0.00    +0.199 A 
ATOM      6  O   UNL     1      -0.459   5.513  -8.357  0.00  0.00    -0.286 OA
ATOM      7  C   UNL     1      -0.050   6.367 -10.598  0.00  0.00    +0.084 A 
ATOM      8  C   UNL     1       0.819   6.539 -11.652  0.00  0.00    +0.199 A 
ATOM      9  O   UNL     1       0.471   7.472 -12.619  0.00  0.00    -0.286 OA
ATOM     10  C   UNL     1       2.111   6.039 -11.567  0.00  0.00    +0.040 A 
ENDBRANCH   1   3
BRANCH   1  11
ATOM     11  C   UNL     1       4.694   6.206 -11.232  0.00  0.00    +0.126 C 
BRANCH  11  12
ATOM     12  N   UNL     1       5.927   5.672 -11.067  0.00  0.00    -0.218 NA
BRANCH  12  14
ATOM     13  C   UNL     1       7.559   6.075  -9.688  0.00  0.00    +0.017 C 
ATOM     14  C   UNL     1       7.157   6.267 -10.918  0.00  0.00    +0.060 C 
ATOM     15  C   UNL     1       6.797   7.743 -11.141  0.00  0.00    +0.017 C 
ATOM     16  C   UNL     1       8.223   5.968 -11.951  0.00  0.00    +0.017 C 
ENDBRANCH  12  14
ENDBRANCH  11  12
ENDBRANCH   1  11
TORSDOF 4
ENDMDL
MODEL 8
REMARK VINA RESULT:      -5.9      4.972      8.317
REMARK  Name = 
REMARK  4 active torsions:
REMARK  status: ('A' for Active; 'I' for Inactive)
REMARK    1  A    between atoms: C_2  and  N_5
REMARK    2  A    between atoms: N_5  and  C_6
REMARK    3  A    between atoms: C_6  and  C_7
REMARK    4  A    between atoms: C_7  and  C_9
REMARK                            x       y       z     vdW  Elec       q    Type
REMARK                         _______ _______ _______ _____ _____    ______ ____
ROOT
ATOM      1  C   UNL     1       1.611   5.202  -4.715  0.00  0.00    +0.192 C 
ATOM      2  O   UNL     1       1.885   6.670  -5.040  0.00  0.00    -0.217 OA
ENDROOT
BRANCH   1   3
ATOM      3  C   UNL     1       0.040   5.473  -4.429  0.00  0.00    +0.015 A 
ATOM      4  C   UNL     1      -0.634   5.912  -5.520  0.00  0.00    +0.040 A 
ATOM      5  C   UNL     1      -2.017   5.940  -5.419  0.00  0.00    +0.199 A 
ATOM      6  O   UNL     1      -2.745   5.983  -6.606  0.00  0.00    -0.286 OA
ATOM      7  C   UNL     1      -2.606   5.607  -4.207  0.00  0.00    +0.084 A 
ATOM      8  C   UNL     1      -1.826   5.413  -3.089  0.00  0.00    +0.199 A 
ATOM      9  O   UNL     1      -2.450   4.913  -1.955  0.00  0.00    -0.286 OA
ATOM     10  C   UNL     1      -0.443   5.415  -3.206  0.00  0.00    +0.040 A 
ENDBRANCH   1   3
BRANCH   1  11
ATOM     11  C   UNL     1       1.460   4.823  -6.338  0.00  0.00    +0.126 C 
BRANCH  11  12
ATOM     12  N   UNL     1       2.643   5.405  -6.646  0.00  0.00    -0.218 NA
BRANCH  12  14
ATOM     13  C   UNL     1       4.678   5.444  -7.412  0.00  0.00    +0.017 C 
ATOM     14  C   UNL     1       3.426   5.320  -7.772  0.00  0.00    +0.060 C 
ATOM     15  C   UNL     1       2.964   6.564  -8.545  0.00  0.00    +0.017 C 
ATOM     16  C   UNL     1       3.187   4.164  -8.721  0.00  0.00    +0.017 C 
ENDBRANCH  12  14
ENDBRANCH  11  12
ENDBRANCH   1  11
TORSDOF 4
ENDMDL
MODEL 9
REMARK VINA RESULT:      -5.9      4.109      5.547
REMARK  Name = 
REMARK  4 active torsions:
REMARK  status: ('A' for Active; 'I' for Inactive)
REMARK    1  A    between atoms: C_2  and  N_5
REMARK    2  A    between atoms: N_5  and  C_6
REMARK    3  A    between atoms: C_6  and  C_7
REMARK    4  A    between atoms: C_7  and  C_9
REMARK                            x       y       z     vdW  Elec       q    Type
REMARK                         _______ _______ _______ _____ _____    ______ ____
ROOT
ATOM      1  C   UNL     1       1.534   6.505  -4.609  0.00  0.00    +0.192 C 
ATOM      2  O   UNL     1       2.597   5.501  -4.163  0.00  0.00    -0.217 OA
ENDROOT
BRANCH   1   3
ATOM      3  C   UNL     1       2.151   6.620  -6.103  0.00  0.00    +0.015 A 
ATOM      4  C   UNL     1       3.434   6.193  -6.185  0.00  0.00    +0.040 A 
ATOM      5  C   UNL     1       3.951   6.038  -7.462  0.00  0.00    +0.199 A 
ATOM      6  O   UNL     1       5.081   5.235  -7.604  0.00  0.00    -0.286 OA
ATOM      7  C   UNL     1       3.168   6.403  -8.549  0.00  0.00    +0.084 A 
ATOM      8  C   UNL     1       1.972   7.056  -8.352  0.00  0.00    +0.199 A 
ATOM      9  O   UNL     1       1.155   7.237  -9.459  0.00  0.00    -0.286 OA
ATOM     10  C   UNL     1       1.485   7.224  -7.064  0.00  0.00    +0.040 A 
ENDBRANCH   1   3
BRANCH   1  11
ATOM     11  C   UNL     1       0.443   5.278  -4.932  0.00  0.00    +0.126 C 
BRANCH  11  12
ATOM     12  N   UNL     1      -0.593   5.982  -4.417  0.00  0.00    -0.218 NA
BRANCH  12  14
ATOM     13  C   UNL     1      -2.045   7.549  -4.817  0.00  0.00    +0.017 C 
ATOM     14  C   UNL     1      -1.837   6.263  -4.926  0.00  0.00    +0.060 C 
ATOM     15  C   UNL     1      -2.735   5.489  -3.950  0.00  0.00    +0.017 C 
ATOM     16  C   UNL     1      -2.189   5.713  -6.292  0.00  0.00    +0.017 C 
ENDBRANCH  12  14
ENDBRANCH  11  12
ENDBRANCH   1  11
TORSDOF 4
ENDMDL
