MODEL 1
REMARK VINA RESULT:      -4.4      0.000      0.000
REMARK  Name = 
REMARK  3 active torsions:
REMARK  status: ('A' for Active; 'I' for Inactive)
REMARK    1  A    between atoms: C_2  and  C_4
REMARK    2  A    between atoms: N_6  and  C_7
REMARK    3  A    between atoms: C_7  and  C_8
REMARK                            x       y       z     vdW  Elec       q    Type
REMARK                         _______ _______ _______ _____ _____    ______ ____
ROOT
ATOM      1  C   UNL     1       7.022   5.486 -12.165  0.00  0.00    +0.252 C 
ATOM      2  N   UNL     1       5.769   5.960 -12.675  0.00  0.00    -0.192 NA
ATOM      3  O   UNL     1       7.656   4.583 -12.724  0.00  0.00    -0.272 OA
ENDROOT
BRANCH   1   5
ATOM      4  C   UNL     1       7.093   5.855  -9.861  0.00  0.00    +0.022 C 
ATOM      5  C   UNL     1       7.760   6.464 -11.184  0.00  0.00    +0.136 C 
ATOM      6  S   UNL     1       6.476   7.886 -11.346  0.00  0.00    -0.073 S 
ENDBRANCH   1   5
BRANCH   2   7
ATOM      7  C   UNL     1       4.892   4.963 -13.257  0.00  0.00    +0.228 C 
BRANCH   7   8
ATOM      8  C   UNL     1       3.568   5.610 -13.501  0.00  0.00    +0.387 C 
ATOM      9  O   UNL     1       2.853   6.177 -12.455  0.00  0.00    -0.244 OA
ATOM     10  O   UNL     1       2.947   5.303 -14.560  0.00  0.00    -0.244 OA
ENDBRANCH   7   8
ENDBRANCH   2   7
TORSDOF 3
ENDMDL
MODEL 2
REMARK VINA RESULT:      -4.3      7.985      8.954
REMARK  Name = 
REMARK  3 active torsions:
REMARK  status: ('A' for Active; 'I' for Inactive)
REMARK    1  A    between atoms: C_2  and  C_4
REMARK    2  A    between atoms: N_6  and  C_7
REMARK    3  A    between atoms: C_7  and  C_8
REMARK                            x       y       z     vdW  Elec       q    Type
REMARK                         _______ _______ _______ _____ _____    ______ ____
ROOT
ATOM      1  C   UNL     1      -0.061   5.547  -5.385  0.00  0.00    +0.252 C 
ATOM      2  N   UNL     1       0.300   6.477  -6.414  0.00  0.00    -0.192 NA
ATOM      3  O   UNL     1       0.791   4.938  -4.725  0.00  0.00    -0.272 OA
ENDROOT
BRANCH   1   5
ATOM      4  C   UNL     1      -2.216   5.713  -6.267  0.00  0.00    +0.022 C 
ATOM      5  C   UNL     1      -1.519   5.698  -4.825  0.00  0.00    +0.136 C 
ATOM      6  S   UNL     1      -1.459   7.614  -4.678  0.00  0.00    -0.073 S 
ENDBRANCH   1   5
BRANCH   2   7
ATOM      7  C   UNL     1       1.462   6.137  -7.211  0.00  0.00    +0.228 C 
BRANCH   7   8
ATOM      8  C   UNL     1       2.400   7.299  -7.165  0.00  0.00    +0.387 C 
ATOM      9  O   UNL     1       3.307   7.437  -6.124  0.00  0.00    -0.244 OA
ATOM     10  O   UNL     1       2.105   8.323  -7.848  0.00  0.00    -0.244 OA
ENDBRANCH   7   8
ENDBRANCH   2   7
TORSDOF 3
ENDMDL
MODEL 3
REMARK VINA RESULT:      -4.3      9.667     10.593
REMARK  Name = 
REMARK  3 active torsions:
REMARK  status: ('A' for Active; 'I' for Inactive)
REMARK    1  A    between atoms: C_2  and  C_4
REMARK    2  A    between atoms: N_6  and  C_7
REMARK    3  A    between atoms: C_7  and  C_8
REMARK                            x       y       z     vdW  Elec       q    Type
REMARK                         _______ _______ _______ _____ _____    ______ ____
ROOT
ATOM      1  C   UNL     1       0.135   6.381  -5.217  0.00  0.00    +0.252 C 
ATOM      2  N   UNL     1      -1.146   5.877  -4.819  0.00  0.00    -0.192 NA
ATOM      3  O   UNL     1       0.984   6.737  -4.390  0.00  0.00    -0.272 OA
ENDROOT
BRANCH   1   5
ATOM      4  C   UNL     1      -0.816   5.327  -7.070  0.00  0.00    +0.022 C 
ATOM      5  C   UNL     1       0.576   6.015  -6.678  0.00  0.00    +0.136 C 
ATOM      6  S   UNL     1       1.422   4.356  -6.201  0.00  0.00    -0.073 S 
ENDBRANCH   1   5
BRANCH   2   7
ATOM      7  C   UNL     1      -1.750   6.496  -3.656  0.00  0.00    +0.228 C 
BRANCH   7   8
ATOM      8  C   UNL     1      -1.863   5.453  -2.593  0.00  0.00    +0.387 C 
ATOM      9  O   UNL     1      -0.742   5.030  -1.892  0.00  0.00    -0.244 OA
ATOM     10  O   UNL     1      -2.884   4.706  -2.605  0.00  0.00    -0.244 OA
ENDBRANCH   7   8
ENDBRANCH   2   7
TORSDOF 3
ENDMDL
MODEL 4
REMARK VINA RESULT:      -4.2      2.586      3.785
REMARK  Name = 
REMARK  3 active torsions:
REMARK  status: ('A' for Active; 'I' for Inactive)
REMARK    1  A    between atoms: C_2  and  C_4
REMARK    2  A    between atoms: N_6  and  C_7
REMARK    3  A    between atoms: C_7  and  C_8
REMARK                            x       y       z     vdW  Elec       q    Type
REMARK                         _______ _______ _______ _____ _____    ______ ____
ROOT
ATOM      1  C   UNL     1       4.538   6.067 -10.239  0.00  0.00    +0.252 C 
ATOM      2  N   UNL     1       5.934   5.993 -10.556  0.00  0.00    -0.192 NA
ATOM      3  O   UNL     1       3.662   5.875 -11.091  0.00  0.00    -0.272 OA
ENDROOT
BRANCH   1   5
ATOM      4  C   UNL     1       5.536   5.144  -8.340  0.00  0.00    +0.022 C 
ATOM      5  C   UNL     1       4.188   5.924  -8.716  0.00  0.00    +0.136 C 
ATOM      6  S   UNL     1       3.150   4.318  -8.918  0.00  0.00    -0.073 S 
ENDBRANCH   1   5
BRANCH   2   7
ATOM      7  C   UNL     1       6.326   6.495 -11.858  0.00  0.00    +0.228 C 
BRANCH   7   8
ATOM      8  C   UNL     1       6.620   5.318 -12.729  0.00  0.00    +0.387 C 
ATOM      9  O   UNL     1       5.617   4.729 -13.487  0.00  0.00    -0.244 OA
ATOM     10  O   UNL     1       7.663   4.646 -12.481  0.00  0.00    -0.244 OA
ENDBRANCH   7   8
ENDBRANCH   2   7
TORSDOF 3
ENDMDL
MODEL 5
REMARK VINA RESULT:      -4.1      2.481      3.480
REMARK  Name = 
REMARK  3 active torsions:
REMARK  status: ('A' for Active; 'I' for Inactive)
REMARK    1  A    between atoms: C_2  and  C_4
REMARK    2  A    between atoms: N_6  and  C_7
REMARK    3  A    between atoms: C_7  and  C_8
REMARK                            x       y       z     vdW  Elec       q    Type
REMARK                         _______ _______ _______ _____ _____    ______ ____
ROOT
ATOM      1  C   UNL     1       5.476   6.197 -10.153  0.00  0.00    +0.252 C 
ATOM      2  N   UNL     1       5.566   6.967 -11.359  0.00  0.00    -0.192 NA
ATOM      3  O   UNL     1       6.473   5.929  -9.472  0.00  0.00    -0.272 OA
ENDROOT
BRANCH   1   5
ATOM      4  C   UNL     1       4.104   4.554  -9.220  0.00  0.00    +0.022 C 
ATOM      5  C   UNL     1       4.048   6.130  -9.505  0.00  0.00    +0.136 C 
ATOM      6  S   UNL     1       3.103   5.937 -11.167  0.00  0.00    -0.073 S 
ENDBRANCH   1   5
BRANCH   2   7
ATOM      7  C   UNL     1       6.738   6.744 -12.181  0.00  0.00    +0.228 C 
BRANCH   7   8
ATOM      8  C   UNL     1       6.685   5.335 -12.675  0.00  0.00    +0.387 C 
ATOM      9  O   UNL     1       7.798   4.511 -12.589  0.00  0.00    -0.244 OA
ATOM     10  O   UNL     1       5.773   5.033 -13.499  0.00  0.00    -0.244 OA
ENDBRANCH   7   8
ENDBRANCH   2   7
TORSDOF 3
ENDMDL
MODEL 6
REMARK VINA RESULT:      -4.1      9.913     10.766
REMARK  Name = 
REMARK  3 active torsions:
REMARK  status: ('A' for Active; 'I' for Inactive)
REMARK    1  A    between atoms: C_2  and  C_4
REMARK    2  A    between atoms: N_6  and  C_7
REMARK    3  A    between atoms: C_7  and  C_8
REMARK                            x       y       z     vdW  Elec       q    Type
REMARK                         _______ _______ _______ _____ _____    ______ ____
ROOT
ATOM      1  C   UNL     1      -0.681   5.527  -5.848  0.00  0.00    +0.252 C 
ATOM      2  N   UNL     1      -1.382   6.110  -4.743  0.00  0.00    -0.192 NA
ATOM      3  O   UNL     1      -1.259   5.207  -6.894  0.00  0.00    -0.272 OA
ENDROOT
BRANCH   1   5
ATOM      4  C   UNL     1       1.237   4.207  -6.018  0.00  0.00    +0.022 C 
ATOM      5  C   UNL     1       0.871   5.758  -5.856  0.00  0.00    +0.136 C 
ATOM      6  S   UNL     1       1.065   5.747  -3.943  0.00  0.00    -0.073 S 
ENDBRANCH   1   5
BRANCH   2   7
ATOM      7  C   UNL     1      -2.719   5.610  -4.491  0.00  0.00    +0.228 C 
BRANCH   7   8
ATOM      8  C   UNL     1      -2.976   5.720  -3.024  0.00  0.00    +0.387 C 
ATOM      9  O   UNL     1      -2.454   4.787  -2.140  0.00  0.00    -0.244 OA
ATOM     10  O   UNL     1      -3.960   6.422  -2.648  0.00  0.00    -0.244 OA
ENDBRANCH   7   8
ENDBRANCH   2   7
TORSDOF 3
ENDMDL
MODEL 7
REMARK VINA RESULT:      -4.0      2.182      3.555
REMARK  Name = 
REMARK  3 active torsions:
REMARK  status: ('A' for Active; 'I' for Inactive)
REMARK    1  A    between atoms: C_2  and  C_4
REMARK    2  A    between atoms: N_6  and  C_7
REMARK    3  A    between atoms: C_7  and  C_8
REMARK                            x       y       z     vdW  Elec       q    Type
REMARK                         _______ _______ _______ _____ _____    ______ ____
ROOT
ATOM      1  C   UNL     1       4.335   6.119 -11.216  0.00  0.00    +0.252 C 
ATOM      2  N   UNL     1       5.305   5.309 -11.891  0.00  0.00    -0.192 NA
ATOM      3  O   UNL     1       3.221   6.350 -11.704  0.00  0.00    -0.272 OA
ENDROOT
BRANCH   1   5
ATOM      4  C   UNL     1       6.077   5.780  -9.700  0.00  0.00    +0.022 C 
ATOM      5  C   UNL     1       4.559   6.288  -9.672  0.00  0.00    +0.136 C 
ATOM      6  S   UNL     1       3.845   4.568  -9.196  0.00  0.00    -0.073 S 
ENDBRANCH   1   5
BRANCH   2   7
ATOM      7  C   UNL     1       5.363   5.439 -13.333  0.00  0.00    +0.228 C 
BRANCH   7   8
ATOM      8  C   UNL     1       6.802   5.438 -13.732  0.00  0.00    +0.387 C 
ATOM      9  O   UNL     1       7.739   4.720 -13.004  0.00  0.00    -0.244 OA
ATOM     10  O   UNL     1       7.208   6.375 -14.480  0.00  0.00    -0.244 OA
ENDBRANCH   7   8
ENDBRANCH   2   7
TORSDOF 3
ENDMDL
MODEL 8
REMARK VINA RESULT:      -4.0      2.548      3.082
REMARK  Name = 
REMARK  3 active torsions:
REMARK  status: ('A' for Active; 'I' for Inactive)
REMARK    1  A    between atoms: C_2  and  C_4
REMARK    2  A    between atoms: N_6  and  C_7
REMARK    3  A    between atoms: C_7  and  C_8
REMARK                            x       y       z     vdW  Elec       q    Type
REMARK                         _______ _______ _______ _____ _____    ______ ____
ROOT
ATOM      1  C   UNL     1       5.648   5.676 -12.309  0.00  0.00    +0.252 C 
ATOM      2  N   UNL     1       4.734   6.303 -11.400  0.00  0.00    -0.192 NA
ATOM      3  O   UNL     1       5.281   4.807 -13.110  0.00  0.00    -0.272 OA
ENDROOT
BRANCH   1   5
ATOM      4  C   UNL     1       7.818   5.679 -11.449  0.00  0.00    +0.022 C 
ATOM      5  C   UNL     1       6.982   6.461 -12.568  0.00  0.00    +0.136 C 
ATOM      6  S   UNL     1       6.551   7.937 -11.414  0.00  0.00    -0.073 S 
ENDBRANCH   1   5
BRANCH   2   7
ATOM      7  C   UNL     1       3.696   5.459 -10.844  0.00  0.00    +0.228 C 
BRANCH   7   8
ATOM      8  C   UNL     1       4.210   4.890  -9.563  0.00  0.00    +0.387 C 
ATOM      9  O   UNL     1       3.532   3.864  -8.920  0.00  0.00    -0.244 OA
ATOM     10  O   UNL     1       5.025   5.588  -8.892  0.00  0.00    -0.244 OA
ENDBRANCH   7   8
ENDBRANCH   2   7
TORSDOF 3
ENDMDL
MODEL 9
REMARK VINA RESULT:      -3.9      9.361     10.259
REMARK  Name = 
REMARK  3 active torsions:
REMARK  status: ('A' for Active; 'I' for Inactive)
REMARK    1  A    between atoms: C_2  and  C_4
REMARK    2  A    between atoms: N_6  and  C_7
REMARK    3  A    between atoms: C_7  and  C_8
REMARK                            x       y       z     vdW  Elec       q    Type
REMARK                         _______ _______ _______ _____ _____    ______ ____
ROOT
ATOM      1  C   UNL     1       0.987   5.204  -4.824  0.00  0.00    +0.252 C 
ATOM      2  N   UNL     1       0.069   6.037  -4.105  0.00  0.00    -0.192 NA
ATOM      3  O   UNL     1       0.674   4.651  -5.886  0.00  0.00    -0.272 OA
ENDROOT
BRANCH   1   5
ATOM      4  C   UNL     1       2.227   6.521  -3.348  0.00  0.00    +0.022 C 
ATOM      5  C   UNL     1       2.502   5.412  -4.471  0.00  0.00    +0.136 C 
ATOM      6  S   UNL     1       2.835   6.700  -5.860  0.00  0.00    -0.073 S 
ENDBRANCH   1   5
BRANCH   2   7
ATOM      7  C   UNL     1      -1.319   5.622  -4.110  0.00  0.00    +0.228 C 
BRANCH   7   8
ATOM      8  C   UNL     1      -1.702   5.296  -2.704  0.00  0.00    +0.387 C 
ATOM      9  O   UNL     1      -0.730   5.077  -1.737  0.00  0.00    -0.244 OA
ATOM     10  O   UNL     1      -2.869   4.852  -2.497  0.00  0.00    -0.244 OA
ENDBRANCH   7   8
ENDBRANCH   2   7
TORSDOF 3
ENDMDL
