MODEL 1
REMARK VINA RESULT:      -5.7      0.000      0.000
REMARK  Name = 
REMARK  4 active torsions:
REMARK  status: ('A' for Active; 'I' for Inactive)
REMARK    1  A    between atoms: C_2  and  N_4
REMARK    2  A    between atoms: N_4  and  C_5
REMARK    3  A    between atoms: C_5  and  C_6
REMARK    4  A    between atoms: C_6  and  C_8
REMARK                            x       y       z     vdW  Elec       q    Type
REMARK                         _______ _______ _______ _____ _____    ______ ____
ROOT
ATOM      1  C   UNL     1      -0.013   5.343  -4.476  0.00  0.00    +0.015 A 
ATOM      2  C   UNL     1      -0.474   5.542  -3.217  0.00  0.00    +0.040 A 
ATOM      3  C   UNL     1      -1.859   5.470  -3.075  0.00  0.00    +0.199 A 
ATOM      4  O   UNL     1      -2.485   4.882  -1.998  0.00  0.00    -0.286 OA
ATOM      5  C   UNL     1      -2.648   5.634  -4.208  0.00  0.00    +0.084 A 
ATOM      6  C   UNL     1      -2.062   5.933  -5.431  0.00  0.00    +0.199 A 
ATOM      7  O   UNL     1      -2.798   6.032  -6.608  0.00  0.00    -0.286 OA
ATOM      8  C   UNL     1      -0.676   5.888  -5.541  0.00  0.00    +0.040 A 
ENDROOT
BRANCH   1   9
ATOM      9  C   UNL     1       1.586   5.156  -4.679  0.00  0.00    +0.192 C 
ATOM     10  O   UNL     1       1.663   6.454  -5.486  0.00  0.00    -0.217 OA
BRANCH   9  11
ATOM     11  C   UNL     1       1.391   4.247  -6.057  0.00  0.00    +0.126 C 
BRANCH  11  12
ATOM     12  N   UNL     1       2.616   4.399  -6.787  0.00  0.00    -0.216 NA
BRANCH  12  14
ATOM     13  C   UNL     1       1.377   5.080  -8.786  0.00  0.00    +0.019 C 
ATOM     14  C   UNL     1       2.487   4.407  -8.200  0.00  0.00    +0.073 C 
ATOM     15  C   UNL     1       3.731   4.247  -8.980  0.00  0.00    +0.019 C 
ENDBRANCH  12  14
ENDBRANCH  11  12
ENDBRANCH   9  11
ENDBRANCH   1   9
TORSDOF 4
ENDMDL
MODEL 2
REMARK VINA RESULT:      -5.7      1.630      1.752
REMARK  Name = 
REMARK  4 active torsions:
REMARK  status: ('A' for Active; 'I' for Inactive)
REMARK    1  A    between atoms: C_2  and  N_4
REMARK    2  A    between atoms: N_4  and  C_5
REMARK    3  A    between atoms: C_5  and  C_6
REMARK    4  A    between atoms: C_6  and  C_8
REMARK                            x       y       z     vdW  Elec       q    Type
REMARK                         _______ _______ _______ _____ _____    ______ ____
ROOT
ATOM      1  C   UNL     1       0.106   5.404  -4.360  0.00  0.00    +0.015 A 
ATOM      2  C   UNL     1      -0.414   5.592  -3.122  0.00  0.00    +0.040 A 
ATOM      3  C   UNL     1      -1.800   5.475  -3.038  0.00  0.00    +0.199 A 
ATOM      4  O   UNL     1      -2.453   4.871  -1.987  0.00  0.00    -0.286 OA
ATOM      5  C   UNL     1      -2.546   5.612  -4.204  0.00  0.00    +0.084 A 
ATOM      6  C   UNL     1      -1.919   5.926  -5.403  0.00  0.00    +0.199 A 
ATOM      7  O   UNL     1      -2.607   5.998  -6.610  0.00  0.00    -0.286 OA
ATOM      8  C   UNL     1      -0.529   5.924  -5.455  0.00  0.00    +0.040 A 
ENDROOT
BRANCH   1   9
ATOM      9  C   UNL     1       1.717   5.268  -4.495  0.00  0.00    +0.192 C 
ATOM     10  O   UNL     1       1.881   5.367  -2.977  0.00  0.00    -0.217 OA
BRANCH   9  11
ATOM     11  C   UNL     1       1.927   6.906  -4.680  0.00  0.00    +0.126 C 
BRANCH  11  12
ATOM     12  N   UNL     1       3.096   7.048  -5.498  0.00  0.00    -0.216 NA
BRANCH  12  14
ATOM     13  C   UNL     1       2.170   7.564  -7.705  0.00  0.00    +0.019 C 
ATOM     14  C   UNL     1       2.931   6.702  -6.864  0.00  0.00    +0.073 C 
ATOM     15  C   UNL     1       3.974   5.843  -7.462  0.00  0.00    +0.019 C 
ENDBRANCH  12  14
ENDBRANCH  11  12
ENDBRANCH   9  11
ENDBRANCH   1   9
TORSDOF 4
ENDMDL
MODEL 3
REMARK VINA RESULT:      -5.6      4.466      6.577
REMARK  Name = 
REMARK  4 active torsions:
REMARK  status: ('A' for Active; 'I' for Inactive)
REMARK    1  A    between atoms: C_2  and  N_4
REMARK    2  A    between atoms: N_4  and  C_5
REMARK    3  A    between atoms: C_5  and  C_6
REMARK    4  A    between atoms: C_6  and  C_8
REMARK                            x       y       z     vdW  Elec       q    Type
REMARK                         _______ _______ _______ _____ _____    ______ ____
ROOT
ATOM      1  C   UNL     1       4.160   5.706  -9.276  0.00  0.00    +0.015 A 
ATOM      2  C   UNL     1       3.426   6.835  -9.426  0.00  0.00    +0.040 A 
ATOM      3  C   UNL     1       2.508   7.085  -8.407  0.00  0.00    +0.199 A 
ATOM      4  O   UNL     1       2.254   8.340  -7.900  0.00  0.00    -0.286 OA
ATOM      5  C   UNL     1       2.113   6.024  -7.600  0.00  0.00    +0.084 A 
ATOM      6  C   UNL     1       2.574   4.740  -7.857  0.00  0.00    +0.199 A 
ATOM      7  O   UNL     1       2.271   3.659  -7.036  0.00  0.00    -0.286 OA
ATOM      8  C   UNL     1       3.569   4.562  -8.813  0.00  0.00    +0.040 A 
ENDROOT
BRANCH   1   9
ATOM      9  C   UNL     1       5.418   5.479 -10.274  0.00  0.00    +0.192 C 
ATOM     10  O   UNL     1       6.405   5.690  -9.123  0.00  0.00    -0.217 OA
BRANCH   9  11
ATOM     11  C   UNL     1       5.484   7.085 -10.696  0.00  0.00    +0.126 C 
BRANCH  11  12
ATOM     12  N   UNL     1       6.819   7.296 -11.175  0.00  0.00    -0.216 NA
BRANCH  12  14
ATOM     13  C   UNL     1       6.496   6.947 -13.577  0.00  0.00    +0.019 C 
ATOM     14  C   UNL     1       7.159   6.600 -12.364  0.00  0.00    +0.073 C 
ATOM     15  C   UNL     1       8.508   6.003 -12.422  0.00  0.00    +0.019 C 
ENDBRANCH  12  14
ENDBRANCH  11  12
ENDBRANCH   9  11
ENDBRANCH   1   9
TORSDOF 4
ENDMDL
MODEL 4
REMARK VINA RESULT:      -5.5      2.619      4.806
REMARK  Name = 
REMARK  4 active torsions:
REMARK  status: ('A' for Active; 'I' for Inactive)
REMARK    1  A    between atoms: C_2  and  N_4
REMARK    2  A    between atoms: N_4  and  C_5
REMARK    3  A    between atoms: C_5  and  C_6
REMARK    4  A    between atoms: C_6  and  C_8
REMARK                            x       y       z     vdW  Elec       q    Type
REMARK                         _______ _______ _______ _____ _____    ______ ____
ROOT
ATOM      1  C   UNL     1       1.491   5.585  -5.677  0.00  0.00    +0.015 A 
ATOM      2  C   UNL     1       1.379   4.504  -6.487  0.00  0.00    +0.040 A 
ATOM      3  C   UNL     1       1.968   4.641  -7.743  0.00  0.00    +0.199 A 
ATOM      4  O   UNL     1       2.657   3.631  -8.377  0.00  0.00    -0.286 OA
ATOM      5  C   UNL     1       2.220   5.924  -8.218  0.00  0.00    +0.084 A 
ATOM      6  C   UNL     1       1.824   7.033  -7.481  0.00  0.00    +0.199 A 
ATOM      7  O   UNL     1       2.119   8.335  -7.873  0.00  0.00    -0.286 OA
ATOM      8  C   UNL     1       1.340   6.844  -6.190  0.00  0.00    +0.040 A 
ENDROOT
BRANCH   1   9
ATOM      9  C   UNL     1       1.064   5.417  -4.121  0.00  0.00    +0.192 C 
ATOM     10  O   UNL     1      -0.128   6.357  -4.318  0.00  0.00    -0.217 OA
BRANCH   9  11
ATOM     11  C   UNL     1       2.039   6.669  -3.628  0.00  0.00    +0.126 C 
BRANCH  11  12
ATOM     12  N   UNL     1       3.173   6.045  -3.012  0.00  0.00    -0.216 NA
BRANCH  12  14
ATOM     13  C   UNL     1       4.903   4.876  -4.291  0.00  0.00    +0.019 C 
ATOM     14  C   UNL     1       4.377   6.089  -3.762  0.00  0.00    +0.073 C 
ATOM     15  C   UNL     1       4.697   7.368  -4.428  0.00  0.00    +0.019 C 
ENDBRANCH  12  14
ENDBRANCH  11  12
ENDBRANCH   9  11
ENDBRANCH   1   9
TORSDOF 4
ENDMDL
MODEL 5
REMARK VINA RESULT:      -5.5      2.416      3.458
REMARK  Name = 
REMARK  4 active torsions:
REMARK  status: ('A' for Active; 'I' for Inactive)
REMARK    1  A    between atoms: C_2  and  N_4
REMARK    2  A    between atoms: N_4  and  C_5
REMARK    3  A    between atoms: C_5  and  C_6
REMARK    4  A    between atoms: C_6  and  C_8
REMARK                            x       y       z     vdW  Elec       q    Type
REMARK                         _______ _______ _______ _____ _____    ______ ____
ROOT
ATOM      1  C   UNL     1      -0.243   6.367  -4.775  0.00  0.00    +0.015 A 
ATOM      2  C   UNL     1      -0.881   7.480  -5.212  0.00  0.00    +0.040 A 
ATOM      3  C   UNL     1      -1.821   8.009  -4.329  0.00  0.00    +0.199 A 
ATOM      4  O   UNL     1      -2.000   9.359  -4.125  0.00  0.00    -0.286 OA
ATOM      5  C   UNL     1      -2.332   7.182  -3.334  0.00  0.00    +0.084 A 
ATOM      6  C   UNL     1      -1.959   5.845  -3.276  0.00  0.00    +0.199 A 
ATOM      7  O   UNL     1      -2.380   4.996  -2.258  0.00  0.00    -0.286 OA
ATOM      8  C   UNL     1      -0.940   5.395  -4.109  0.00  0.00    +0.040 A 
ENDROOT
BRANCH   1   9
ATOM      9  C   UNL     1       1.037   5.842  -5.621  0.00  0.00    +0.192 C 
ATOM     10  O   UNL     1       1.224   4.664  -4.662  0.00  0.00    -0.217 OA
BRANCH   9  11
ATOM     11  C   UNL     1       2.102   6.783  -4.760  0.00  0.00    +0.126 C 
BRANCH  11  12
ATOM     12  N   UNL     1       3.298   6.821  -5.549  0.00  0.00    -0.216 NA
BRANCH  12  14
ATOM     13  C   UNL     1       5.123   7.623  -4.127  0.00  0.00    +0.019 C 
ATOM     14  C   UNL     1       4.503   6.560  -4.846  0.00  0.00    +0.073 C 
ATOM     15  C   UNL     1       4.733   5.166  -4.418  0.00  0.00    +0.019 C 
ENDBRANCH  12  14
ENDBRANCH  11  12
ENDBRANCH   9  11
ENDBRANCH   1   9
TORSDOF 4
ENDMDL
MODEL 6
REMARK VINA RESULT:      -5.5      4.425      6.584
REMARK  Name = 
REMARK  4 active torsions:
REMARK  status: ('A' for Active; 'I' for Inactive)
REMARK    1  A    between atoms: C_2  and  N_4
REMARK    2  A    between atoms: N_4  and  C_5
REMARK    3  A    between atoms: C_5  and  C_6
REMARK    4  A    between atoms: C_6  and  C_8
REMARK                            x       y       z     vdW  Elec       q    Type
REMARK                         _______ _______ _______ _____ _____    ______ ____
ROOT
ATOM      1  C   UNL     1       2.100   6.570  -9.106  0.00  0.00    +0.015 A 
ATOM      2  C   UNL     1       1.120   6.623 -10.041  0.00  0.00    +0.040 A 
ATOM      3  C   UNL     1       1.442   6.047 -11.269  0.00  0.00    +0.199 A 
ATOM      4  O   UNL     1       0.558   5.303 -12.018  0.00  0.00    -0.286 OA
ATOM      5  C   UNL     1       2.786   5.874 -11.585  0.00  0.00    +0.084 A 
ATOM      6  C   UNL     1       3.772   6.331 -10.721  0.00  0.00    +0.199 A 
ATOM      7  O   UNL     1       5.127   6.115 -10.952  0.00  0.00    -0.286 OA
ATOM      8  C   UNL     1       3.401   6.798  -9.464  0.00  0.00    +0.040 A 
ENDROOT
BRANCH   1   9
ATOM      9  C   UNL     1       1.721   6.981  -7.583  0.00  0.00    +0.192 C 
ATOM     10  O   UNL     1       2.137   8.431  -7.841  0.00  0.00    -0.217 OA
BRANCH   9  11
ATOM     11  C   UNL     1       3.232   6.592  -7.010  0.00  0.00    +0.126 C 
BRANCH  11  12
ATOM     12  N   UNL     1       3.387   7.354  -5.806  0.00  0.00    -0.216 NA
BRANCH  12  14
ATOM     13  C   UNL     1       4.509   5.386  -4.877  0.00  0.00    +0.019 C 
ATOM     14  C   UNL     1       4.246   6.786  -4.830  0.00  0.00    +0.073 C 
ATOM     15  C   UNL     1       5.238   7.688  -4.212  0.00  0.00    +0.019 C 
ENDBRANCH  12  14
ENDBRANCH  11  12
ENDBRANCH   9  11
ENDBRANCH   1   9
TORSDOF 4
ENDMDL
MODEL 7
REMARK VINA RESULT:      -5.5      2.759      5.530
REMARK  Name = 
REMARK  4 active torsions:
REMARK  status: ('A' for Active; 'I' for Inactive)
REMARK    1  A    between atoms: C_2  and  N_4
REMARK    2  A    between atoms: N_4  and  C_5
REMARK    3  A    between atoms: C_5  and  C_6
REMARK    4  A    between atoms: C_6  and  C_8
REMARK                            x       y       z     vdW  Elec       q    Type
REMARK                         _______ _______ _______ _____ _____    ______ ____
ROOT
ATOM      1  C   UNL     1       2.350   6.471  -6.292  0.00  0.00    +0.015 A 
ATOM      2  C   UNL     1       1.782   7.325  -7.178  0.00  0.00    +0.040 A 
ATOM      3  C   UNL     1       2.120   7.106  -8.512  0.00  0.00    +0.199 A 
ATOM      4  O   UNL     1       1.227   7.220  -9.554  0.00  0.00    -0.286 OA
ATOM      5  C   UNL     1       3.272   6.378  -8.790  0.00  0.00    +0.084 A 
ATOM      6  C   UNL     1       4.093   5.946  -7.757  0.00  0.00    +0.199 A 
ATOM      7  O   UNL     1       5.213   5.151  -7.975  0.00  0.00    -0.286 OA
ATOM      8  C   UNL     1       3.657   6.096  -6.444  0.00  0.00    +0.040 A 
ENDROOT
BRANCH   1   9
ATOM      9  C   UNL     1       1.811   6.494  -4.762  0.00  0.00    +0.192 C 
ATOM     10  O   UNL     1       2.992   5.634  -4.304  0.00  0.00    -0.217 OA
BRANCH   9  11
ATOM     11  C   UNL     1       0.853   5.155  -4.988  0.00  0.00    +0.126 C 
BRANCH  11  12
ATOM     12  N   UNL     1      -0.400   5.478  -4.372  0.00  0.00    -0.216 NA
BRANCH  12  14
ATOM     13  C   UNL     1      -1.993   7.227  -5.002  0.00  0.00    +0.019 C 
ATOM     14  C   UNL     1      -1.409   5.952  -5.250  0.00  0.00    +0.073 C 
ATOM     15  C   UNL     1      -1.395   5.417  -6.627  0.00  0.00    +0.019 C 
ENDBRANCH  12  14
ENDBRANCH  11  12
ENDBRANCH   9  11
ENDBRANCH   1   9
TORSDOF 4
ENDMDL
MODEL 8
REMARK VINA RESULT:      -5.5      4.969      8.426
REMARK  Name = 
REMARK  4 active torsions:
REMARK  status: ('A' for Active; 'I' for Inactive)
REMARK    1  A    between atoms: C_2  and  N_4
REMARK    2  A    between atoms: N_4  and  C_5
REMARK    3  A    between atoms: C_5  and  C_6
REMARK    4  A    between atoms: C_6  and  C_8
REMARK                            x       y       z     vdW  Elec       q    Type
REMARK                         _______ _______ _______ _____ _____    ______ ____
ROOT
ATOM      1  C   UNL     1       4.978   6.191  -9.944  0.00  0.00    +0.015 A 
ATOM      2  C   UNL     1       5.130   7.278 -10.739  0.00  0.00    +0.040 A 
ATOM      3  C   UNL     1       6.319   7.319 -11.465  0.00  0.00    +0.199 A 
ATOM      4  O   UNL     1       6.403   7.761 -12.767  0.00  0.00    -0.286 OA
ATOM      5  C   UNL     1       7.387   6.543 -11.028  0.00  0.00    +0.084 A 
ATOM      6  C   UNL     1       7.282   5.804  -9.857  0.00  0.00    +0.199 A 
ATOM      7  O   UNL     1       8.290   4.953  -9.417  0.00  0.00    -0.286 OA
ATOM      8  C   UNL     1       6.043   5.711  -9.231  0.00  0.00    +0.040 A 
ENDROOT
BRANCH   1   9
ATOM      9  C   UNL     1       3.524   5.938  -9.270  0.00  0.00    +0.192 C 
ATOM     10  O   UNL     1       3.716   4.422  -9.358  0.00  0.00    -0.217 OA
BRANCH   9  11
ATOM     11  C   UNL     1       2.742   5.979 -10.736  0.00  0.00    +0.126 C 
BRANCH  11  12
ATOM     12  N   UNL     1       1.622   5.095 -10.592  0.00  0.00    -0.216 NA
BRANCH  12  14
ATOM     13  C   UNL     1      -0.047   5.547  -8.859  0.00  0.00    +0.019 C 
ATOM     14  C   UNL     1       0.405   5.710 -10.200  0.00  0.00    +0.073 C 
ATOM     15  C   UNL     1      -0.012   6.902 -10.966  0.00  0.00    +0.019 C 
ENDBRANCH  12  14
ENDBRANCH  11  12
ENDBRANCH   9  11
ENDBRANCH   1   9
TORSDOF 4
ENDMDL
MODEL 9
REMARK VINA RESULT:      -5.4      4.627      8.863
REMARK  Name = 
REMARK  4 active torsions:
REMARK  status: ('A' for Active; 'I' for Inactive)
REMARK    1  A    between atoms: C_2  and  N_4
REMARK    2  A    between atoms: N_4  and  C_5
REMARK    3  A    between atoms: C_5  and  C_6
REMARK    4  A    between atoms: C_6  and  C_8
REMARK                            x       y       z     vdW  Elec       q    Type
REMARK                         _______ _______ _______ _____ _____    ______ ____
ROOT
ATOM      1  C   UNL     1       5.243   5.695 -11.123  0.00  0.00    +0.015 A 
ATOM      2  C   UNL     1       5.575   5.548 -12.429  0.00  0.00    +0.040 A 
ATOM      3  C   UNL     1       6.942   5.567 -12.699  0.00  0.00    +0.199 A 
ATOM      4  O   UNL     1       7.549   4.745 -13.622  0.00  0.00    -0.286 OA
ATOM      5  C   UNL     1       7.792   6.140 -11.759  0.00  0.00    +0.084 A 
ATOM      6  C   UNL     1       7.273   6.737 -10.618  0.00  0.00    +0.199 A 
ATOM      7  O   UNL     1       8.082   7.255  -9.612  0.00  0.00    -0.286 OA
ATOM      8  C   UNL     1       5.917   6.596 -10.343  0.00  0.00    +0.040 A 
ENDROOT
BRANCH   1   9
ATOM      9  C   UNL     1       3.702   5.427 -10.694  0.00  0.00    +0.192 C 
ATOM     10  O   UNL     1       3.633   6.784  -9.989  0.00  0.00    -0.217 OA
BRANCH   9  11
ATOM     11  C   UNL     1       4.137   4.657  -9.287  0.00  0.00    +0.126 C 
BRANCH  11  12
ATOM     12  N   UNL     1       2.901   4.327  -8.639  0.00  0.00    -0.216 NA
BRANCH  12  14
ATOM     13  C   UNL     1       2.078   3.857  -6.381  0.00  0.00    +0.019 C 
ATOM     14  C   UNL     1       2.812   4.694  -7.271  0.00  0.00    +0.073 C 
ATOM     15  C   UNL     1       3.899   5.540  -6.739  0.00  0.00    +0.019 C 
ENDBRANCH  12  14
ENDBRANCH  11  12
ENDBRANCH   9  11
ENDBRANCH   1   9
TORSDOF 4
ENDMDL
