MODEL 1
REMARK VINA RESULT:      -7.8      0.000      0.000
REMARK  Name = 
REMARK  2 active torsions:
REMARK  status: ('A' for Active; 'I' for Inactive)
REMARK    1  A    between atoms: C_4  and  C_5
REMARK    2  A    between atoms: C_5  and  N_6
REMARK                            x       y       z     vdW  Elec       q    Type
REMARK                         _______ _______ _______ _____ _____    ______ ____
ROOT
ATOM      1  N   UNL     1       1.158   5.343  -7.305  0.00  0.00    -0.270 NA
ATOM      2  C   UNL     1       1.277   6.707  -6.503  0.00  0.00    +0.062 C 
ATOM      3  C   UNL     1       2.459   6.153  -5.354  0.00  0.00    +0.019 C 
ATOM      4  C   UNL     1       3.258   5.086  -6.279  0.00  0.00    +0.021 C 
ATOM      5  C   UNL     1       3.828   5.623  -7.438  0.00  0.00    -0.023 A 
ATOM      6  C   UNL     1       3.089   6.439  -8.246  0.00  0.00    -0.025 A 
ATOM      7  C   UNL     1       3.622   6.778  -9.470  0.00  0.00    -0.001 A 
ATOM      8  C   UNL     1       4.924   6.442  -9.828  0.00  0.00    +0.042 A 
ATOM      9  C   UNL     1       5.698   5.652  -8.996  0.00  0.00    +0.195 A 
ATOM     10  O   UNL     1       7.018   5.315  -9.270  0.00  0.00    -0.287 OA
ATOM     11  C   UNL     1       5.085   5.180  -7.850  0.00  0.00    +0.037 A 
ATOM     12  C   UNL     1       4.398   4.840  -5.288  0.00  0.00    +0.004 C 
ATOM     13  C   UNL     1       2.495   3.811  -6.296  0.00  0.00    +0.021 C 
ATOM     14  C   UNL     1       3.550   7.351  -5.617  0.00  0.00    +0.002 C 
ATOM     15  C   UNL     1       2.316   7.437  -7.547  0.00  0.00    +0.042 C 
ATOM     16  C   UNL     1       1.052   4.319  -6.257  0.00  0.00    +0.073 C 
ENDROOT
BRANCH   1  17
ATOM     17  C   UNL     1      -0.235   5.481  -7.732  0.00  0.00    +0.098 C 
BRANCH  17  20
ATOM     18  C   UNL     1       0.330   4.299 -10.660  0.00  0.00    +0.026 C 
ATOM     19  C   UNL     1       0.208   5.695 -10.177  0.00  0.00    -0.047 C 
ATOM     20  C   UNL     1      -0.400   6.042  -9.064  0.00  0.00    -0.017 C 
ATOM     21  C   UNL     1       0.229   6.747 -11.250  0.00  0.00    +0.026 C 
ENDBRANCH  17  20
ENDBRANCH   1  17
TORSDOF 2
ENDMDL
MODEL 2
REMARK VINA RESULT:      -7.7      2.289      4.446
REMARK  Name = 
REMARK  2 active torsions:
REMARK  status: ('A' for Active; 'I' for Inactive)
REMARK    1  A    between atoms: C_4  and  C_5
REMARK    2  A    between atoms: C_5  and  N_6
REMARK                            x       y       z     vdW  Elec       q    Type
REMARK                         _______ _______ _______ _____ _____    ______ ____
ROOT
ATOM      1  N   UNL     1       3.405   5.823  -8.637  0.00  0.00    -0.270 NA
ATOM      2  C   UNL     1       2.252   6.899  -8.459  0.00  0.00    +0.062 C 
ATOM      3  C   UNL     1       1.083   5.816  -7.762  0.00  0.00    +0.019 C 
ATOM      4  C   UNL     1       2.083   4.804  -6.981  0.00  0.00    +0.021 C 
ATOM      5  C   UNL     1       2.908   5.411  -6.028  0.00  0.00    -0.023 A 
ATOM      6  C   UNL     1       3.593   6.548  -6.345  0.00  0.00    -0.025 A 
ATOM      7  C   UNL     1       4.541   6.993  -5.450  0.00  0.00    -0.001 A 
ATOM      8  C   UNL     1       4.704   6.411  -4.197  0.00  0.00    +0.042 A 
ATOM      9  C   UNL     1       3.982   5.284  -3.848  0.00  0.00    +0.195 A 
ATOM     10  O   UNL     1       4.062   4.679  -2.599  0.00  0.00    -0.287 OA
ATOM     11  C   UNL     1       3.160   4.753  -4.824  0.00  0.00    +0.037 A 
ATOM     12  C   UNL     1       0.987   4.056  -6.218  0.00  0.00    +0.004 C 
ATOM     13  C   UNL     1       2.605   3.811  -7.954  0.00  0.00    +0.021 C 
ATOM     14  C   UNL     1       0.778   6.712  -6.420  0.00  0.00    +0.002 C 
ATOM     15  C   UNL     1       2.820   7.537  -7.055  0.00  0.00    +0.042 C 
ATOM     16  C   UNL     1       2.723   4.660  -9.222  0.00  0.00    +0.073 C 
ENDROOT
BRANCH   1  17
ATOM     17  C   UNL     1       4.052   6.413  -9.810  0.00  0.00    +0.098 C 
BRANCH  17  20
ATOM     18  C   UNL     1       6.381   8.027 -11.312  0.00  0.00    +0.026 C 
ATOM     19  C   UNL     1       6.344   6.650 -10.762  0.00  0.00    -0.047 C 
ATOM     20  C   UNL     1       5.496   6.244  -9.844  0.00  0.00    -0.017 C 
ATOM     21  C   UNL     1       7.653   5.912 -10.798  0.00  0.00    +0.026 C 
ENDBRANCH  17  20
ENDBRANCH   1  17
TORSDOF 2
ENDMDL
MODEL 3
REMARK VINA RESULT:      -7.5      1.561      2.710
REMARK  Name = 
REMARK  2 active torsions:
REMARK  status: ('A' for Active; 'I' for Inactive)
REMARK    1  A    between atoms: C_4  and  C_5
REMARK    2  A    between atoms: C_5  and  N_6
REMARK                            x       y       z     vdW  Elec       q    Type
REMARK                         _______ _______ _______ _____ _____    ______ ____
ROOT
ATOM      1  N   UNL     1       0.908   5.480  -6.897  0.00  0.00    -0.270 NA
ATOM      2  C   UNL     1       1.187   6.787  -6.042  0.00  0.00    +0.062 C 
ATOM      3  C   UNL     1       2.489   6.125  -5.098  0.00  0.00    +0.019 C 
ATOM      4  C   UNL     1       3.114   5.092  -6.183  0.00  0.00    +0.021 C 
ATOM      5  C   UNL     1       3.545   5.683  -7.376  0.00  0.00    -0.023 A 
ATOM      6  C   UNL     1       2.737   6.571  -8.027  0.00  0.00    -0.025 A 
ATOM      7  C   UNL     1       3.115   6.969  -9.291  0.00  0.00    -0.001 A 
ATOM      8  C   UNL     1       4.342   6.614  -9.842  0.00  0.00    +0.042 A 
ATOM      9  C   UNL     1       5.188   5.749  -9.170  0.00  0.00    +0.195 A 
ATOM     10  O   UNL     1       6.445   5.388  -9.640  0.00  0.00    -0.287 OA
ATOM     11  C   UNL     1       4.716   5.226  -7.980  0.00  0.00    +0.037 A 
ATOM     12  C   UNL     1       4.366   4.749  -5.372  0.00  0.00    +0.004 C 
ATOM     13  C   UNL     1       2.305   3.846  -6.169  0.00  0.00    +0.021 C 
ATOM     14  C   UNL     1       3.582   7.302  -5.438  0.00  0.00    +0.002 C 
ATOM     15  C   UNL     1       2.106   7.547  -7.174  0.00  0.00    +0.042 C 
ATOM     16  C   UNL     1       0.902   4.396  -5.905  0.00  0.00    +0.073 C 
ENDROOT
BRANCH   1  17
ATOM     17  C   UNL     1      -0.524   5.688  -7.121  0.00  0.00    +0.098 C 
BRANCH  17  20
ATOM     18  C   UNL     1      -2.662   7.359  -5.412  0.00  0.00    +0.026 C 
ATOM     19  C   UNL     1      -1.899   6.130  -5.088  0.00  0.00    -0.047 C 
ATOM     20  C   UNL     1      -1.364   5.334  -5.988  0.00  0.00    -0.017 C 
ATOM     21  C   UNL     1      -2.268   5.472  -3.788  0.00  0.00    +0.026 C 
ENDBRANCH  17  20
ENDBRANCH   1  17
TORSDOF 2
ENDMDL
MODEL 4
REMARK VINA RESULT:      -7.4      1.632      4.626
REMARK  Name = 
REMARK  2 active torsions:
REMARK  status: ('A' for Active; 'I' for Inactive)
REMARK    1  A    between atoms: C_4  and  C_5
REMARK    2  A    between atoms: C_5  and  N_6
REMARK                            x       y       z     vdW  Elec       q    Type
REMARK                         _______ _______ _______ _____ _____    ______ ____
ROOT
ATOM      1  N   UNL     1       2.737   6.053  -6.387  0.00  0.00    -0.270 NA
ATOM      2  C   UNL     1       2.125   4.675  -6.878  0.00  0.00    +0.062 C 
ATOM      3  C   UNL     1       1.184   5.336  -8.183  0.00  0.00    +0.019 C 
ATOM      4  C   UNL     1       2.132   6.586  -8.596  0.00  0.00    +0.021 C 
ATOM      5  C   UNL     1       3.432   6.237  -8.977  0.00  0.00    -0.023 A 
ATOM      6  C   UNL     1       4.157   5.369  -8.212  0.00  0.00    -0.025 A 
ATOM      7  C   UNL     1       5.492   5.214  -8.513  0.00  0.00    -0.001 A 
ATOM      8  C   UNL     1       6.066   5.790  -9.642  0.00  0.00    +0.042 A 
ATOM      9  C   UNL     1       5.328   6.637 -10.450  0.00  0.00    +0.195 A 
ATOM     10  O   UNL     1       5.824   7.210 -11.614  0.00  0.00    -0.287 OA
ATOM     11  C   UNL     1       4.039   6.915 -10.034  0.00  0.00    +0.037 A 
ATOM     12  C   UNL     1       1.370   6.949  -9.872  0.00  0.00    +0.004 C 
ATOM     13  C   UNL     1       1.861   7.712  -7.665  0.00  0.00    +0.021 C 
ATOM     14  C   UNL     1       1.786   4.360  -9.358  0.00  0.00    +0.002 C 
ATOM     15  C   UNL     1       3.427   4.208  -7.766  0.00  0.00    +0.042 C 
ATOM     16  C   UNL     1       1.587   6.967  -6.357  0.00  0.00    +0.073 C 
ENDROOT
BRANCH   1  17
ATOM     17  C   UNL     1       2.887   5.714  -4.971  0.00  0.00    +0.098 C 
BRANCH  17  20
ATOM     18  C   UNL     1       5.317   7.707  -4.330  0.00  0.00    +0.026 C 
ATOM     19  C   UNL     1       4.092   7.383  -3.562  0.00  0.00    -0.047 C 
ATOM     20  C   UNL     1       3.004   6.865  -4.089  0.00  0.00    -0.017 C 
ATOM     21  C   UNL     1       3.873   8.210  -2.326  0.00  0.00    +0.026 C 
ENDBRANCH  17  20
ENDBRANCH   1  17
TORSDOF 2
ENDMDL
MODEL 5
REMARK VINA RESULT:      -7.4      2.210      3.777
REMARK  Name = 
REMARK  2 active torsions:
REMARK  status: ('A' for Active; 'I' for Inactive)
REMARK    1  A    between atoms: C_4  and  C_5
REMARK    2  A    between atoms: C_5  and  N_6
REMARK                            x       y       z     vdW  Elec       q    Type
REMARK                         _______ _______ _______ _____ _____    ______ ____
ROOT
ATOM      1  N   UNL     1       1.640   6.009  -6.406  0.00  0.00    -0.270 NA
ATOM      2  C   UNL     1       2.824   6.993  -6.788  0.00  0.00    +0.062 C 
ATOM      3  C   UNL     1       3.858   5.785  -7.494  0.00  0.00    +0.019 C 
ATOM      4  C   UNL     1       2.733   4.774  -8.082  0.00  0.00    +0.021 C 
ATOM      5  C   UNL     1       1.850   5.348  -9.003  0.00  0.00    -0.023 A 
ATOM      6  C   UNL     1       1.261   6.549  -8.725  0.00  0.00    -0.025 A 
ATOM      7  C   UNL     1       0.253   6.973  -9.562  0.00  0.00    -0.001 A 
ATOM      8  C   UNL     1      -0.066   6.299 -10.736  0.00  0.00    +0.042 A 
ATOM      9  C   UNL     1       0.556   5.104 -11.050  0.00  0.00    +0.195 A 
ATOM     10  O   UNL     1       0.320   4.402 -12.225  0.00  0.00    -0.287 OA
ATOM     11  C   UNL     1       1.443   4.608 -10.112  0.00  0.00    +0.037 A 
ATOM     12  C   UNL     1       3.706   3.899  -8.875  0.00  0.00    +0.004 C 
ATOM     13  C   UNL     1       2.260   3.901  -6.977  0.00  0.00    +0.021 C 
ATOM     14  C   UNL     1       4.074   6.544  -8.934  0.00  0.00    +0.002 C 
ATOM     15  C   UNL     1       2.152   7.545  -8.183  0.00  0.00    +0.042 C 
ATOM     16  C   UNL     1       2.314   4.860  -5.786  0.00  0.00    +0.073 C 
ENDROOT
BRANCH   1  17
ATOM     17  C   UNL     1       1.146   6.734  -5.234  0.00  0.00    +0.098 C 
BRANCH  17  20
ATOM     18  C   UNL     1      -1.144   5.082  -6.756  0.00  0.00    +0.026 C 
ATOM     19  C   UNL     1      -1.214   6.300  -5.913  0.00  0.00    -0.047 C 
ATOM     20  C   UNL     1      -0.294   6.650  -5.042  0.00  0.00    -0.017 C 
ATOM     21  C   UNL     1      -2.603   6.788  -5.609  0.00  0.00    +0.026 C 
ENDBRANCH  17  20
ENDBRANCH   1  17
TORSDOF 2
ENDMDL
MODEL 6
REMARK VINA RESULT:      -7.4      2.858      4.746
REMARK  Name = 
REMARK  2 active torsions:
REMARK  status: ('A' for Active; 'I' for Inactive)
REMARK    1  A    between atoms: C_4  and  C_5
REMARK    2  A    between atoms: C_5  and  N_6
REMARK                            x       y       z     vdW  Elec       q    Type
REMARK                         _______ _______ _______ _____ _____    ______ ____
ROOT
ATOM      1  N   UNL     1       1.318   5.886  -8.409  0.00  0.00    -0.270 NA
ATOM      2  C   UNL     1       1.737   4.546  -7.670  0.00  0.00    +0.062 C 
ATOM      3  C   UNL     1       2.648   5.304  -6.397  0.00  0.00    +0.019 C 
ATOM      4  C   UNL     1       1.817   6.690  -6.257  0.00  0.00    +0.021 C 
ATOM      5  C   UNL     1       0.462   6.535  -5.945  0.00  0.00    -0.023 A 
ATOM      6  C   UNL     1      -0.297   5.635  -6.637  0.00  0.00    -0.025 A 
ATOM      7  C   UNL     1      -1.660   5.661  -6.435  0.00  0.00    -0.001 A 
ATOM      8  C   UNL     1      -2.247   6.459  -5.458  0.00  0.00    +0.042 A 
ATOM      9  C   UNL     1      -1.480   7.343  -4.720  0.00  0.00    +0.195 A 
ATOM     10  O   UNL     1      -1.992   8.135  -3.700  0.00  0.00    -0.287 OA
ATOM     11  C   UNL     1      -0.141   7.424  -5.056  0.00  0.00    +0.037 A 
ATOM     12  C   UNL     1       2.520   7.169  -4.984  0.00  0.00    +0.004 C 
ATOM     13  C   UNL     1       2.279   7.627  -7.313  0.00  0.00    +0.021 C 
ATOM     14  C   UNL     1       1.857   4.586  -5.150  0.00  0.00    +0.002 C 
ATOM     15  C   UNL     1       0.329   4.353  -6.843  0.00  0.00    +0.042 C 
ATOM     16  C   UNL     1       2.563   6.665  -8.470  0.00  0.00    +0.073 C 
ENDROOT
BRANCH   1  17
ATOM     17  C   UNL     1       1.235   5.349  -9.768  0.00  0.00    +0.098 C 
BRANCH  17  20
ATOM     18  C   UNL     1       1.301   6.832 -12.611  0.00  0.00    +0.026 C 
ATOM     19  C   UNL     1       0.310   6.876 -11.510  0.00  0.00    -0.047 C 
ATOM     20  C   UNL     1       0.191   5.949 -10.585  0.00  0.00    -0.017 C 
ATOM     21  C   UNL     1      -0.945   7.648 -11.808  0.00  0.00    +0.026 C 
ENDBRANCH  17  20
ENDBRANCH   1  17
TORSDOF 2
ENDMDL
MODEL 7
REMARK VINA RESULT:      -6.7      2.556      4.022
REMARK  Name = 
REMARK  2 active torsions:
REMARK  status: ('A' for Active; 'I' for Inactive)
REMARK    1  A    between atoms: C_4  and  C_5
REMARK    2  A    between atoms: C_5  and  N_6
REMARK                            x       y       z     vdW  Elec       q    Type
REMARK                         _______ _______ _______ _____ _____    ______ ____
ROOT
ATOM      1  N   UNL     1       3.411   5.075  -7.649  0.00  0.00    -0.270 NA
ATOM      2  C   UNL     1       2.515   6.345  -7.969  0.00  0.00    +0.062 C 
ATOM      3  C   UNL     1       1.110   5.817  -7.091  0.00  0.00    +0.019 C 
ATOM      4  C   UNL     1       1.831   4.967  -5.912  0.00  0.00    +0.021 C 
ATOM      5  C   UNL     1       2.728   5.697  -5.125  0.00  0.00    -0.023 A 
ATOM      6  C   UNL     1       3.658   6.501  -5.720  0.00  0.00    -0.025 A 
ATOM      7  C   UNL     1       4.643   7.038  -4.920  0.00  0.00    -0.001 A 
ATOM      8  C   UNL     1       4.623   6.907  -3.535  0.00  0.00    +0.042 A 
ATOM      9  C   UNL     1       3.658   6.131  -2.918  0.00  0.00    +0.195 A 
ATOM     10  O   UNL     1       3.552   5.993  -1.539  0.00  0.00    -0.287 OA
ATOM     11  C   UNL     1       2.781   5.462  -3.751  0.00  0.00    +0.037 A 
ATOM     12  C   UNL     1       0.567   4.755  -5.075  0.00  0.00    +0.004 C 
ATOM     13  C   UNL     1       2.163   3.618  -6.437  0.00  0.00    +0.021 C 
ATOM     14  C   UNL     1       0.954   7.163  -6.165  0.00  0.00    +0.002 C 
ATOM     15  C   UNL     1       3.151   7.310  -6.800  0.00  0.00    +0.042 C 
ATOM     16  C   UNL     1       2.516   3.935  -7.891  0.00  0.00    +0.073 C 
ENDROOT
BRANCH   1  17
ATOM     17  C   UNL     1       4.220   5.086  -8.869  0.00  0.00    +0.098 C 
BRANCH  17  20
ATOM     18  C   UNL     1       5.080   5.411 -11.942  0.00  0.00    +0.026 C 
ATOM     19  C   UNL     1       3.809   5.722 -11.246  0.00  0.00    -0.047 C 
ATOM     20  C   UNL     1       3.447   5.194 -10.097  0.00  0.00    -0.017 C 
ATOM     21  C   UNL     1       2.678   6.150 -12.139  0.00  0.00    +0.026 C 
ENDBRANCH  17  20
ENDBRANCH   1  17
TORSDOF 2
ENDMDL
MODEL 8
REMARK VINA RESULT:      -6.7      2.979      5.120
REMARK  Name = 
REMARK  2 active torsions:
REMARK  status: ('A' for Active; 'I' for Inactive)
REMARK    1  A    between atoms: C_4  and  C_5
REMARK    2  A    between atoms: C_5  and  N_6
REMARK                            x       y       z     vdW  Elec       q    Type
REMARK                         _______ _______ _______ _____ _____    ______ ____
ROOT
ATOM      1  N   UNL     1       0.387   6.128  -6.172  0.00  0.00    -0.270 NA
ATOM      2  C   UNL     1       0.880   4.620  -6.129  0.00  0.00    +0.062 C 
ATOM      3  C   UNL     1       2.502   4.932  -6.672  0.00  0.00    +0.019 C 
ATOM      4  C   UNL     1       2.717   6.415  -6.048  0.00  0.00    +0.021 C 
ATOM      5  C   UNL     1       2.577   6.494  -4.658  0.00  0.00    -0.023 A 
ATOM      6  C   UNL     1       1.505   5.911  -4.047  0.00  0.00    -0.025 A 
ATOM      7  C   UNL     1       1.304   6.186  -2.712  0.00  0.00    -0.001 A 
ATOM      8  C   UNL     1       2.227   6.902  -1.958  0.00  0.00    +0.042 A 
ATOM      9  C   UNL     1       3.341   7.461  -2.559  0.00  0.00    +0.195 A 
ATOM     10  O   UNL     1       4.325   8.149  -1.860  0.00  0.00    -0.287 OA
ATOM     11  C   UNL     1       3.437   7.318  -3.931  0.00  0.00    +0.037 A 
ATOM     12  C   UNL     1       4.214   6.501  -6.356  0.00  0.00    +0.004 C 
ATOM     13  C   UNL     1       2.089   7.405  -6.960  0.00  0.00    +0.021 C 
ATOM     14  C   UNL     1       3.262   4.186  -5.422  0.00  0.00    +0.002 C 
ATOM     15  C   UNL     1       1.194   4.583  -4.516  0.00  0.00    +0.042 C 
ATOM     16  C   UNL     1       0.873   6.627  -7.466  0.00  0.00    +0.073 C 
ENDROOT
BRANCH   1  17
ATOM     17  C   UNL     1      -1.025   5.870  -6.462  0.00  0.00    +0.098 C 
BRANCH  17  20
ATOM     18  C   UNL     1      -1.834   8.367  -4.619  0.00  0.00    +0.026 C 
ATOM     19  C   UNL     1      -1.888   6.908  -4.365  0.00  0.00    -0.047 C 
ATOM     20  C   UNL     1      -1.904   5.993  -5.310  0.00  0.00    -0.017 C 
ATOM     21  C   UNL     1      -2.547   6.507  -3.075  0.00  0.00    +0.026 C 
ENDBRANCH  17  20
ENDBRANCH   1  17
TORSDOF 2
ENDMDL
MODEL 9
REMARK VINA RESULT:      -6.6      2.887      4.758
REMARK  Name = 
REMARK  2 active torsions:
REMARK  status: ('A' for Active; 'I' for Inactive)
REMARK    1  A    between atoms: C_4  and  C_5
REMARK    2  A    between atoms: C_5  and  N_6
REMARK                            x       y       z     vdW  Elec       q    Type
REMARK                         _______ _______ _______ _____ _____    ______ ____
ROOT
ATOM      1  N   UNL     1       1.703   5.711  -8.472  0.00  0.00    -0.270 NA
ATOM      2  C   UNL     1       2.159   4.424  -7.662  0.00  0.00    +0.062 C 
ATOM      3  C   UNL     1       2.983   5.277  -6.391  0.00  0.00    +0.019 C 
ATOM      4  C   UNL     1       2.080   6.625  -6.339  0.00  0.00    +0.021 C 
ATOM      5  C   UNL     1       0.723   6.414  -6.070  0.00  0.00    -0.023 A 
ATOM      6  C   UNL     1       0.036   5.450  -6.750  0.00  0.00    -0.025 A 
ATOM      7  C   UNL     1      -1.333   5.415  -6.599  0.00  0.00    -0.001 A 
ATOM      8  C   UNL     1      -1.995   6.221  -5.677  0.00  0.00    +0.042 A 
ATOM      9  C   UNL     1      -1.301   7.171  -4.951  0.00  0.00    +0.195 A 
ATOM     10  O   UNL     1      -1.889   7.977  -3.984  0.00  0.00    -0.287 OA
ATOM     11  C   UNL     1       0.044   7.307  -5.241  0.00  0.00    +0.037 A 
ATOM     12  C   UNL     1       2.710   7.189  -5.063  0.00  0.00    +0.004 C 
ATOM     13  C   UNL     1       2.535   7.540  -7.417  0.00  0.00    +0.021 C 
ATOM     14  C   UNL     1       2.181   4.571  -5.144  0.00  0.00    +0.002 C 
ATOM     15  C   UNL     1       0.732   4.193  -6.879  0.00  0.00    +0.042 C 
ATOM     16  C   UNL     1       2.909   6.549  -8.521  0.00  0.00    +0.073 C 
ENDROOT
BRANCH   1  17
ATOM     17  C   UNL     1       1.698   5.116  -9.809  0.00  0.00    +0.098 C 
BRANCH  17  20
ATOM     18  C   UNL     1       1.489   6.346 -12.764  0.00  0.00    +0.026 C 
ATOM     19  C   UNL     1       2.639   5.776 -12.023  0.00  0.00    -0.047 C 
ATOM     20  C   UNL     1       2.695   5.668 -10.713  0.00  0.00    -0.017 C 
ATOM     21  C   UNL     1       3.969   5.898 -12.713  0.00  0.00    +0.026 C 
ENDBRANCH  17  20
ENDBRANCH   1  17
TORSDOF 2
ENDMDL
