MODEL 1
REMARK VINA RESULT:      -6.9      0.000      0.000
REMARK  Name = 
REMARK  5 active torsions:
REMARK  status: ('A' for Active; 'I' for Inactive)
REMARK    1  A    between atoms: O_2  and  C_3
REMARK    2  A    between atoms: C_6  and  C_7
REMARK    3  A    between atoms: C_7  and  C_8
REMARK    4  A    between atoms: C_7  and  C_12
REMARK    5  A    between atoms: C_8  and  N_9
REMARK                            x       y       z     vdW  Elec       q    Type
REMARK                         _______ _______ _______ _____ _____    ______ ____
ROOT
ATOM      1  C   UNL     1       0.988   5.959  -7.601  0.00  0.00    +0.066 C 
ENDROOT
BRANCH   1   2
ATOM      2  C   UNL     1       0.157   5.311  -6.346  0.00  0.00    +0.132 C 
ATOM      3  C   UNL     1      -1.196   5.135  -6.933  0.00  0.00    +0.031 C 
ATOM      4  C   UNL     1      -2.336   5.763  -6.241  0.00  0.00    +0.003 C 
ATOM      5  C   UNL     1      -2.057   7.033  -5.517  0.00  0.00    +0.000 C 
ATOM      6  C   UNL     1      -0.955   6.735  -4.548  0.00  0.00    +0.003 C 
ATOM      7  C   UNL     1       0.233   6.267  -5.239  0.00  0.00    +0.031 C 
ATOM      8  O   UNL     1       0.794   4.128  -6.022  0.00  0.00    -0.225 OA
ENDBRANCH   1   2
BRANCH   1  12
ATOM      9  C   UNL     1       4.853   5.129  -8.573  0.00  0.00    +0.139 A 
ATOM     10  C   UNL     1       3.905   4.188  -8.955  0.00  0.00    +0.037 A 
ATOM     11  C   UNL     1       2.624   4.239  -8.424  0.00  0.00    -0.001 A 
ATOM     12  C   UNL     1       2.302   5.062  -7.348  0.00  0.00    -0.019 A 
ATOM     13  C   UNL     1       3.387   5.731  -6.827  0.00  0.00    -0.001 A 
ATOM     14  C   UNL     1       4.630   5.800  -7.383  0.00  0.00    +0.037 A 
BRANCH   9  16
ATOM     15  C   UNL     1       6.999   5.669  -9.399  0.00  0.00    +0.252 C 
ATOM     16  O   UNL     1       5.696   5.683  -9.543  0.00  0.00    -0.471 OA
ENDBRANCH   9  16
ENDBRANCH   1  12
BRANCH   1  17
ATOM     17  C   UNL     1       0.372   4.900  -8.688  0.00  0.00    +0.079 C 
BRANCH  17  18
ATOM     18  N   UNL     1       0.088   5.768  -9.803  0.00  0.00    -0.270 NA
ATOM     19  C   UNL     1      -0.041   5.017 -11.041  0.00  0.00    +0.090 C 
ATOM     20  C   UNL     1       0.996   6.877  -9.933  0.00  0.00    +0.090 C 
ENDBRANCH  17  18
ENDBRANCH   1  17
TORSDOF 5
ENDMDL
MODEL 2
REMARK VINA RESULT:      -6.8      3.055      5.007
REMARK  Name = 
REMARK  5 active torsions:
REMARK  status: ('A' for Active; 'I' for Inactive)
REMARK    1  A    between atoms: O_2  and  C_3
REMARK    2  A    between atoms: C_6  and  C_7
REMARK    3  A    between atoms: C_7  and  C_8
REMARK    4  A    between atoms: C_7  and  C_12
REMARK    5  A    between atoms: C_8  and  N_9
REMARK                            x       y       z     vdW  Elec       q    Type
REMARK                         _______ _______ _______ _____ _____    ______ ____
ROOT
ATOM      1  C   UNL     1       3.065   5.579  -9.864  0.00  0.00    +0.066 C 
ENDROOT
BRANCH   1   2
ATOM      2  C   UNL     1       1.614   6.171 -10.343  0.00  0.00    +0.132 C 
ATOM      3  C   UNL     1       0.708   5.029 -10.057  0.00  0.00    +0.031 C 
ATOM      4  C   UNL     1      -0.112   4.504 -11.163  0.00  0.00    +0.003 C 
ATOM      5  C   UNL     1       0.476   4.595 -12.528  0.00  0.00    +0.000 C 
ATOM      6  C   UNL     1       0.799   6.039 -12.754  0.00  0.00    +0.003 C 
ATOM      7  C   UNL     1       1.737   6.525 -11.759  0.00  0.00    +0.031 C 
ATOM      8  O   UNL     1       1.374   7.293  -9.572  0.00  0.00    -0.225 OA
ENDBRANCH   1   2
BRANCH   1  12
ATOM      9  C   UNL     1       6.645   6.276 -11.672  0.00  0.00    +0.139 A 
ATOM     10  C   UNL     1       6.076   7.348 -10.996  0.00  0.00    +0.037 A 
ATOM     11  C   UNL     1       4.746   7.294 -10.602  0.00  0.00    -0.001 A 
ATOM     12  C   UNL     1       3.882   6.297 -11.051  0.00  0.00    -0.019 A 
ATOM     13  C   UNL     1       4.456   5.452 -11.975  0.00  0.00    -0.001 A 
ATOM     14  C   UNL     1       5.778   5.398 -12.301  0.00  0.00    +0.037 A 
BRANCH   9  16
ATOM     15  C   UNL     1       8.894   5.826 -12.234  0.00  0.00    +0.252 C 
ATOM     16  O   UNL     1       7.940   5.866 -11.337  0.00  0.00    -0.471 OA
ENDBRANCH   9  16
ENDBRANCH   1  12
BRANCH   1  17
ATOM     17  C   UNL     1       3.337   6.810  -8.818  0.00  0.00    +0.079 C 
BRANCH  17  18
ATOM     18  N   UNL     1       3.438   6.103  -7.566  0.00  0.00    -0.270 NA
ATOM     19  C   UNL     1       3.110   6.965  -6.443  0.00  0.00    +0.090 C 
ATOM     20  C   UNL     1       4.687   5.415  -7.376  0.00  0.00    +0.090 C 
ENDBRANCH  17  18
ENDBRANCH   1  17
TORSDOF 5
ENDMDL
MODEL 3
REMARK VINA RESULT:      -6.8      2.720      6.494
REMARK  Name = 
REMARK  5 active torsions:
REMARK  status: ('A' for Active; 'I' for Inactive)
REMARK    1  A    between atoms: O_2  and  C_3
REMARK    2  A    between atoms: C_6  and  C_7
REMARK    3  A    between atoms: C_7  and  C_8
REMARK    4  A    between atoms: C_7  and  C_12
REMARK    5  A    between atoms: C_8  and  N_9
REMARK                            x       y       z     vdW  Elec       q    Type
REMARK                         _______ _______ _______ _____ _____    ______ ____
ROOT
ATOM      1  C   UNL     1       1.173   6.287  -5.298  0.00  0.00    +0.066 C 
ENDROOT
BRANCH   1   2
ATOM      2  C   UNL     1       1.135   5.178  -6.503  0.00  0.00    +0.132 C 
ATOM      3  C   UNL     1       2.413   5.449  -7.210  0.00  0.00    +0.031 C 
ATOM      4  C   UNL     1       2.353   5.747  -8.652  0.00  0.00    +0.003 C 
ATOM      5  C   UNL     1       1.132   6.447  -9.138  0.00  0.00    +0.000 C 
ATOM      6  C   UNL     1      -0.032   5.599  -8.729  0.00  0.00    +0.003 C 
ATOM      7  C   UNL     1      -0.075   5.433  -7.288  0.00  0.00    +0.031 C 
ATOM      8  O   UNL     1       1.076   3.938  -5.893  0.00  0.00    -0.225 OA
ENDBRANCH   1   2
BRANCH   1  12
ATOM      9  C   UNL     1      -1.983   7.363  -2.964  0.00  0.00    +0.139 A 
ATOM     10  C   UNL     1      -1.590   6.033  -2.896  0.00  0.00    +0.037 A 
ATOM     11  C   UNL     1      -0.729   5.513  -3.851  0.00  0.00    -0.001 A 
ATOM     12  C   UNL     1      -0.410   6.209  -5.016  0.00  0.00    -0.019 A 
ATOM     13  C   UNL     1      -1.098   7.394  -5.150  0.00  0.00    -0.001 A 
ATOM     14  C   UNL     1      -1.860   7.993  -4.191  0.00  0.00    +0.037 A 
BRANCH   9  16
ATOM     15  C   UNL     1      -1.722   7.603  -0.629  0.00  0.00    +0.252 C 
ATOM     16  O   UNL     1      -2.043   8.121  -1.789  0.00  0.00    -0.471 OA
ENDBRANCH   9  16
ENDBRANCH   1  12
BRANCH   1  17
ATOM     17  C   UNL     1       1.520   5.176  -4.147  0.00  0.00    +0.079 C 
BRANCH  17  18
ATOM     18  N   UNL     1       2.719   5.728  -3.568  0.00  0.00    -0.270 NA
ATOM     19  C   UNL     1       2.875   7.132  -3.910  0.00  0.00    +0.090 C 
ATOM     20  C   UNL     1       3.909   4.967  -3.840  0.00  0.00    +0.090 C 
ENDBRANCH  17  18
ENDBRANCH   1  17
TORSDOF 5
ENDMDL
MODEL 4
REMARK VINA RESULT:      -6.7      2.494      4.462
REMARK  Name = 
REMARK  5 active torsions:
REMARK  status: ('A' for Active; 'I' for Inactive)
REMARK    1  A    between atoms: O_2  and  C_3
REMARK    2  A    between atoms: C_6  and  C_7
REMARK    3  A    between atoms: C_7  and  C_8
REMARK    4  A    between atoms: C_7  and  C_12
REMARK    5  A    between atoms: C_8  and  N_9
REMARK                            x       y       z     vdW  Elec       q    Type
REMARK                         _______ _______ _______ _____ _____    ______ ____
ROOT
ATOM      1  C   UNL     1       2.440   5.950  -8.258  0.00  0.00    +0.066 C 
ENDROOT
BRANCH   1   2
ATOM      2  C   UNL     1       2.102   7.133  -7.176  0.00  0.00    +0.132 C 
ATOM      3  C   UNL     1       3.234   7.010  -6.223  0.00  0.00    +0.031 C 
ATOM      4  C   UNL     1       2.917   6.807  -4.798  0.00  0.00    +0.003 C 
ATOM      5  C   UNL     1       1.671   6.049  -4.494  0.00  0.00    +0.000 C 
ATOM      6  C   UNL     1       0.557   6.776  -5.181  0.00  0.00    +0.003 C 
ATOM      7  C   UNL     1       0.781   6.839  -6.614  0.00  0.00    +0.031 C 
ATOM      8  O   UNL     1       2.083   8.320  -7.885  0.00  0.00    -0.225 OA
ENDBRANCH   1   2
BRANCH   1  12
ATOM      9  C   UNL     1       0.327   5.190 -11.653  0.00  0.00    +0.139 A 
ATOM     10  C   UNL     1       0.855   6.469 -11.528  0.00  0.00    +0.037 A 
ATOM     11  C   UNL     1       1.333   6.906 -10.301  0.00  0.00    -0.001 A 
ATOM     12  C   UNL     1       1.105   6.196  -9.124  0.00  0.00    -0.019 A 
ATOM     13  C   UNL     1       0.296   5.095  -9.297  0.00  0.00    -0.001 A 
ATOM     14  C   UNL     1      -0.097   4.568 -10.491  0.00  0.00    +0.037 A 
BRANCH   9  16
ATOM     15  C   UNL     1       1.069   4.990 -13.887  0.00  0.00    +0.252 C 
ATOM     16  O   UNL     1       0.644   4.427 -12.782  0.00  0.00    -0.471 OA
ENDBRANCH   9  16
ENDBRANCH   1  12
BRANCH   1  17
ATOM     17  C   UNL     1       3.339   6.935  -9.208  0.00  0.00    +0.079 C 
BRANCH  17  18
ATOM     18  N   UNL     1       4.520   6.135  -9.414  0.00  0.00    -0.270 NA
ATOM     19  C   UNL     1       5.057   6.316 -10.752  0.00  0.00    +0.090 C 
ATOM     20  C   UNL     1       4.356   4.745  -9.077  0.00  0.00    +0.090 C 
ENDBRANCH  17  18
ENDBRANCH   1  17
TORSDOF 5
ENDMDL
MODEL 5
REMARK VINA RESULT:      -6.7      2.067      6.251
REMARK  Name = 
REMARK  5 active torsions:
REMARK  status: ('A' for Active; 'I' for Inactive)
REMARK    1  A    between atoms: O_2  and  C_3
REMARK    2  A    between atoms: C_6  and  C_7
REMARK    3  A    between atoms: C_7  and  C_8
REMARK    4  A    between atoms: C_7  and  C_12
REMARK    5  A    between atoms: C_8  and  N_9
REMARK                            x       y       z     vdW  Elec       q    Type
REMARK                         _______ _______ _______ _____ _____    ______ ____
ROOT
ATOM      1  C   UNL     1       3.582   5.998  -7.833  0.00  0.00    +0.066 C 
ENDROOT
BRANCH   1   2
ATOM      2  C   UNL     1       4.347   5.169  -9.022  0.00  0.00    +0.132 C 
ATOM      3  C   UNL     1       5.767   5.262  -8.595  0.00  0.00    +0.031 C 
ATOM      4  C   UNL     1       6.739   5.827  -9.548  0.00  0.00    +0.003 C 
ATOM      5  C   UNL     1       6.228   6.869 -10.481  0.00  0.00    +0.000 C 
ATOM      6  C   UNL     1       5.074   6.254 -11.211  0.00  0.00    +0.003 C 
ATOM      7  C   UNL     1       4.034   5.840 -10.286  0.00  0.00    +0.031 C 
ATOM      8  O   UNL     1       3.831   3.887  -9.002  0.00  0.00    -0.225 OA
ENDBRANCH   1   2
BRANCH   1  12
ATOM      9  C   UNL     1      -0.069   5.107  -6.268  0.00  0.00    +0.139 A 
ATOM     10  C   UNL     1       0.963   4.225  -5.969  0.00  0.00    +0.037 A 
ATOM     11  C   UNL     1       2.153   4.283  -6.681  0.00  0.00    -0.001 A 
ATOM     12  C   UNL     1       2.285   5.043  -7.841  0.00  0.00    -0.019 A 
ATOM     13  C   UNL     1       1.109   5.639  -8.240  0.00  0.00    -0.001 A 
ATOM     14  C   UNL     1      -0.044   5.703  -7.517  0.00  0.00    +0.037 A 
BRANCH   9  16
ATOM     15  C   UNL     1      -0.773   6.991  -5.030  0.00  0.00    +0.252 C 
ATOM     16  O   UNL     1      -0.790   5.695  -5.224  0.00  0.00    -0.471 OA
ENDBRANCH   9  16
ENDBRANCH   1  12
BRANCH   1  17
ATOM     17  C   UNL     1       4.305   5.148  -6.635  0.00  0.00    +0.079 C 
BRANCH  17  18
ATOM     18  N   UNL     1       4.564   6.184  -5.667  0.00  0.00    -0.270 NA
ATOM     19  C   UNL     1       4.836   5.626  -4.353  0.00  0.00    +0.090 C 
ATOM     20  C   UNL     1       3.560   7.214  -5.622  0.00  0.00    +0.090 C 
ENDBRANCH  17  18
ENDBRANCH   1  17
TORSDOF 5
ENDMDL
MODEL 6
REMARK VINA RESULT:      -6.6      2.693      6.539
REMARK  Name = 
REMARK  5 active torsions:
REMARK  status: ('A' for Active; 'I' for Inactive)
REMARK    1  A    between atoms: O_2  and  C_3
REMARK    2  A    between atoms: C_6  and  C_7
REMARK    3  A    between atoms: C_7  and  C_8
REMARK    4  A    between atoms: C_7  and  C_12
REMARK    5  A    between atoms: C_8  and  N_9
REMARK                            x       y       z     vdW  Elec       q    Type
REMARK                         _______ _______ _______ _____ _____    ______ ____
ROOT
ATOM      1  C   UNL     1       4.534   5.637 -10.673  0.00  0.00    +0.066 C 
ENDROOT
BRANCH   1   2
ATOM      2  C   UNL     1       5.693   6.632 -11.266  0.00  0.00    +0.132 C 
ATOM      3  C   UNL     1       5.758   6.213 -12.689  0.00  0.00    +0.031 C 
ATOM      4  C   UNL     1       7.064   5.789 -13.224  0.00  0.00    +0.003 C 
ATOM      5  C   UNL     1       7.995   5.131 -12.266  0.00  0.00    +0.000 C 
ATOM      6  C   UNL     1       8.179   6.089 -11.131  0.00  0.00    +0.003 C 
ATOM      7  C   UNL     1       6.911   6.388 -10.490  0.00  0.00    +0.031 C 
ATOM      8  O   UNL     1       5.237   7.924 -11.075  0.00  0.00    -0.225 OA
ENDBRANCH   1   2
BRANCH   1  12
ATOM      9  C   UNL     1       2.931   5.798  -6.934  0.00  0.00    +0.139 A 
ATOM     10  C   UNL     1       2.630   6.858  -7.781  0.00  0.00    +0.037 A 
ATOM     11  C   UNL     1       3.351   7.036  -8.953  0.00  0.00    -0.001 A 
ATOM     12  C   UNL     1       4.521   6.326  -9.217  0.00  0.00    -0.019 A 
ATOM     13  C   UNL     1       4.918   5.520  -8.173  0.00  0.00    -0.001 A 
ATOM     14  C   UNL     1       4.187   5.229  -7.060  0.00  0.00    +0.037 A 
BRANCH   9  16
ATOM     15  C   UNL     1       1.911   3.764  -6.303  0.00  0.00    +0.252 C 
ATOM     16  O   UNL     1       1.887   5.073  -6.349  0.00  0.00    -0.471 OA
ENDBRANCH   9  16
ENDBRANCH   1  12
BRANCH   1  17
ATOM     17  C   UNL     1       3.307   6.572 -11.220  0.00  0.00    +0.079 C 
BRANCH  17  18
ATOM     18  N   UNL     1       2.468   5.593 -11.866  0.00  0.00    -0.270 NA
ATOM     19  C   UNL     1       2.261   5.915 -13.268  0.00  0.00    +0.090 C 
ATOM     20  C   UNL     1       1.231   5.332 -11.180  0.00  0.00    +0.090 C 
ENDBRANCH  17  18
ENDBRANCH   1  17
TORSDOF 5
ENDMDL
MODEL 7
REMARK VINA RESULT:      -6.6      2.667      5.093
REMARK  Name = 
REMARK  5 active torsions:
REMARK  status: ('A' for Active; 'I' for Inactive)
REMARK    1  A    between atoms: O_2  and  C_3
REMARK    2  A    between atoms: C_6  and  C_7
REMARK    3  A    between atoms: C_7  and  C_8
REMARK    4  A    between atoms: C_7  and  C_12
REMARK    5  A    between atoms: C_8  and  N_9
REMARK                            x       y       z     vdW  Elec       q    Type
REMARK                         _______ _______ _______ _____ _____    ______ ____
ROOT
ATOM      1  C   UNL     1       2.043   6.034  -7.115  0.00  0.00    +0.066 C 
ENDROOT
BRANCH   1   2
ATOM      2  C   UNL     1       2.277   7.055  -8.375  0.00  0.00    +0.132 C 
ATOM      3  C   UNL     1       1.196   6.645  -9.306  0.00  0.00    +0.031 C 
ATOM      4  C   UNL     1       1.576   6.250 -10.674  0.00  0.00    +0.003 C 
ATOM      5  C   UNL     1       2.908   5.604 -10.834  0.00  0.00    +0.000 C 
ATOM      6  C   UNL     1       3.912   6.559 -10.266  0.00  0.00    +0.003 C 
ATOM      7  C   UNL     1       3.639   6.829  -8.867  0.00  0.00    +0.031 C 
ATOM      8  O   UNL     1       2.139   8.336  -7.873  0.00  0.00    -0.225 OA
ENDBRANCH   1   2
BRANCH   1  12
ATOM      9  C   UNL     1       4.476   5.679  -3.870  0.00  0.00    +0.139 A 
ATOM     10  C   UNL     1       3.900   6.927  -4.076  0.00  0.00    +0.037 A 
ATOM     11  C   UNL     1       3.300   7.222  -5.292  0.00  0.00    -0.001 A 
ATOM     12  C   UNL     1       3.443   6.398  -6.407  0.00  0.00    -0.019 A 
ATOM     13  C   UNL     1       4.297   5.338  -6.197  0.00  0.00    -0.001 A 
ATOM     14  C   UNL     1       4.813   4.948  -4.997  0.00  0.00    +0.037 A 
BRANCH   9  16
ATOM     15  C   UNL     1       3.352   5.416  -1.810  0.00  0.00    +0.252 C 
ATOM     16  O   UNL     1       4.286   5.032  -2.644  0.00  0.00    -0.471 OA
ENDBRANCH   9  16
ENDBRANCH   1  12
BRANCH   1  17
ATOM     17  C   UNL     1       1.215   7.141  -6.238  0.00  0.00    +0.079 C 
BRANCH  17  18
ATOM     18  N   UNL     1      -0.003   6.426  -5.951  0.00  0.00    -0.270 NA
ATOM     19  C   UNL     1      -0.809   7.125  -4.964  0.00  0.00    +0.090 C 
ATOM     20  C   UNL     1       0.193   5.042  -5.611  0.00  0.00    +0.090 C 
ENDBRANCH  17  18
ENDBRANCH   1  17
TORSDOF 5
ENDMDL
MODEL 8
REMARK VINA RESULT:      -6.5      2.952      4.798
REMARK  Name = 
REMARK  5 active torsions:
REMARK  status: ('A' for Active; 'I' for Inactive)
REMARK    1  A    between atoms: O_2  and  C_3
REMARK    2  A    between atoms: C_6  and  C_7
REMARK    3  A    between atoms: C_7  and  C_8
REMARK    4  A    between atoms: C_7  and  C_12
REMARK    5  A    between atoms: C_8  and  N_9
REMARK                            x       y       z     vdW  Elec       q    Type
REMARK                         _______ _______ _______ _____ _____    ______ ____
ROOT
ATOM      1  C   UNL     1       2.940   6.433  -9.958  0.00  0.00    +0.066 C 
ENDROOT
BRANCH   1   2
ATOM      2  C   UNL     1       1.636   5.708 -10.635  0.00  0.00    +0.132 C 
ATOM      3  C   UNL     1       1.985   5.734 -12.078  0.00  0.00    +0.031 C 
ATOM      4  C   UNL     1       1.034   6.368 -13.007  0.00  0.00    +0.003 C 
ATOM      5  C   UNL     1       0.234   7.503 -12.469  0.00  0.00    +0.000 C 
ATOM      6  C   UNL     1      -0.481   6.982 -11.262  0.00  0.00    +0.003 C 
ATOM      7  C   UNL     1       0.460   6.501 -10.267  0.00  0.00    +0.031 C 
ATOM      8  O   UNL     1       1.566   4.439 -10.090  0.00  0.00    -0.225 OA
ENDBRANCH   1   2
BRANCH   1  12
ATOM      9  C   UNL     1       3.517   6.810  -5.946  0.00  0.00    +0.139 A 
ATOM     10  C   UNL     1       4.083   5.694  -6.549  0.00  0.00    +0.037 A 
ATOM     11  C   UNL     1       3.703   5.331  -7.833  0.00  0.00    -0.001 A 
ATOM     12  C   UNL     1       2.608   5.910  -8.472  0.00  0.00    -0.019 A 
ATOM     13  C   UNL     1       1.911   6.788  -7.672  0.00  0.00    -0.001 A 
ATOM     14  C   UNL     1       2.310   7.256  -6.457  0.00  0.00    +0.037 A 
BRANCH   9  16
ATOM     15  C   UNL     1       5.055   7.247  -4.207  0.00  0.00    +0.252 C 
ATOM     16  O   UNL     1       4.332   7.678  -5.212  0.00  0.00    -0.471 OA
ENDBRANCH   9  16
ENDBRANCH   1  12
BRANCH   1  17
ATOM     17  C   UNL     1       3.934   5.171 -10.273  0.00  0.00    +0.079 C 
BRANCH  17  18
ATOM     18  N   UNL     1       5.114   5.849 -10.747  0.00  0.00    -0.270 NA
ATOM     19  C   UNL     1       4.955   7.292 -10.693  0.00  0.00    +0.090 C 
ATOM     20  C   UNL     1       5.574   5.400 -12.035  0.00  0.00    +0.090 C 
ENDBRANCH  17  18
ENDBRANCH   1  17
TORSDOF 5
ENDMDL
MODEL 9
REMARK VINA RESULT:      -6.5      2.392      3.971
REMARK  Name = 
REMARK  5 active torsions:
REMARK  status: ('A' for Active; 'I' for Inactive)
REMARK    1  A    between atoms: O_2  and  C_3
REMARK    2  A    between atoms: C_6  and  C_7
REMARK    3  A    between atoms: C_7  and  C_8
REMARK    4  A    between atoms: C_7  and  C_12
REMARK    5  A    between atoms: C_8  and  N_9
REMARK                            x       y       z     vdW  Elec       q    Type
REMARK                         _______ _______ _______ _____ _____    ______ ____
ROOT
ATOM      1  C   UNL     1       1.166   5.385  -5.492  0.00  0.00    +0.066 C 
ENDROOT
BRANCH   1   2
ATOM      2  C   UNL     1       0.469   6.331  -4.350  0.00  0.00    +0.132 C 
ATOM      3  C   UNL     1      -0.191   5.325  -3.479  0.00  0.00    +0.031 C 
ATOM      4  C   UNL     1      -1.639   5.462  -3.242  0.00  0.00    +0.003 C 
ATOM      5  C   UNL     1      -2.442   6.052  -4.348  0.00  0.00    +0.000 C 
ATOM      6  C   UNL     1      -1.831   7.386  -4.649  0.00  0.00    +0.003 C 
ATOM      7  C   UNL     1      -0.442   7.245  -5.044  0.00  0.00    +0.031 C 
ATOM      8  O   UNL     1       1.496   7.027  -3.738  0.00  0.00    -0.225 OA
ENDBRANCH   1   2
BRANCH   1  12
ATOM      9  C   UNL     1       1.255   6.180  -9.483  0.00  0.00    +0.139 A 
ATOM     10  C   UNL     1       1.837   7.129  -8.652  0.00  0.00    +0.037 A 
ATOM     11  C   UNL     1       1.603   7.090  -7.285  0.00  0.00    -0.001 A 
ATOM     12  C   UNL     1       0.626   6.270  -6.724  0.00  0.00    -0.019 A 
ATOM     13  C   UNL     1      -0.122   5.593  -7.662  0.00  0.00    -0.001 A 
ATOM     14  C   UNL     1       0.144   5.513  -8.996  0.00  0.00    +0.037 A 
BRANCH   9  16
ATOM     15  C   UNL     1       1.677   5.779 -11.772  0.00  0.00    +0.252 C 
ATOM     16  O   UNL     1       2.014   5.618 -10.516  0.00  0.00    -0.471 OA
ENDBRANCH   9  16
ENDBRANCH   1  12
BRANCH   1  17
ATOM     17  C   UNL     1       2.593   6.185  -5.432  0.00  0.00    +0.079 C 
BRANCH  17  18
ATOM     18  N   UNL     1       3.534   5.104  -5.584  0.00  0.00    -0.270 NA
ATOM     19  C   UNL     1       4.061   4.675  -4.300  0.00  0.00    +0.090 C 
ATOM     20  C   UNL     1       4.576   5.360  -6.542  0.00  0.00    +0.090 C 
ENDBRANCH  17  18
ENDBRANCH   1  17
TORSDOF 5
ENDMDL
