MODEL 1
REMARK VINA RESULT:      -5.2      0.000      0.000
REMARK  Name = 
REMARK  1 active torsions:
REMARK  status: ('A' for Active; 'I' for Inactive)
REMARK    1  A    between atoms: N_4  and  C_5
REMARK                            x       y       z     vdW  Elec       q    Type
REMARK                         _______ _______ _______ _____ _____    ______ ____
ROOT
ATOM      1  C   UNL     1       5.061   5.864  -9.778  0.00  0.00    +0.084 A 
ATOM      2  C   UNL     1       6.217   5.491  -9.104  0.00  0.00    +0.022 A 
ATOM      3  C   UNL     1       7.479   5.714  -9.639  0.00  0.00    +0.044 A 
ATOM      4  C   UNL     1       7.606   6.551 -10.740  0.00  0.00    +0.196 A 
ATOM      5  O   UNL     1       8.641   6.333 -11.655  0.00  0.00    -0.287 OA
ATOM      6  C   UNL     1       6.484   7.301 -11.077  0.00  0.00    +0.044 A 
ATOM      7  C   UNL     1       5.217   6.906 -10.684  0.00  0.00    +0.022 A 
ENDROOT
BRANCH   1  10
ATOM      8  C   UNL     1       3.018   5.925  -7.879  0.00  0.00    +0.100 C 
ATOM      9  C   UNL     1       3.251   4.766  -8.781  0.00  0.00    +0.256 C 
ATOM     10  N   UNL     1       3.924   5.000  -9.868  0.00  0.00    -0.212 NA
ATOM     11  O   UNL     1       2.626   3.531  -8.578  0.00  0.00    -0.270 OA
ENDBRANCH   1  10
TORSDOF 1
ENDMDL
MODEL 2
REMARK VINA RESULT:      -5.0      6.689      8.269
REMARK  Name = 
REMARK  1 active torsions:
REMARK  status: ('A' for Active; 'I' for Inactive)
REMARK    1  A    between atoms: N_4  and  C_5
REMARK                            x       y       z     vdW  Elec       q    Type
REMARK                         _______ _______ _______ _____ _____    ______ ____
ROOT
ATOM      1  C   UNL     1      -1.712   6.577  -4.979  0.00  0.00    +0.084 A 
ATOM      2  C   UNL     1      -0.534   7.280  -5.197  0.00  0.00    +0.022 A 
ATOM      3  C   UNL     1       0.483   6.775  -5.997  0.00  0.00    +0.044 A 
ATOM      4  C   UNL     1       0.223   5.672  -6.801  0.00  0.00    +0.196 A 
ATOM      5  O   UNL     1       1.258   4.783  -7.106  0.00  0.00    -0.287 OA
ATOM      6  C   UNL     1      -1.113   5.304  -6.928  0.00  0.00    +0.044 A 
ATOM      7  C   UNL     1      -2.048   5.668  -5.976  0.00  0.00    +0.022 A 
ENDROOT
BRANCH   1  10
ATOM      8  C   UNL     1      -0.399   5.282  -2.886  0.00  0.00    +0.100 C 
ATOM      9  C   UNL     1      -1.867   5.519  -2.897  0.00  0.00    +0.256 C 
ATOM     10  N   UNL     1      -2.298   6.465  -3.679  0.00  0.00    -0.212 NA
ATOM     11  O   UNL     1      -2.727   4.897  -1.986  0.00  0.00    -0.270 OA
ENDBRANCH   1  10
TORSDOF 1
ENDMDL
MODEL 3
REMARK VINA RESULT:      -5.0      5.269      8.664
REMARK  Name = 
REMARK  1 active torsions:
REMARK  status: ('A' for Active; 'I' for Inactive)
REMARK    1  A    between atoms: N_4  and  C_5
REMARK                            x       y       z     vdW  Elec       q    Type
REMARK                         _______ _______ _______ _____ _____    ______ ____
ROOT
ATOM      1  C   UNL     1      -0.144   5.624  -5.509  0.00  0.00    +0.084 A 
ATOM      2  C   UNL     1      -1.452   6.067  -5.658  0.00  0.00    +0.022 A 
ATOM      3  C   UNL     1      -2.408   5.870  -4.670  0.00  0.00    +0.044 A 
ATOM      4  C   UNL     1      -1.998   5.455  -3.409  0.00  0.00    +0.196 A 
ATOM      5  O   UNL     1      -2.857   4.675  -2.629  0.00  0.00    -0.287 OA
ATOM      6  C   UNL     1      -0.631   5.504  -3.158  0.00  0.00    +0.044 A 
ATOM      7  C   UNL     1       0.286   5.488  -4.194  0.00  0.00    +0.022 A 
ENDROOT
BRANCH   1  10
ATOM      8  C   UNL     1       1.647   6.978  -7.165  0.00  0.00    +0.100 C 
ATOM      9  C   UNL     1       1.018   5.683  -7.539  0.00  0.00    +0.256 C 
ATOM     10  N   UNL     1       0.555   4.958  -6.566  0.00  0.00    -0.212 NA
ATOM     11  O   UNL     1       1.084   5.175  -8.841  0.00  0.00    -0.270 OA
ENDBRANCH   1  10
TORSDOF 1
ENDMDL
MODEL 4
REMARK VINA RESULT:      -4.9      1.956      4.429
REMARK  Name = 
REMARK  1 active torsions:
REMARK  status: ('A' for Active; 'I' for Inactive)
REMARK    1  A    between atoms: N_4  and  C_5
REMARK                            x       y       z     vdW  Elec       q    Type
REMARK                         _______ _______ _______ _____ _____    ______ ____
ROOT
ATOM      1  C   UNL     1       6.277   6.576 -10.618  0.00  0.00    +0.084 A 
ATOM      2  C   UNL     1       5.062   7.246 -10.546  0.00  0.00    +0.022 A 
ATOM      3  C   UNL     1       3.988   6.738  -9.827  0.00  0.00    +0.044 A 
ATOM      4  C   UNL     1       4.203   5.678  -8.955  0.00  0.00    +0.196 A 
ATOM      5  O   UNL     1       3.170   4.766  -8.713  0.00  0.00    -0.287 OA
ATOM      6  C   UNL     1       5.530   5.362  -8.683  0.00  0.00    +0.044 A 
ATOM      7  C   UNL     1       6.542   5.720  -9.555  0.00  0.00    +0.022 A 
ENDROOT
BRANCH   1  10
ATOM      8  C   UNL     1       5.222   5.142 -12.766  0.00  0.00    +0.100 C 
ATOM      9  C   UNL     1       6.672   5.438 -12.625  0.00  0.00    +0.256 C 
ATOM     10  N   UNL     1       6.991   6.432 -11.850  0.00  0.00    -0.212 NA
ATOM     11  O   UNL     1       7.638   4.813 -13.420  0.00  0.00    -0.270 OA
ENDBRANCH   1  10
TORSDOF 1
ENDMDL
MODEL 5
REMARK VINA RESULT:      -4.8      4.685      7.845
REMARK  Name = 
REMARK  1 active torsions:
REMARK  status: ('A' for Active; 'I' for Inactive)
REMARK    1  A    between atoms: N_4  and  C_5
REMARK                            x       y       z     vdW  Elec       q    Type
REMARK                         _______ _______ _______ _____ _____    ______ ____
ROOT
ATOM      1  C   UNL     1       0.093   5.646  -6.492  0.00  0.00    +0.084 A 
ATOM      2  C   UNL     1       0.202   6.419  -5.343  0.00  0.00    +0.022 A 
ATOM      3  C   UNL     1      -0.869   7.152  -4.850  0.00  0.00    +0.044 A 
ATOM      4  C   UNL     1      -2.140   6.914  -5.358  0.00  0.00    +0.196 A 
ATOM      5  O   UNL     1      -3.073   7.954  -5.394  0.00  0.00    -0.287 OA
ATOM      6  C   UNL     1      -2.283   5.781  -6.153  0.00  0.00    +0.044 A 
ATOM      7  C   UNL     1      -1.194   5.215  -6.792  0.00  0.00    +0.022 A 
ENDROOT
BRANCH   1  10
ATOM      8  C   UNL     1       2.124   3.735  -6.543  0.00  0.00    +0.100 C 
ATOM      9  C   UNL     1       2.223   5.040  -7.249  0.00  0.00    +0.256 C 
ATOM     10  N   UNL     1       1.103   5.649  -7.506  0.00  0.00    -0.212 NA
ATOM     11  O   UNL     1       3.429   5.506  -7.781  0.00  0.00    -0.270 OA
ENDBRANCH   1  10
TORSDOF 1
ENDMDL
MODEL 6
REMARK VINA RESULT:      -4.8      2.137      2.721
REMARK  Name = 
REMARK  1 active torsions:
REMARK  status: ('A' for Active; 'I' for Inactive)
REMARK    1  A    between atoms: N_4  and  C_5
REMARK                            x       y       z     vdW  Elec       q    Type
REMARK                         _______ _______ _______ _____ _____    ______ ____
ROOT
ATOM      1  C   UNL     1       7.233   6.164 -10.453  0.00  0.00    +0.084 A 
ATOM      2  C   UNL     1       7.870   5.426 -11.442  0.00  0.00    +0.022 A 
ATOM      3  C   UNL     1       7.567   5.592 -12.788  0.00  0.00    +0.044 A 
ATOM      4  C   UNL     1       6.807   6.687 -13.178  0.00  0.00    +0.196 A 
ATOM      5  O   UNL     1       5.982   6.587 -14.302  0.00  0.00    -0.287 OA
ATOM      6  C   UNL     1       6.610   7.674 -12.217  0.00  0.00    +0.044 A 
ATOM      7  C   UNL     1       6.724   7.390 -10.868  0.00  0.00    +0.022 A 
ENDROOT
BRANCH   1  10
ATOM      8  C   UNL     1       4.638   5.163 -10.239  0.00  0.00    +0.100 C 
ATOM      9  C   UNL     1       5.471   5.512  -9.058  0.00  0.00    +0.256 C 
ATOM     10  N   UNL     1       6.756   5.561  -9.246  0.00  0.00    -0.212 NA
ATOM     11  O   UNL     1       4.933   5.599  -7.770  0.00  0.00    -0.270 OA
ENDBRANCH   1  10
TORSDOF 1
ENDMDL
MODEL 7
REMARK VINA RESULT:      -4.7      1.500      2.192
REMARK  Name = 
REMARK  1 active torsions:
REMARK  status: ('A' for Active; 'I' for Inactive)
REMARK    1  A    between atoms: N_4  and  C_5
REMARK                            x       y       z     vdW  Elec       q    Type
REMARK                         _______ _______ _______ _____ _____    ______ ____
ROOT
ATOM      1  C   UNL     1       4.566   5.733  -8.976  0.00  0.00    +0.084 A 
ATOM      2  C   UNL     1       4.138   6.432 -10.098  0.00  0.00    +0.022 A 
ATOM      3  C   UNL     1       5.011   7.194 -10.863  0.00  0.00    +0.044 A 
ATOM      4  C   UNL     1       6.379   7.055 -10.662  0.00  0.00    +0.196 A 
ATOM      5  O   UNL     1       7.223   8.146 -10.894  0.00  0.00    -0.287 OA
ATOM      6  C   UNL     1       6.781   5.979  -9.877  0.00  0.00    +0.044 A 
ATOM      7  C   UNL     1       5.913   5.391  -8.974  0.00  0.00    +0.022 A 
ENDROOT
BRANCH   1  10
ATOM      8  C   UNL     1       2.652   3.783  -8.414  0.00  0.00    +0.100 C 
ATOM      9  C   UNL     1       2.692   5.100  -7.726  0.00  0.00    +0.256 C 
ATOM     10  N   UNL     1       3.825   5.738  -7.752  0.00  0.00    -0.212 NA
ATOM     11  O   UNL     1       1.634   5.555  -6.931  0.00  0.00    -0.270 OA
ENDBRANCH   1  10
TORSDOF 1
ENDMDL
MODEL 8
REMARK VINA RESULT:      -4.7      4.628      6.627
REMARK  Name = 
REMARK  1 active torsions:
REMARK  status: ('A' for Active; 'I' for Inactive)
REMARK    1  A    between atoms: N_4  and  C_5
REMARK                            x       y       z     vdW  Elec       q    Type
REMARK                         _______ _______ _______ _____ _____    ______ ____
ROOT
ATOM      1  C   UNL     1       3.501   6.603  -5.078  0.00  0.00    +0.084 A 
ATOM      2  C   UNL     1       4.539   7.418  -4.644  0.00  0.00    +0.022 A 
ATOM      3  C   UNL     1       4.966   7.417  -3.322  0.00  0.00    +0.044 A 
ATOM      4  C   UNL     1       4.529   6.408  -2.474  0.00  0.00    +0.196 A 
ATOM      5  O   UNL     1       4.388   6.670  -1.108  0.00  0.00    -0.287 OA
ATOM      6  C   UNL     1       3.889   5.330  -3.077  0.00  0.00    +0.044 A 
ATOM      7  C   UNL     1       3.296   5.456  -4.321  0.00  0.00    +0.022 A 
ENDROOT
BRANCH   1  10
ATOM      8  C   UNL     1       3.578   6.193  -7.837  0.00  0.00    +0.100 C 
ATOM      9  C   UNL     1       2.750   7.251  -7.198  0.00  0.00    +0.256 C 
ATOM     10  N   UNL     1       2.467   7.088  -5.940  0.00  0.00    -0.212 NA
ATOM     11  O   UNL     1       2.147   8.271  -7.941  0.00  0.00    -0.270 OA
ENDBRANCH   1  10
TORSDOF 1
ENDMDL
MODEL 9
REMARK VINA RESULT:      -4.6      5.114      6.605
REMARK  Name = 
REMARK  1 active torsions:
REMARK  status: ('A' for Active; 'I' for Inactive)
REMARK    1  A    between atoms: N_4  and  C_5
REMARK                            x       y       z     vdW  Elec       q    Type
REMARK                         _______ _______ _______ _____ _____    ______ ____
ROOT
ATOM      1  C   UNL     1       0.328   5.589  -5.734  0.00  0.00    +0.084 A 
ATOM      2  C   UNL     1       0.970   6.706  -6.252  0.00  0.00    +0.022 A 
ATOM      3  C   UNL     1       2.343   6.733  -6.456  0.00  0.00    +0.044 A 
ATOM      4  C   UNL     1       3.058   5.544  -6.386  0.00  0.00    +0.196 A 
ATOM      5  O   UNL     1       4.391   5.566  -5.965  0.00  0.00    -0.287 OA
ATOM      6  C   UNL     1       2.306   4.374  -6.359  0.00  0.00    +0.044 A 
ATOM      7  C   UNL     1       0.987   4.382  -5.942  0.00  0.00    +0.022 A 
ENDROOT
BRANCH   1  10
ATOM      8  C   UNL     1      -2.392   5.574  -6.349  0.00  0.00    +0.100 C 
ATOM      9  C   UNL     1      -1.855   6.105  -5.068  0.00  0.00    +0.256 C 
ATOM     10  N   UNL     1      -0.673   5.693  -4.717  0.00  0.00    -0.212 NA
ATOM     11  O   UNL     1      -2.640   6.858  -4.189  0.00  0.00    -0.270 OA
ENDBRANCH   1  10
TORSDOF 1
ENDMDL
