MODEL 1
REMARK VINA RESULT:      -6.5      0.000      0.000
REMARK  Name = 
REMARK  6 active torsions:
REMARK  status: ('A' for Active; 'I' for Inactive)
REMARK    1  A    between atoms: C_2  and  N_4
REMARK    2  A    between atoms: N_4  and  C_5
REMARK    3  A    between atoms: C_5  and  C_6
REMARK    4  A    between atoms: C_6  and  C_8
REMARK    5  A    between atoms: C_8  and  O_9
REMARK    6  A    between atoms: O_9  and  C_10
REMARK                            x       y       z     vdW  Elec       q    Type
REMARK                         _______ _______ _______ _____ _____    ______ ____
ROOT
ATOM      1  O   UNL     1       1.030   5.209  -7.313  0.00  0.00    -0.473 OA
ENDROOT
BRANCH   1   2
ATOM      2  C   UNL     1      -0.087   5.415  -6.536  0.00  0.00    +0.140 A 
ATOM      3  C   UNL     1       0.058   5.549  -5.167  0.00  0.00    +0.053 A 
ATOM      4  C   UNL     1      -1.061   5.656  -4.354  0.00  0.00    +0.084 A 
ATOM      5  N   UNL     1      -0.706   5.567  -3.055  0.00  0.00    -0.244 NA
ATOM      6  C   UNL     1       0.595   5.288  -3.016  0.00  0.00    +0.099 A 
ATOM      7  C   UNL     1      -2.333   5.813  -4.891  0.00  0.00    +0.019 A 
ATOM      8  C   UNL     1      -2.452   5.530  -6.237  0.00  0.00    +0.005 A 
ATOM      9  C   UNL     1       1.103   5.352  -4.287  0.00  0.00    +0.025 A 
ATOM     10  C   UNL     1      -1.366   5.353  -7.073  0.00  0.00    +0.037 A 
ENDBRANCH   1   2
BRANCH   1  11
ATOM     11  C   UNL     1       1.372   6.135  -8.312  0.00  0.00    +0.240 C 
BRANCH  11  12
ATOM     12  C   UNL     1       2.704   6.874  -7.644  0.00  0.00    +0.213 C 
ATOM     13  O   UNL     1       2.104   8.264  -7.874  0.00  0.00    -0.218 OA
BRANCH  12  14
ATOM     14  C   UNL     1       3.478   6.909  -9.116  0.00  0.00    +0.125 C 
BRANCH  14  15
ATOM     15  N   UNL     1       4.487   5.896  -9.040  0.00  0.00    -0.217 NA
BRANCH  15  17
ATOM     16  C   UNL     1       5.277   7.002 -10.704  0.00  0.00    +0.019 C 
ATOM     17  C   UNL     1       5.445   5.930 -10.112  0.00  0.00    +0.073 C 
ATOM     18  C   UNL     1       6.832   5.778  -9.497  0.00  0.00    +0.019 C 
ENDBRANCH  15  17
ENDBRANCH  14  15
ENDBRANCH  12  14
ENDBRANCH  11  12
ENDBRANCH   1  11
TORSDOF 6
ENDMDL
MODEL 2
REMARK VINA RESULT:      -6.5      2.079      2.662
REMARK  Name = 
REMARK  6 active torsions:
REMARK  status: ('A' for Active; 'I' for Inactive)
REMARK    1  A    between atoms: C_2  and  N_4
REMARK    2  A    between atoms: N_4  and  C_5
REMARK    3  A    between atoms: C_5  and  C_6
REMARK    4  A    between atoms: C_6  and  C_8
REMARK    5  A    between atoms: C_8  and  O_9
REMARK    6  A    between atoms: O_9  and  C_10
REMARK                            x       y       z     vdW  Elec       q    Type
REMARK                         _______ _______ _______ _____ _____    ______ ____
ROOT
ATOM      1  O   UNL     1       1.243   5.192  -6.794  0.00  0.00    -0.473 OA
ENDROOT
BRANCH   1   2
ATOM      2  C   UNL     1       0.012   5.405  -6.215  0.00  0.00    +0.140 A 
ATOM      3  C   UNL     1      -0.075   5.537  -4.841  0.00  0.00    +0.053 A 
ATOM      4  C   UNL     1      -1.315   5.651  -4.228  0.00  0.00    +0.084 A 
ATOM      5  N   UNL     1      -1.184   5.559  -2.888  0.00  0.00    -0.244 NA
ATOM      6  C   UNL     1       0.091   5.272  -2.631  0.00  0.00    +0.099 A 
ATOM      7  C   UNL     1      -2.477   5.815  -4.971  0.00  0.00    +0.019 A 
ATOM      8  C   UNL     1      -2.369   5.535  -6.319  0.00  0.00    +0.005 A 
ATOM      9  C   UNL     1       0.806   5.333  -3.798  0.00  0.00    +0.025 A 
ATOM     10  C   UNL     1      -1.158   5.351  -6.960  0.00  0.00    +0.037 A 
ENDBRANCH   1   2
BRANCH   1  11
ATOM     11  C   UNL     1       1.524   5.722  -8.063  0.00  0.00    +0.240 C 
BRANCH  11  12
ATOM     12  C   UNL     1       2.116   7.227  -7.677  0.00  0.00    +0.213 C 
ATOM     13  O   UNL     1       2.944   7.281  -8.964  0.00  0.00    -0.218 OA
BRANCH  12  14
ATOM     14  C   UNL     1       3.382   6.561  -6.830  0.00  0.00    +0.125 C 
BRANCH  14  15
ATOM     15  N   UNL     1       3.508   7.356  -5.646  0.00  0.00    -0.217 NA
BRANCH  15  17
ATOM     16  C   UNL     1       4.486   5.570  -4.959  0.00  0.00    +0.019 C 
ATOM     17  C   UNL     1       4.181   6.699  -4.558  0.00  0.00    +0.073 C 
ATOM     18  C   UNL     1       5.381   7.558  -4.172  0.00  0.00    +0.019 C 
ENDBRANCH  15  17
ENDBRANCH  14  15
ENDBRANCH  12  14
ENDBRANCH  11  12
ENDBRANCH   1  11
TORSDOF 6
ENDMDL
MODEL 3
REMARK VINA RESULT:      -6.3      2.367      7.970
REMARK  Name = 
REMARK  6 active torsions:
REMARK  status: ('A' for Active; 'I' for Inactive)
REMARK    1  A    between atoms: C_2  and  N_4
REMARK    2  A    between atoms: N_4  and  C_5
REMARK    3  A    between atoms: C_5  and  C_6
REMARK    4  A    between atoms: C_6  and  C_8
REMARK    5  A    between atoms: C_8  and  O_9
REMARK    6  A    between atoms: O_9  and  C_10
REMARK                            x       y       z     vdW  Elec       q    Type
REMARK                         _______ _______ _______ _____ _____    ______ ____
ROOT
ATOM      1  O   UNL     1       4.323   6.206  -9.253  0.00  0.00    -0.473 OA
ENDROOT
BRANCH   1   2
ATOM      2  C   UNL     1       5.452   5.956  -9.999  0.00  0.00    +0.140 A 
ATOM      3  C   UNL     1       5.329   5.752 -11.362  0.00  0.00    +0.053 A 
ATOM      4  C   UNL     1       6.438   5.399 -12.117  0.00  0.00    +0.084 A 
ATOM      5  N   UNL     1       6.062   5.048 -13.365  0.00  0.00    -0.244 NA
ATOM      6  C   UNL     1       4.731   5.053 -13.396  0.00  0.00    +0.099 A 
ATOM      7  C   UNL     1       7.718   5.416 -11.576  0.00  0.00    +0.019 A 
ATOM      8  C   UNL     1       7.782   5.481 -10.198  0.00  0.00    +0.005 A 
ATOM      9  C   UNL     1       4.259   5.557 -12.213  0.00  0.00    +0.025 A 
ATOM     10  C   UNL     1       6.690   5.767  -9.400  0.00  0.00    +0.037 A 
ENDBRANCH   1   2
BRANCH   1  11
ATOM     11  C   UNL     1       4.044   5.428  -8.118  0.00  0.00    +0.240 C 
BRANCH  11  12
ATOM     12  C   UNL     1       3.210   4.152  -8.781  0.00  0.00    +0.213 C 
ATOM     13  O   UNL     1       2.112   5.083  -9.304  0.00  0.00    -0.218 OA
BRANCH  12  14
ATOM     14  C   UNL     1       2.384   3.895  -7.360  0.00  0.00    +0.125 C 
BRANCH  14  15
ATOM     15  N   UNL     1       1.497   5.011  -7.228  0.00  0.00    -0.217 NA
BRANCH  15  17
ATOM     16  C   UNL     1       0.683   5.342  -5.267  0.00  0.00    +0.019 C 
ATOM     17  C   UNL     1       0.392   4.790  -6.335  0.00  0.00    +0.073 C 
ATOM     18  C   UNL     1      -0.859   5.356  -6.998  0.00  0.00    +0.019 C 
ENDBRANCH  15  17
ENDBRANCH  14  15
ENDBRANCH  12  14
ENDBRANCH  11  12
ENDBRANCH   1  11
TORSDOF 6
ENDMDL
MODEL 4
REMARK VINA RESULT:      -6.3      3.870      7.920
REMARK  Name = 
REMARK  6 active torsions:
REMARK  status: ('A' for Active; 'I' for Inactive)
REMARK    1  A    between atoms: C_2  and  N_4
REMARK    2  A    between atoms: N_4  and  C_5
REMARK    3  A    between atoms: C_5  and  C_6
REMARK    4  A    between atoms: C_6  and  C_8
REMARK    5  A    between atoms: C_8  and  O_9
REMARK    6  A    between atoms: O_9  and  C_10
REMARK                            x       y       z     vdW  Elec       q    Type
REMARK                         _______ _______ _______ _____ _____    ______ ____
ROOT
ATOM      1  O   UNL     1       4.742   5.986  -9.200  0.00  0.00    -0.473 OA
ENDROOT
BRANCH   1   2
ATOM      2  C   UNL     1       5.779   5.830 -10.092  0.00  0.00    +0.140 A 
ATOM      3  C   UNL     1       5.495   5.672 -11.437  0.00  0.00    +0.053 A 
ATOM      4  C   UNL     1       6.517   5.411 -12.339  0.00  0.00    +0.084 A 
ATOM      5  N   UNL     1       6.005   5.089 -13.546  0.00  0.00    -0.244 NA
ATOM      6  C   UNL     1       4.681   5.021 -13.411  0.00  0.00    +0.099 A 
ATOM      7  C   UNL     1       7.852   5.479 -11.960  0.00  0.00    +0.019 A 
ATOM      8  C   UNL     1       8.086   5.494 -10.600  0.00  0.00    +0.005 A 
ATOM      9  C   UNL     1       4.338   5.450 -12.156  0.00  0.00    +0.025 A 
ATOM     10  C   UNL     1       7.091   5.687  -9.660  0.00  0.00    +0.037 A 
ENDBRANCH   1   2
BRANCH   1  11
ATOM     11  C   UNL     1       4.248   4.878  -8.495  0.00  0.00    +0.240 C 
BRANCH  11  12
ATOM     12  C   UNL     1       2.775   5.442  -7.968  0.00  0.00    +0.213 C 
ATOM     13  O   UNL     1       2.475   4.121  -7.254  0.00  0.00    -0.218 OA
BRANCH  12  14
ATOM     14  C   UNL     1       2.027   4.918  -9.358  0.00  0.00    +0.125 C 
BRANCH  14  15
ATOM     15  N   UNL     1       1.114   5.961  -9.715  0.00  0.00    -0.217 NA
BRANCH  15  17
ATOM     16  C   UNL     1       0.099   4.815 -11.223  0.00  0.00    +0.019 C 
ATOM     17  C   UNL     1       0.656   5.909 -11.077  0.00  0.00    +0.073 C 
ATOM     18  C   UNL     1      -0.268   7.102 -11.299  0.00  0.00    +0.019 C 
ENDBRANCH  15  17
ENDBRANCH  14  15
ENDBRANCH  12  14
ENDBRANCH  11  12
ENDBRANCH   1  11
TORSDOF 6
ENDMDL
MODEL 5
REMARK VINA RESULT:      -6.2      3.403      7.880
REMARK  Name = 
REMARK  6 active torsions:
REMARK  status: ('A' for Active; 'I' for Inactive)
REMARK    1  A    between atoms: C_2  and  N_4
REMARK    2  A    between atoms: N_4  and  C_5
REMARK    3  A    between atoms: C_5  and  C_6
REMARK    4  A    between atoms: C_6  and  C_8
REMARK    5  A    between atoms: C_8  and  O_9
REMARK    6  A    between atoms: O_9  and  C_10
REMARK                            x       y       z     vdW  Elec       q    Type
REMARK                         _______ _______ _______ _____ _____    ______ ____
ROOT
ATOM      1  O   UNL     1       4.617   6.151  -9.268  0.00  0.00    -0.473 OA
ENDROOT
BRANCH   1   2
ATOM      2  C   UNL     1       5.697   5.923 -10.091  0.00  0.00    +0.140 A 
ATOM      3  C   UNL     1       5.484   5.722 -11.443  0.00  0.00    +0.053 A 
ATOM      4  C   UNL     1       6.545   5.391 -12.274  0.00  0.00    +0.084 A 
ATOM      5  N   UNL     1       6.091   5.039 -13.495  0.00  0.00    -0.244 NA
ATOM      6  C   UNL     1       4.760   5.022 -13.435  0.00  0.00    +0.099 A 
ATOM      7  C   UNL     1       7.858   5.428 -11.821  0.00  0.00    +0.019 A 
ATOM      8  C   UNL     1       8.015   5.488 -10.450  0.00  0.00    +0.005 A 
ATOM      9  C   UNL     1       4.362   5.513 -12.220  0.00  0.00    +0.025 A 
ATOM     10  C   UNL     1       6.976   5.752  -9.579  0.00  0.00    +0.037 A 
ENDBRANCH   1   2
BRANCH   1  11
ATOM     11  C   UNL     1       4.521   5.487  -8.034  0.00  0.00    +0.240 C 
BRANCH  11  12
ATOM     12  C   UNL     1       2.897   5.620  -7.706  0.00  0.00    +0.213 C 
ATOM     13  O   UNL     1       3.013   7.134  -7.515  0.00  0.00    -0.218 OA
BRANCH  12  14
ATOM     14  C   UNL     1       3.157   5.346  -6.086  0.00  0.00    +0.125 C 
BRANCH  14  15
ATOM     15  N   UNL     1       4.038   6.390  -5.660  0.00  0.00    -0.217 NA
BRANCH  15  17
ATOM     16  C   UNL     1       4.868   5.140  -4.122  0.00  0.00    +0.019 C 
ATOM     17  C   UNL     1       4.455   6.293  -4.287  0.00  0.00    +0.073 C 
ATOM     18  C   UNL     1       5.513   7.365  -4.048  0.00  0.00    +0.019 C 
ENDBRANCH  15  17
ENDBRANCH  14  15
ENDBRANCH  12  14
ENDBRANCH  11  12
ENDBRANCH   1  11
TORSDOF 6
ENDMDL
MODEL 6
REMARK VINA RESULT:      -6.1      4.570      5.868
REMARK  Name = 
REMARK  6 active torsions:
REMARK  status: ('A' for Active; 'I' for Inactive)
REMARK    1  A    between atoms: C_2  and  N_4
REMARK    2  A    between atoms: N_4  and  C_5
REMARK    3  A    between atoms: C_5  and  C_6
REMARK    4  A    between atoms: C_6  and  C_8
REMARK    5  A    between atoms: C_8  and  O_9
REMARK    6  A    between atoms: O_9  and  C_10
REMARK                            x       y       z     vdW  Elec       q    Type
REMARK                         _______ _______ _______ _____ _____    ______ ____
ROOT
ATOM      1  O   UNL     1       4.393   6.173 -12.395  0.00  0.00    -0.473 OA
ENDROOT
BRANCH   1   2
ATOM      2  C   UNL     1       3.147   5.995 -11.837  0.00  0.00    +0.140 A 
ATOM      3  C   UNL     1       3.048   5.476 -10.558  0.00  0.00    +0.053 A 
ATOM      4  C   UNL     1       1.803   5.193 -10.015  0.00  0.00    +0.084 A 
ATOM      5  N   UNL     1       1.941   4.509  -8.860  0.00  0.00    -0.244 NA
ATOM      6  C   UNL     1       3.237   4.242  -8.707  0.00  0.00    +0.099 A 
ATOM      7  C   UNL     1       0.631   5.584 -10.650  0.00  0.00    +0.019 A 
ATOM      8  C   UNL     1       0.765   5.962 -11.972  0.00  0.00    +0.005 A 
ATOM      9  C   UNL     1       3.944   4.889  -9.686  0.00  0.00    +0.025 A 
ATOM     10  C   UNL     1       1.988   6.193 -12.574  0.00  0.00    +0.037 A 
ENDBRANCH   1   2
BRANCH   1  11
ATOM     11  C   UNL     1       5.081   5.078 -12.942  0.00  0.00    +0.240 C 
BRANCH  11  12
ATOM     12  C   UNL     1       6.068   5.821 -14.054  0.00  0.00    +0.213 C 
ATOM     13  O   UNL     1       7.240   4.903 -13.695  0.00  0.00    -0.218 OA
BRANCH  12  14
ATOM     14  C   UNL     1       6.549   6.955 -12.937  0.00  0.00    +0.125 C 
BRANCH  14  15
ATOM     15  N   UNL     1       7.644   6.356 -12.234  0.00  0.00    -0.217 NA
BRANCH  15  17
ATOM     16  C   UNL     1       6.991   7.732 -10.718  0.00  0.00    +0.019 C 
ATOM     17  C   UNL     1       7.798   6.810 -10.878  0.00  0.00    +0.073 C 
ATOM     18  C   UNL     1       7.556   5.615  -9.961  0.00  0.00    +0.019 C 
ENDBRANCH  15  17
ENDBRANCH  14  15
ENDBRANCH  12  14
ENDBRANCH  11  12
ENDBRANCH   1  11
TORSDOF 6
ENDMDL
MODEL 7
REMARK VINA RESULT:      -6.1      2.153      2.957
REMARK  Name = 
REMARK  6 active torsions:
REMARK  status: ('A' for Active; 'I' for Inactive)
REMARK    1  A    between atoms: C_2  and  N_4
REMARK    2  A    between atoms: N_4  and  C_5
REMARK    3  A    between atoms: C_5  and  C_6
REMARK    4  A    between atoms: C_6  and  C_8
REMARK    5  A    between atoms: C_8  and  O_9
REMARK    6  A    between atoms: O_9  and  C_10
REMARK                            x       y       z     vdW  Elec       q    Type
REMARK                         _______ _______ _______ _____ _____    ______ ____
ROOT
ATOM      1  O   UNL     1       1.160   6.284  -4.556  0.00  0.00    -0.473 OA
ENDROOT
BRANCH   1   2
ATOM      2  C   UNL     1      -0.112   6.013  -5.010  0.00  0.00    +0.140 A 
ATOM      3  C   UNL     1      -1.142   5.883  -4.096  0.00  0.00    +0.053 A 
ATOM      4  C   UNL     1      -2.409   5.510  -4.521  0.00  0.00    +0.084 A 
ATOM      5  N   UNL     1      -3.198   5.242  -3.459  0.00  0.00    -0.244 NA
ATOM      6  C   UNL     1      -2.438   5.318  -2.368  0.00  0.00    +0.099 A 
ATOM      7  C   UNL     1      -2.726   5.434  -5.871  0.00  0.00    +0.019 A 
ATOM      8  C   UNL     1      -1.650   5.428  -6.738  0.00  0.00    +0.005 A 
ATOM      9  C   UNL     1      -1.199   5.786  -2.719  0.00  0.00    +0.025 A 
ATOM     10  C   UNL     1      -0.360   5.730  -6.346  0.00  0.00    +0.037 A 
ENDBRANCH   1   2
BRANCH   1  11
ATOM     11  C   UNL     1       2.164   5.308  -4.656  0.00  0.00    +0.240 C 
BRANCH  11  12
ATOM     12  C   UNL     1       3.523   6.182  -4.264  0.00  0.00    +0.213 C 
ATOM     13  O   UNL     1       2.686   7.250  -3.554  0.00  0.00    -0.218 OA
BRANCH  12  14
ATOM     14  C   UNL     1       3.458   7.015  -5.701  0.00  0.00    +0.125 C 
BRANCH  14  15
ATOM     15  N   UNL     1       3.707   6.039  -6.719  0.00  0.00    -0.217 NA
BRANCH  15  17
ATOM     16  C   UNL     1       2.800   5.439  -8.572  0.00  0.00    +0.019 C 
ATOM     17  C   UNL     1       3.297   6.437  -8.038  0.00  0.00    +0.073 C 
ATOM     18  C   UNL     1       2.324   7.602  -7.887  0.00  0.00    +0.019 C 
ENDBRANCH  15  17
ENDBRANCH  14  15
ENDBRANCH  12  14
ENDBRANCH  11  12
ENDBRANCH   1  11
TORSDOF 6
ENDMDL
MODEL 8
REMARK VINA RESULT:      -6.1      1.843      2.656
REMARK  Name = 
REMARK  6 active torsions:
REMARK  status: ('A' for Active; 'I' for Inactive)
REMARK    1  A    between atoms: C_2  and  N_4
REMARK    2  A    between atoms: N_4  and  C_5
REMARK    3  A    between atoms: C_5  and  C_6
REMARK    4  A    between atoms: C_6  and  C_8
REMARK    5  A    between atoms: C_8  and  O_9
REMARK    6  A    between atoms: O_9  and  C_10
REMARK                            x       y       z     vdW  Elec       q    Type
REMARK                         _______ _______ _______ _____ _____    ______ ____
ROOT
ATOM      1  O   UNL     1       1.270   5.265  -6.872  0.00  0.00    -0.473 OA
ENDROOT
BRANCH   1   2
ATOM      2  C   UNL     1       0.046   5.452  -6.272  0.00  0.00    +0.140 A 
ATOM      3  C   UNL     1      -0.022   5.558  -4.894  0.00  0.00    +0.053 A 
ATOM      4  C   UNL     1      -1.253   5.646  -4.261  0.00  0.00    +0.084 A 
ATOM      5  N   UNL     1      -1.101   5.531  -2.924  0.00  0.00    -0.244 NA
ATOM      6  C   UNL     1       0.180   5.254  -2.692  0.00  0.00    +0.099 A 
ATOM      7  C   UNL     1      -2.429   5.811  -4.983  0.00  0.00    +0.019 A 
ATOM      8  C   UNL     1      -2.338   5.557  -6.337  0.00  0.00    +0.005 A 
ATOM      9  C   UNL     1       0.877   5.345  -3.868  0.00  0.00    +0.025 A 
ATOM     10  C   UNL     1      -1.135   5.399  -7.000  0.00  0.00    +0.037 A 
ENDBRANCH   1   2
BRANCH   1  11
ATOM     11  C   UNL     1       1.393   5.373  -8.267  0.00  0.00    +0.240 C 
BRANCH  11  12
ATOM     12  C   UNL     1       2.702   6.388  -8.412  0.00  0.00    +0.213 C 
ATOM     13  O   UNL     1       1.802   7.626  -8.383  0.00  0.00    -0.218 OA
BRANCH  12  14
ATOM     14  C   UNL     1       2.632   6.314 -10.072  0.00  0.00    +0.125 C 
BRANCH  14  15
ATOM     15  N   UNL     1       1.271   5.995 -10.382  0.00  0.00    -0.217 NA
BRANCH  15  17
ATOM     16  C   UNL     1       0.633   5.441 -12.358  0.00  0.00    +0.019 C 
ATOM     17  C   UNL     1       0.833   6.451 -11.673  0.00  0.00    +0.073 C 
ATOM     18  C   UNL     1      -0.412   7.307 -11.464  0.00  0.00    +0.019 C 
ENDBRANCH  15  17
ENDBRANCH  14  15
ENDBRANCH  12  14
ENDBRANCH  11  12
ENDBRANCH   1  11
TORSDOF 6
ENDMDL
MODEL 9
REMARK VINA RESULT:      -6.1      3.084      6.588
REMARK  Name = 
REMARK  6 active torsions:
REMARK  status: ('A' for Active; 'I' for Inactive)
REMARK    1  A    between atoms: C_2  and  N_4
REMARK    2  A    between atoms: N_4  and  C_5
REMARK    3  A    between atoms: C_5  and  C_6
REMARK    4  A    between atoms: C_6  and  C_8
REMARK    5  A    between atoms: C_8  and  O_9
REMARK    6  A    between atoms: O_9  and  C_10
REMARK                            x       y       z     vdW  Elec       q    Type
REMARK                         _______ _______ _______ _____ _____    ______ ____
ROOT
ATOM      1  O   UNL     1       3.126   5.949  -8.687  0.00  0.00    -0.473 OA
ENDROOT
BRANCH   1   2
ATOM      2  C   UNL     1       3.704   5.795  -9.927  0.00  0.00    +0.140 A 
ATOM      3  C   UNL     1       5.072   5.607 -10.015  0.00  0.00    +0.053 A 
ATOM      4  C   UNL     1       5.689   5.551 -11.257  0.00  0.00    +0.084 A 
ATOM      5  N   UNL     1       7.031   5.573 -11.113  0.00  0.00    -0.244 NA
ATOM      6  C   UNL     1       7.290   5.760  -9.821  0.00  0.00    +0.099 A 
ATOM      7  C   UNL     1       4.949   5.500 -12.432  0.00  0.00    +0.019 A 
ATOM      8  C   UNL     1       3.614   5.833 -12.311  0.00  0.00    +0.005 A 
ATOM      9  C   UNL     1       6.116   5.703  -9.117  0.00  0.00    +0.025 A 
ATOM     10  C   UNL     1       2.972   5.962 -11.094  0.00  0.00    +0.037 A 
ENDBRANCH   1   2
BRANCH   1  11
ATOM     11  C   UNL     1       1.753   6.224  -8.581  0.00  0.00    +0.240 C 
BRANCH  11  12
ATOM     12  C   UNL     1       1.696   7.127  -7.186  0.00  0.00    +0.213 C 
ATOM     13  O   UNL     1       2.248   8.359  -7.908  0.00  0.00    -0.218 OA
BRANCH  12  14
ATOM     14  C   UNL     1       3.224   6.635  -6.752  0.00  0.00    +0.125 C 
BRANCH  14  15
ATOM     15  N   UNL     1       3.547   7.386  -5.577  0.00  0.00    -0.217 NA
BRANCH  15  17
ATOM     16  C   UNL     1       4.551   5.552  -5.078  0.00  0.00    +0.019 C 
ATOM     17  C   UNL     1       4.257   6.641  -4.572  0.00  0.00    +0.073 C 
ATOM     18  C   UNL     1       5.467   7.470  -4.153  0.00  0.00    +0.019 C 
ENDBRANCH  15  17
ENDBRANCH  14  15
ENDBRANCH  12  14
ENDBRANCH  11  12
ENDBRANCH   1  11
TORSDOF 6
ENDMDL
