MODEL 1
REMARK VINA RESULT:      -5.8      0.000      0.000
REMARK  Name = 
REMARK  8 active torsions:
REMARK  status: ('A' for Active; 'I' for Inactive)
REMARK    1  A    between atoms: C_2  and  C_4
REMARK    2  A    between atoms: C_4  and  N_5
REMARK    3  A    between atoms: N_8  and  C_9
REMARK    4  A    between atoms: C_9  and  C_10
REMARK    5  A    between atoms: N_15  and  C_16
REMARK    6  A    between atoms: C_16  and  C_17
REMARK    7  A    between atoms: N_22  and  C_23
REMARK    8  A    between atoms: C_23  and  C_24
REMARK                            x       y       z     vdW  Elec       q    Type
REMARK                         _______ _______ _______ _____ _____    ______ ____
ROOT
ATOM      1  N   UNL     1      -0.794   5.383  -2.106  0.00  0.00    -0.268 NA
ATOM      2  C   UNL     1       0.485   4.842  -1.754  0.00  0.00    +0.090 C 
ATOM      3  C   UNL     1       1.642   5.692  -2.269  0.00  0.00    +0.090 C 
ATOM      4  N   UNL     1       2.740   5.426  -1.413  0.00  0.00    -0.261 NA
ATOM      5  C   UNL     1       3.028   6.371  -0.404  0.00  0.00    +0.090 C 
ATOM      6  C   UNL     1       2.534   7.763  -0.661  0.00  0.00    +0.090 C 
ATOM      7  N   UNL     1       1.899   8.373   0.478  0.00  0.00    -0.261 NA
ATOM      8  C   UNL     1       0.735   7.667   0.939  0.00  0.00    +0.090 C 
ATOM      9  C   UNL     1      -0.435   8.639   0.914  0.00  0.00    +0.090 C 
ATOM     10  N   UNL     1      -1.597   7.893   0.440  0.00  0.00    -0.261 NA
ATOM     11  C   UNL     1      -1.334   7.479  -0.933  0.00  0.00    +0.090 C 
ATOM     12  C   UNL     1      -1.501   5.988  -1.013  0.00  0.00    +0.090 C 
ENDROOT
BRANCH   1  13
ATOM     13  C   UNL     1      -0.751   6.194  -3.296  0.00  0.00    +0.105 C 
BRANCH  13  15
ATOM     14  C   UNL     1      -2.474   7.213  -4.627  0.00  0.00    +0.037 C 
ATOM     15  C   UNL     1      -2.104   5.649  -4.134  0.00  0.00    +0.168 C 
ATOM     16  O   UNL     1      -1.265   5.411  -5.412  0.00  0.00    -0.222 OA
ENDBRANCH  13  15
ENDBRANCH   1  13
BRANCH   4  17
ATOM     17  C   UNL     1       3.835   4.716  -1.972  0.00  0.00    +0.188 C 
BRANCH  17  18
ATOM     18  C   UNL     1       4.062   5.278  -3.341  0.00  0.00    +0.381 C 
ATOM     19  O   UNL     1       4.881   6.406  -3.446  0.00  0.00    -0.244 OA
ATOM     20  O   UNL     1       4.214   4.416  -4.256  0.00  0.00    -0.244 OA
ENDBRANCH  17  18
ENDBRANCH   4  17
BRANCH  10  21
ATOM     21  C   UNL     1      -1.722   6.722   1.299  0.00  0.00    +0.188 C 
BRANCH  21  22
ATOM     22  C   UNL     1      -2.591   6.995   2.466  0.00  0.00    +0.381 C 
ATOM     23  O   UNL     1      -3.690   7.820   2.348  0.00  0.00    -0.244 OA
ATOM     24  O   UNL     1      -2.495   6.282   3.495  0.00  0.00    -0.244 OA
ENDBRANCH  21  22
ENDBRANCH  10  21
BRANCH   7  25
ATOM     25  C   UNL     1       2.818   8.728   1.530  0.00  0.00    +0.188 C 
BRANCH  25  26
ATOM     26  C   UNL     1       3.286  10.124   1.263  0.00  0.00    +0.381 C 
ATOM     27  O   UNL     1       2.590  10.970   0.394  0.00  0.00    -0.244 OA
ATOM     28  O   UNL     1       4.521  10.369   1.401  0.00  0.00    -0.244 OA
ENDBRANCH  25  26
ENDBRANCH   7  25
TORSDOF 8
ENDMDL
MODEL 2
REMARK VINA RESULT:      -5.7      3.215      6.661
REMARK  Name = 
REMARK  8 active torsions:
REMARK  status: ('A' for Active; 'I' for Inactive)
REMARK    1  A    between atoms: C_2  and  C_4
REMARK    2  A    between atoms: C_4  and  N_5
REMARK    3  A    between atoms: N_8  and  C_9
REMARK    4  A    between atoms: C_9  and  C_10
REMARK    5  A    between atoms: N_15  and  C_16
REMARK    6  A    between atoms: C_16  and  C_17
REMARK    7  A    between atoms: N_22  and  C_23
REMARK    8  A    between atoms: C_23  and  C_24
REMARK                            x       y       z     vdW  Elec       q    Type
REMARK                         _______ _______ _______ _____ _____    ______ ____
ROOT
ATOM      1  N   UNL     1       1.259   6.725  -6.890  0.00  0.00    -0.268 NA
ATOM      2  C   UNL     1       0.243   7.249  -6.026  0.00  0.00    +0.090 C 
ATOM      3  C   UNL     1      -0.639   6.157  -5.429  0.00  0.00    +0.090 C 
ATOM      4  N   UNL     1      -1.160   6.687  -4.221  0.00  0.00    -0.261 NA
ATOM      5  C   UNL     1      -0.547   6.289  -3.013  0.00  0.00    +0.090 C 
ATOM      6  C   UNL     1       0.192   4.985  -3.061  0.00  0.00    +0.090 C 
ATOM      7  N   UNL     1       1.483   5.027  -2.426  0.00  0.00    -0.261 NA
ATOM      8  C   UNL     1       2.392   5.967  -3.022  0.00  0.00    +0.090 C 
ATOM      9  C   UNL     1       3.637   5.202  -3.444  0.00  0.00    +0.090 C 
ATOM     10  N   UNL     1       4.054   5.749  -4.733  0.00  0.00    -0.261 NA
ATOM     11  C   UNL     1       3.005   5.460  -5.703  0.00  0.00    +0.090 C 
ATOM     12  C   UNL     1       2.581   6.756  -6.334  0.00  0.00    +0.090 C 
ENDROOT
BRANCH   1  13
ATOM     13  C   UNL     1       0.898   5.458  -7.474  0.00  0.00    +0.105 C 
BRANCH  13  15
ATOM     14  C   UNL     1       2.168   4.243  -9.114  0.00  0.00    +0.037 C 
ATOM     15  C   UNL     1       1.314   5.691  -9.087  0.00  0.00    +0.168 C 
ATOM     16  O   UNL     1       0.026   4.977  -9.562  0.00  0.00    -0.222 OA
ENDBRANCH  13  15
ENDBRANCH   1  13
BRANCH   4  17
ATOM     17  C   UNL     1      -2.553   6.958  -4.187  0.00  0.00    +0.188 C 
BRANCH  17  18
ATOM     18  C   UNL     1      -3.141   6.074  -3.131  0.00  0.00    +0.381 C 
ATOM     19  O   UNL     1      -3.997   6.668  -2.198  0.00  0.00    -0.244 OA
ATOM     20  O   UNL     1      -3.493   4.925  -3.529  0.00  0.00    -0.244 OA
ENDBRANCH  17  18
ENDBRANCH   4  17
BRANCH  10  21
ATOM     21  C   UNL     1       4.186   7.189  -4.553  0.00  0.00    +0.188 C 
BRANCH  21  22
ATOM     22  C   UNL     1       5.343   7.526  -3.693  0.00  0.00    +0.381 C 
ATOM     23  O   UNL     1       5.174   7.755  -2.343  0.00  0.00    -0.244 OA
ATOM     24  O   UNL     1       6.510   7.349  -4.122  0.00  0.00    -0.244 OA
ENDBRANCH  21  22
ENDBRANCH  10  21
BRANCH   7  25
ATOM     25  C   UNL     1       1.417   5.112  -0.989  0.00  0.00    +0.188 C 
BRANCH  25  26
ATOM     26  C   UNL     1       2.275   6.263  -0.568  0.00  0.00    +0.381 C 
ATOM     27  O   UNL     1       3.529   6.059   0.017  0.00  0.00    -0.244 OA
ATOM     28  O   UNL     1       1.700   7.352  -0.274  0.00  0.00    -0.244 OA
ENDBRANCH  25  26
ENDBRANCH   7  25
TORSDOF 8
ENDMDL
MODEL 3
REMARK VINA RESULT:      -5.5      1.910      7.427
REMARK  Name = 
REMARK  8 active torsions:
REMARK  status: ('A' for Active; 'I' for Inactive)
REMARK    1  A    between atoms: C_2  and  C_4
REMARK    2  A    between atoms: C_4  and  N_5
REMARK    3  A    between atoms: N_8  and  C_9
REMARK    4  A    between atoms: C_9  and  C_10
REMARK    5  A    between atoms: N_15  and  C_16
REMARK    6  A    between atoms: C_16  and  C_17
REMARK    7  A    between atoms: N_22  and  C_23
REMARK    8  A    between atoms: C_23  and  C_24
REMARK                            x       y       z     vdW  Elec       q    Type
REMARK                         _______ _______ _______ _____ _____    ______ ____
ROOT
ATOM      1  N   UNL     1       2.756   8.804   1.191  0.00  0.00    -0.268 NA
ATOM      2  C   UNL     1       1.715   8.419   2.098  0.00  0.00    +0.090 C 
ATOM      3  C   UNL     1       0.374   9.059   1.755  0.00  0.00    +0.090 C 
ATOM      4  N   UNL     1      -0.621   8.203   2.290  0.00  0.00    -0.261 NA
ATOM      5  C   UNL     1      -1.273   7.321   1.401  0.00  0.00    +0.090 C 
ATOM      6  C   UNL     1      -1.264   7.731  -0.042  0.00  0.00    +0.090 C 
ATOM      7  N   UNL     1      -0.945   6.659  -0.947  0.00  0.00    -0.261 NA
ATOM      8  C   UNL     1       0.358   6.091  -0.736  0.00  0.00    +0.090 C 
ATOM      9  C   UNL     1       1.130   6.204  -2.042  0.00  0.00    +0.090 C 
ATOM     10  N   UNL     1       2.503   6.559  -1.693  0.00  0.00    -0.261 NA
ATOM     11  C   UNL     1       2.482   7.878  -1.074  0.00  0.00    +0.090 C 
ATOM     12  C   UNL     1       3.147   7.776   0.269  0.00  0.00    +0.090 C 
ENDROOT
BRANCH   1  13
ATOM     13  C   UNL     1       2.516  10.083   0.573  0.00  0.00    +0.105 C 
BRANCH  13  15
ATOM     14  C   UNL     1       3.669  11.799  -0.654  0.00  0.00    +0.037 C 
ATOM     15  C   UNL     1       4.042  10.788   0.637  0.00  0.00    +0.168 C 
ATOM     16  O   UNL     1       3.551  11.850   1.651  0.00  0.00    -0.222 OA
ENDBRANCH  13  15
ENDBRANCH   1  13
BRANCH   4  17
ATOM     17  C   UNL     1      -1.375   8.698   3.387  0.00  0.00    +0.188 C 
BRANCH  17  18
ATOM     18  C   UNL     1      -2.244   9.795   2.854  0.00  0.00    +0.381 C 
ATOM     19  O   UNL     1      -3.594   9.498   2.639  0.00  0.00    -0.244 OA
ATOM     20  O   UNL     1      -2.016  10.942   3.339  0.00  0.00    -0.244 OA
ENDBRANCH  17  18
ENDBRANCH   4  17
BRANCH  10  21
ATOM     21  C   UNL     1       2.961   5.563  -0.734  0.00  0.00    +0.188 C 
BRANCH  21  22
ATOM     22  C   UNL     1       4.024   4.705  -1.306  0.00  0.00    +0.381 C 
ATOM     23  O   UNL     1       4.328   4.763  -2.650  0.00  0.00    -0.244 OA
ATOM     24  O   UNL     1       4.828   4.117  -0.542  0.00  0.00    -0.244 OA
ENDBRANCH  21  22
ENDBRANCH  10  21
BRANCH   7  25
ATOM     25  C   UNL     1      -1.994   5.679  -1.074  0.00  0.00    +0.188 C 
BRANCH  25  26
ATOM     26  C   UNL     1      -2.470   5.714  -2.492  0.00  0.00    +0.381 C 
ATOM     27  O   UNL     1      -2.923   6.900  -3.078  0.00  0.00    -0.244 OA
ATOM     28  O   UNL     1      -2.933   4.643  -2.985  0.00  0.00    -0.244 OA
ENDBRANCH  25  26
ENDBRANCH   7  25
TORSDOF 8
ENDMDL
MODEL 4
REMARK VINA RESULT:      -5.5      2.127      7.488
REMARK  Name = 
REMARK  8 active torsions:
REMARK  status: ('A' for Active; 'I' for Inactive)
REMARK    1  A    between atoms: C_2  and  C_4
REMARK    2  A    between atoms: C_4  and  N_5
REMARK    3  A    between atoms: N_8  and  C_9
REMARK    4  A    between atoms: C_9  and  C_10
REMARK    5  A    between atoms: N_15  and  C_16
REMARK    6  A    between atoms: C_16  and  C_17
REMARK    7  A    between atoms: N_22  and  C_23
REMARK    8  A    between atoms: C_23  and  C_24
REMARK                            x       y       z     vdW  Elec       q    Type
REMARK                         _______ _______ _______ _____ _____    ______ ____
ROOT
ATOM      1  N   UNL     1       2.429   6.088  -1.273  0.00  0.00    -0.268 NA
ATOM      2  C   UNL     1       1.161   5.661  -0.760  0.00  0.00    +0.090 C 
ATOM      3  C   UNL     1       0.206   6.825  -0.517  0.00  0.00    +0.090 C 
ATOM      4  N   UNL     1      -1.103   6.286  -0.594  0.00  0.00    -0.261 NA
ATOM      5  C   UNL     1      -1.820   6.477  -1.795  0.00  0.00    +0.090 C 
ATOM      6  C   UNL     1      -1.386   7.647  -2.629  0.00  0.00    +0.090 C 
ATOM      7  N   UNL     1      -1.269   7.346  -4.031  0.00  0.00    -0.261 NA
ATOM      8  C   UNL     1      -0.299   6.327  -4.326  0.00  0.00    +0.090 C 
ATOM      9  C   UNL     1       0.710   6.916  -5.299  0.00  0.00    +0.090 C 
ATOM     10  N   UNL     1       2.024   6.421  -4.899  0.00  0.00    -0.261 NA
ATOM     11  C   UNL     1       2.320   6.954  -3.575  0.00  0.00    +0.090 C 
ATOM     12  C   UNL     1       2.632   5.800  -2.664  0.00  0.00    +0.090 C 
ENDROOT
BRANCH   1  13
ATOM     13  C   UNL     1       2.757   7.440  -0.901  0.00  0.00    +0.105 C 
BRANCH  13  15
ATOM     14  C   UNL     1       4.328   8.520   0.564  0.00  0.00    +0.037 C 
ATOM     15  C   UNL     1       4.412   7.329  -0.620  0.00  0.00    +0.168 C 
ATOM     16  O   UNL     1       4.197   6.219   0.436  0.00  0.00    -0.222 OA
ENDBRANCH  13  15
ENDBRANCH   1  13
BRANCH   4  17
ATOM     17  C   UNL     1      -1.851   6.238   0.611  0.00  0.00    +0.188 C 
BRANCH  17  18
ATOM     18  C   UNL     1      -1.510   7.475   1.383  0.00  0.00    +0.381 C 
ATOM     19  O   UNL     1      -2.213   8.643   1.070  0.00  0.00    -0.244 OA
ATOM     20  O   UNL     1      -1.290   7.293   2.617  0.00  0.00    -0.244 OA
ENDBRANCH  17  18
ENDBRANCH   4  17
BRANCH  10  21
ATOM     21  C   UNL     1       1.924   4.968  -4.842  0.00  0.00    +0.188 C 
BRANCH  21  22
ATOM     22  C   UNL     1       2.317   4.345  -6.126  0.00  0.00    +0.381 C 
ATOM     23  O   UNL     1       3.254   4.946  -6.943  0.00  0.00    -0.244 OA
ATOM     24  O   UNL     1       2.007   3.152  -6.361  0.00  0.00    -0.244 OA
ENDBRANCH  21  22
ENDBRANCH  10  21
BRANCH   7  25
ATOM     25  C   UNL     1      -2.536   7.152  -4.688  0.00  0.00    +0.188 C 
BRANCH  25  26
ATOM     26  C   UNL     1      -2.594   5.726  -5.137  0.00  0.00    +0.381 C 
ATOM     27  O   UNL     1      -2.460   5.382  -6.485  0.00  0.00    -0.244 OA
ATOM     28  O   UNL     1      -3.245   4.908  -4.421  0.00  0.00    -0.244 OA
ENDBRANCH  25  26
ENDBRANCH   7  25
TORSDOF 8
ENDMDL
MODEL 5
REMARK VINA RESULT:      -5.4      1.894      5.601
REMARK  Name = 
REMARK  8 active torsions:
REMARK  status: ('A' for Active; 'I' for Inactive)
REMARK    1  A    between atoms: C_2  and  C_4
REMARK    2  A    between atoms: C_4  and  N_5
REMARK    3  A    between atoms: N_8  and  C_9
REMARK    4  A    between atoms: C_9  and  C_10
REMARK    5  A    between atoms: N_15  and  C_16
REMARK    6  A    between atoms: C_16  and  C_17
REMARK    7  A    between atoms: N_22  and  C_23
REMARK    8  A    between atoms: C_23  and  C_24
REMARK                            x       y       z     vdW  Elec       q    Type
REMARK                         _______ _______ _______ _____ _____    ______ ____
ROOT
ATOM      1  N   UNL     1       3.462   7.156  -3.278  0.00  0.00    -0.268 NA
ATOM      2  C   UNL     1       2.051   7.089  -3.521  0.00  0.00    +0.090 C 
ATOM      3  C   UNL     1       1.413   5.840  -2.922  0.00  0.00    +0.090 C 
ATOM      4  N   UNL     1       0.049   6.158  -2.705  0.00  0.00    -0.261 NA
ATOM      5  C   UNL     1      -0.343   6.495  -1.391  0.00  0.00    +0.090 C 
ATOM      6  C   UNL     1       0.540   5.972  -0.297  0.00  0.00    +0.090 C 
ATOM      7  N   UNL     1       0.844   6.946   0.718  0.00  0.00    -0.261 NA
ATOM      8  C   UNL     1       1.544   8.099   0.223  0.00  0.00    +0.090 C 
ATOM      9  C   UNL     1       2.844   8.222   1.004  0.00  0.00    +0.090 C 
ATOM     10  N   UNL     1       3.874   8.627   0.052  0.00  0.00    -0.261 NA
ATOM     11  C   UNL     1       4.038   7.551  -0.918  0.00  0.00    +0.090 C 
ATOM     12  C   UNL     1       3.847   8.126  -2.292  0.00  0.00    +0.090 C 
ENDROOT
BRANCH   1  13
ATOM     13  C   UNL     1       4.060   5.860  -3.089  0.00  0.00    +0.105 C 
BRANCH  13  15
ATOM     14  C   UNL     1       5.063   6.542  -5.164  0.00  0.00    +0.037 C 
ATOM     15  C   UNL     1       4.095   5.263  -4.661  0.00  0.00    +0.168 C 
ATOM     16  O   UNL     1       5.341   4.401  -4.347  0.00  0.00    -0.222 OA
ENDBRANCH  13  15
ENDBRANCH   1  13
BRANCH   4  17
ATOM     17  C   UNL     1      -0.905   5.493  -3.519  0.00  0.00    +0.188 C 
BRANCH  17  18
ATOM     18  C   UNL     1      -2.250   5.760  -2.918  0.00  0.00    +0.381 C 
ATOM     19  O   UNL     1      -3.017   6.783  -3.485  0.00  0.00    -0.244 OA
ATOM     20  O   UNL     1      -2.898   4.727  -2.576  0.00  0.00    -0.244 OA
ENDBRANCH  17  18
ENDBRANCH   4  17
BRANCH  10  21
ATOM     21  C   UNL     1       3.381   9.827  -0.612  0.00  0.00    +0.188 C 
BRANCH  21  22
ATOM     22  C   UNL     1       3.896  11.056   0.033  0.00  0.00    +0.381 C 
ATOM     23  O   UNL     1       4.746  10.979   1.117  0.00  0.00    -0.244 OA
ATOM     24  O   UNL     1       3.781  12.161  -0.551  0.00  0.00    -0.244 OA
ENDBRANCH  21  22
ENDBRANCH  10  21
BRANCH   7  25
ATOM     25  C   UNL     1      -0.277   7.265   1.566  0.00  0.00    +0.188 C 
BRANCH  25  26
ATOM     26  C   UNL     1      -0.590   8.714   1.368  0.00  0.00    +0.381 C 
ATOM     27  O   UNL     1      -0.268   9.667   2.339  0.00  0.00    -0.244 OA
ATOM     28  O   UNL     1      -1.556   9.010   0.603  0.00  0.00    -0.244 OA
ENDBRANCH  25  26
ENDBRANCH   7  25
TORSDOF 8
ENDMDL
MODEL 6
REMARK VINA RESULT:      -5.4      2.524      5.850
REMARK  Name = 
REMARK  8 active torsions:
REMARK  status: ('A' for Active; 'I' for Inactive)
REMARK    1  A    between atoms: C_2  and  C_4
REMARK    2  A    between atoms: C_4  and  N_5
REMARK    3  A    between atoms: N_8  and  C_9
REMARK    4  A    between atoms: C_9  and  C_10
REMARK    5  A    between atoms: N_15  and  C_16
REMARK    6  A    between atoms: C_16  and  C_17
REMARK    7  A    between atoms: N_22  and  C_23
REMARK    8  A    between atoms: C_23  and  C_24
REMARK                            x       y       z     vdW  Elec       q    Type
REMARK                         _______ _______ _______ _____ _____    ______ ____
ROOT
ATOM      1  N   UNL     1       2.575   6.423  -1.309  0.00  0.00    -0.268 NA
ATOM      2  C   UNL     1       2.701   7.074  -2.579  0.00  0.00    +0.090 C 
ATOM      3  C   UNL     1       2.537   6.109  -3.749  0.00  0.00    +0.090 C 
ATOM      4  N   UNL     1       2.102   6.892  -4.849  0.00  0.00    -0.261 NA
ATOM      5  C   UNL     1       0.725   6.871  -5.163  0.00  0.00    +0.090 C 
ATOM      6  C   UNL     1      -0.027   5.660  -4.696  0.00  0.00    +0.090 C 
ATOM      7  N   UNL     1      -1.293   5.966  -4.083  0.00  0.00    -0.261 NA
ATOM      8  C   UNL     1      -1.184   6.787  -2.908  0.00  0.00    +0.090 C 
ATOM      9  C   UNL     1      -1.841   6.038  -1.758  0.00  0.00    +0.090 C 
ATOM     10  N   UNL     1      -1.012   6.262  -0.578  0.00  0.00    -0.261 NA
ATOM     11  C   UNL     1       0.289   5.650  -0.821  0.00  0.00    +0.090 C 
ATOM     12  C   UNL     1       1.345   6.700  -0.623  0.00  0.00    +0.090 C 
ENDROOT
BRANCH   1  13
ATOM     13  C   UNL     1       2.915   5.024  -1.359  0.00  0.00    +0.105 C 
BRANCH  13  15
ATOM     14  C   UNL     1       4.614   6.127  -0.065  0.00  0.00    +0.037 C 
ATOM     15  C   UNL     1       4.596   5.078  -1.379  0.00  0.00    +0.168 C 
ATOM     16  O   UNL     1       4.685   3.851  -0.441  0.00  0.00    -0.222 OA
ENDBRANCH  13  15
ENDBRANCH   1  13
BRANCH   4  17
ATOM     17  C   UNL     1       3.014   7.054  -5.924  0.00  0.00    +0.188 C 
BRANCH  17  18
ATOM     18  C   UNL     1       2.197   7.145  -7.175  0.00  0.00    +0.381 C 
ATOM     19  O   UNL     1       2.135   8.388  -7.814  0.00  0.00    -0.244 OA
ATOM     20  O   UNL     1       2.288   6.147  -7.949  0.00  0.00    -0.244 OA
ENDBRANCH  17  18
ENDBRANCH   4  17
BRANCH  10  21
ATOM     21  C   UNL     1      -0.867   7.705  -0.436  0.00  0.00    +0.188 C 
BRANCH  21  22
ATOM     22  C   UNL     1      -1.651   8.220   0.709  0.00  0.00    +0.381 C 
ATOM     23  O   UNL     1      -1.528   9.533   1.113  0.00  0.00    -0.244 OA
ATOM     24  O   UNL     1      -2.617   7.552   1.153  0.00  0.00    -0.244 OA
ENDBRANCH  21  22
ENDBRANCH  10  21
BRANCH   7  25
ATOM     25  C   UNL     1      -2.293   6.416  -5.017  0.00  0.00    +0.188 C 
BRANCH  25  26
ATOM     26  C   UNL     1      -2.417   5.371  -6.080  0.00  0.00    +0.381 C 
ATOM     27  O   UNL     1      -1.752   5.496  -7.303  0.00  0.00    -0.244 OA
ATOM     28  O   UNL     1      -3.469   4.665  -6.094  0.00  0.00    -0.244 OA
ENDBRANCH  25  26
ENDBRANCH   7  25
TORSDOF 8
ENDMDL
MODEL 7
REMARK VINA RESULT:      -5.3      4.601      8.415
REMARK  Name = 
REMARK  8 active torsions:
REMARK  status: ('A' for Active; 'I' for Inactive)
REMARK    1  A    between atoms: C_2  and  C_4
REMARK    2  A    between atoms: C_4  and  N_5
REMARK    3  A    between atoms: N_8  and  C_9
REMARK    4  A    between atoms: C_9  and  C_10
REMARK    5  A    between atoms: N_15  and  C_16
REMARK    6  A    between atoms: C_16  and  C_17
REMARK    7  A    between atoms: N_22  and  C_23
REMARK    8  A    between atoms: C_23  and  C_24
REMARK                            x       y       z     vdW  Elec       q    Type
REMARK                         _______ _______ _______ _____ _____    ______ ____
ROOT
ATOM      1  N   UNL     1       0.343   6.597  -5.449  0.00  0.00    -0.268 NA
ATOM      2  C   UNL     1       1.524   7.372  -5.205  0.00  0.00    +0.090 C 
ATOM      3  C   UNL     1       2.662   6.538  -4.627  0.00  0.00    +0.090 C 
ATOM      4  N   UNL     1       3.861   7.209  -4.975  0.00  0.00    -0.261 NA
ATOM      5  C   UNL     1       4.595   6.711  -6.074  0.00  0.00    +0.090 C 
ATOM      6  C   UNL     1       4.360   5.268  -6.408  0.00  0.00    +0.090 C 
ATOM      7  N   UNL     1       4.187   5.020  -7.815  0.00  0.00    -0.261 NA
ATOM      8  C   UNL     1       3.059   5.700  -8.389  0.00  0.00    +0.090 C 
ATOM      9  C   UNL     1       2.158   4.650  -9.022  0.00  0.00    +0.090 C 
ATOM     10  N   UNL     1       0.781   5.046  -8.739  0.00  0.00    -0.261 NA
ATOM     11  C   UNL     1       0.585   4.988  -7.295  0.00  0.00    +0.090 C 
ATOM     12  C   UNL     1       0.089   6.329  -6.836  0.00  0.00    +0.090 C 
ENDROOT
BRANCH   1  13
ATOM     13  C   UNL     1       0.249   5.437  -4.601  0.00  0.00    +0.105 C 
BRANCH  13  15
ATOM     14  C   UNL     1      -1.973   5.426  -3.684  0.00  0.00    +0.037 C 
ATOM     15  C   UNL     1      -0.488   6.071  -3.228  0.00  0.00    +0.168 C 
ATOM     16  O   UNL     1      -0.151   4.800  -2.413  0.00  0.00    -0.222 OA
ENDBRANCH  13  15
ENDBRANCH   1  13
BRANCH   4  17
ATOM     17  C   UNL     1       4.596   7.804  -3.917  0.00  0.00    +0.188 C 
BRANCH  17  18
ATOM     18  C   UNL     1       3.948   7.367  -2.640  0.00  0.00    +0.381 C 
ATOM     19  O   UNL     1       4.492   6.253  -1.991  0.00  0.00    -0.244 OA
ATOM     20  O   UNL     1       3.581   8.308  -1.876  0.00  0.00    -0.244 OA
ENDBRANCH  17  18
ENDBRANCH   4  17
BRANCH  10  21
ATOM     21  C   UNL     1       0.636   6.418  -9.208  0.00  0.00    +0.188 C 
BRANCH  21  22
ATOM     22  C   UNL     1       0.088   6.467 -10.582  0.00  0.00    +0.381 C 
ATOM     23  O   UNL     1      -0.357   5.319 -11.205  0.00  0.00    -0.244 OA
ATOM     24  O   UNL     1      -0.219   7.573 -11.091  0.00  0.00    -0.244 OA
ENDBRANCH  21  22
ENDBRANCH  10  21
BRANCH   7  25
ATOM     25  C   UNL     1       5.401   5.158  -8.580  0.00  0.00    +0.188 C 
BRANCH  25  26
ATOM     26  C   UNL     1       5.040   5.807  -9.878  0.00  0.00    +0.381 C 
ATOM     27  O   UNL     1       4.872   5.055 -11.045  0.00  0.00    -0.244 OA
ATOM     28  O   UNL     1       5.374   7.018 -10.046  0.00  0.00    -0.244 OA
ENDBRANCH  25  26
ENDBRANCH   7  25
TORSDOF 8
ENDMDL
MODEL 8
REMARK VINA RESULT:      -5.0     11.651     15.728
REMARK  Name = 
REMARK  8 active torsions:
REMARK  status: ('A' for Active; 'I' for Inactive)
REMARK    1  A    between atoms: C_2  and  C_4
REMARK    2  A    between atoms: C_4  and  N_5
REMARK    3  A    between atoms: N_8  and  C_9
REMARK    4  A    between atoms: C_9  and  C_10
REMARK    5  A    between atoms: N_15  and  C_16
REMARK    6  A    between atoms: C_16  and  C_17
REMARK    7  A    between atoms: N_22  and  C_23
REMARK    8  A    between atoms: C_23  and  C_24
REMARK                            x       y       z     vdW  Elec       q    Type
REMARK                         _______ _______ _______ _____ _____    ______ ____
ROOT
ATOM      1  N   UNL     1       5.538   5.454 -13.159  0.00  0.00    -0.268 NA
ATOM      2  C   UNL     1       4.272   4.863 -13.477  0.00  0.00    +0.090 C 
ATOM      3  C   UNL     1       3.096   5.750 -13.082  0.00  0.00    +0.090 C 
ATOM      4  N   UNL     1       2.020   5.378 -13.927  0.00  0.00    -0.261 NA
ATOM      5  C   UNL     1       1.746   6.204 -15.039  0.00  0.00    +0.090 C 
ATOM      6  C   UNL     1       2.220   7.622 -14.925  0.00  0.00    +0.090 C 
ATOM      7  N   UNL     1       2.874   8.111 -16.110  0.00  0.00    -0.261 NA
ATOM      8  C   UNL     1       4.055   7.374 -16.466  0.00  0.00    +0.090 C 
ATOM      9  C   UNL     1       5.215   8.357 -16.524  0.00  0.00    +0.090 C 
ATOM     10  N   UNL     1       6.373   7.680 -15.946  0.00  0.00    -0.261 NA
ATOM     11  C   UNL     1       6.084   7.416 -14.542  0.00  0.00    +0.090 C 
ATOM     12  C   UNL     1       6.264   5.945 -14.296  0.00  0.00    +0.090 C 
ENDROOT
BRANCH   1  13
ATOM     13  C   UNL     1       5.461   6.389 -12.066  0.00  0.00    +0.105 C 
BRANCH  13  15
ATOM     14  C   UNL     1       7.263   7.230 -10.715  0.00  0.00    +0.037 C 
ATOM     15  C   UNL     1       6.551   5.728 -10.969  0.00  0.00    +0.168 C 
ATOM     16  O   UNL     1       5.569   5.960  -9.795  0.00  0.00    -0.222 OA
ENDBRANCH  13  15
ENDBRANCH   1  13
BRANCH   4  17
ATOM     17  C   UNL     1       0.920   4.721 -13.316  0.00  0.00    +0.188 C 
BRANCH  17  18
ATOM     18  C   UNL     1       0.712   5.370 -11.984  0.00  0.00    +0.381 C 
ATOM     19  O   UNL     1      -0.008   6.569 -11.958  0.00  0.00    -0.244 OA
ATOM     20  O   UNL     1       0.463   4.573 -11.032  0.00  0.00    -0.244 OA
ENDBRANCH  17  18
ENDBRANCH   4  17
BRANCH  10  21
ATOM     21  C   UNL     1       6.528   6.425 -16.670  0.00  0.00    +0.188 C 
BRANCH  21  22
ATOM     22  C   UNL     1       7.657   6.484 -17.625  0.00  0.00    +0.381 C 
ATOM     23  O   UNL     1       8.599   7.488 -17.541  0.00  0.00    -0.244 OA
ATOM     24  O   UNL     1       7.916   5.490 -18.347  0.00  0.00    -0.244 OA
ENDBRANCH  21  22
ENDBRANCH  10  21
BRANCH   7  25
ATOM     25  C   UNL     1       1.976   8.339 -17.213  0.00  0.00    +0.188 C 
BRANCH  25  26
ATOM     26  C   UNL     1       1.424   9.721 -17.064  0.00  0.00    +0.381 C 
ATOM     27  O   UNL     1       2.190  10.754 -16.515  0.00  0.00    -0.244 OA
ATOM     28  O   UNL     1       0.168   9.847 -16.954  0.00  0.00    -0.244 OA
ENDBRANCH  25  26
ENDBRANCH   7  25
TORSDOF 8
ENDMDL
MODEL 9
REMARK VINA RESULT:      -5.0      2.619      5.905
REMARK  Name = 
REMARK  8 active torsions:
REMARK  status: ('A' for Active; 'I' for Inactive)
REMARK    1  A    between atoms: C_2  and  C_4
REMARK    2  A    between atoms: C_4  and  N_5
REMARK    3  A    between atoms: N_8  and  C_9
REMARK    4  A    between atoms: C_9  and  C_10
REMARK    5  A    between atoms: N_15  and  C_16
REMARK    6  A    between atoms: C_16  and  C_17
REMARK    7  A    between atoms: N_22  and  C_23
REMARK    8  A    between atoms: C_23  and  C_24
REMARK                            x       y       z     vdW  Elec       q    Type
REMARK                         _______ _______ _______ _____ _____    ______ ____
ROOT
ATOM      1  N   UNL     1       2.650   6.352  -5.467  0.00  0.00    -0.268 NA
ATOM      2  C   UNL     1       1.402   7.049  -5.366  0.00  0.00    +0.090 C 
ATOM      3  C   UNL     1       0.222   6.108  -5.144  0.00  0.00    +0.090 C 
ATOM      4  N   UNL     1      -0.780   6.875  -4.497  0.00  0.00    -0.261 NA
ATOM      5  C   UNL     1      -0.919   6.726  -3.100  0.00  0.00    +0.090 C 
ATOM      6  C   UNL     1      -0.412   5.432  -2.534  0.00  0.00    +0.090 C 
ATOM      7  N   UNL     1       0.368   5.591  -1.335  0.00  0.00    -0.261 NA
ATOM      8  C   UNL     1       1.553   6.384  -1.515  0.00  0.00    +0.090 C 
ATOM      9  C   UNL     1       2.744   5.539  -1.088  0.00  0.00    +0.090 C 
ATOM     10  N   UNL     1       3.819   5.810  -2.038  0.00  0.00    -0.261 NA
ATOM     11  C   UNL     1       3.388   5.339  -3.349  0.00  0.00    +0.090 C 
ATOM     12  C   UNL     1       3.496   6.484  -4.316  0.00  0.00    +0.090 C 
ENDROOT
BRANCH   1  13
ATOM     13  C   UNL     1       2.498   4.997  -5.930  0.00  0.00    +0.105 C 
BRANCH  13  15
ATOM     14  C   UNL     1       2.617   3.913  -8.073  0.00  0.00    +0.037 C 
ATOM     15  C   UNL     1       3.617   4.934  -7.185  0.00  0.00    +0.168 C 
ATOM     16  O   UNL     1       2.992   6.180  -7.856  0.00  0.00    -0.222 OA
ENDBRANCH  13  15
ENDBRANCH   1  13
BRANCH   4  17
ATOM     17  C   UNL     1      -1.954   7.160  -5.242  0.00  0.00    +0.188 C 
BRANCH  17  18
ATOM     18  C   UNL     1      -2.453   5.854  -5.779  0.00  0.00    +0.381 C 
ATOM     19  O   UNL     1      -3.182   5.038  -4.908  0.00  0.00    -0.244 OA
ATOM     20  O   UNL     1      -2.887   5.894  -6.968  0.00  0.00    -0.244 OA
ENDBRANCH  17  18
ENDBRANCH   4  17
BRANCH  10  21
ATOM     21  C   UNL     1       4.002   7.256  -2.061  0.00  0.00    +0.188 C 
BRANCH  21  22
ATOM     22  C   UNL     1       4.340   7.782  -0.719  0.00  0.00    +0.381 C 
ATOM     23  O   UNL     1       5.381   7.242   0.008  0.00  0.00    -0.244 OA
ATOM     24  O   UNL     1       3.864   8.881  -0.344  0.00  0.00    -0.244 OA
ENDBRANCH  21  22
ENDBRANCH  10  21
BRANCH   7  25
ATOM     25  C   UNL     1      -0.413   5.967  -0.183  0.00  0.00    +0.188 C 
BRANCH  25  26
ATOM     26  C   UNL     1       0.133   7.263   0.326  0.00  0.00    +0.381 C 
ATOM     27  O   UNL     1       0.983   7.308   1.435  0.00  0.00    -0.244 OA
ATOM     28  O   UNL     1      -0.536   8.314   0.100  0.00  0.00    -0.244 OA
ENDBRANCH  25  26
ENDBRANCH   7  25
TORSDOF 8
ENDMDL
