MODEL 1
REMARK VINA RESULT:      -5.8      0.000      0.000
REMARK  Name = 
REMARK  1 active torsions:
REMARK  status: ('A' for Active; 'I' for Inactive)
REMARK    1  A    between atoms: C_2  and  C_3
REMARK                            x       y       z     vdW  Elec       q    Type
REMARK                         _______ _______ _______ _____ _____    ______ ____
ROOT
ATOM      1  C   UNL     1       7.338   6.071 -10.958  0.00  0.00    +0.080 C 
ATOM      2  C   UNL     1       8.272   5.584 -12.010  0.00  0.00    +0.247 C 
ATOM      3  O   UNL     1       9.516   5.766 -12.000  0.00  0.00    -0.273 OA
ATOM      4  N   UNL     1       7.525   4.882 -12.994  0.00  0.00    -0.145 NA
ATOM      5  C   UNL     1       6.148   5.090 -12.782  0.00  0.00    +0.248 C 
ATOM      6  O   UNL     1       5.214   4.782 -13.554  0.00  0.00    -0.273 OA
ATOM      7  C   UNL     1       5.969   5.598 -11.406  0.00  0.00    +0.096 C 
ATOM      8  C   UNL     1       7.672   5.436  -9.632  0.00  0.00    +0.010 C 
ENDROOT
BRANCH   1  10
ATOM      9  C   UNL     1       6.174   8.100 -11.287  0.00  0.00    +0.001 C 
ATOM     10  C   UNL     1       7.408   7.592 -10.885  0.00  0.00    +0.009 C 
ENDBRANCH   1  10
TORSDOF 1
ENDMDL
MODEL 2
REMARK VINA RESULT:      -5.2      1.981      2.678
REMARK  Name = 
REMARK  1 active torsions:
REMARK  status: ('A' for Active; 'I' for Inactive)
REMARK    1  A    between atoms: C_2  and  C_3
REMARK                            x       y       z     vdW  Elec       q    Type
REMARK                         _______ _______ _______ _____ _____    ______ ____
ROOT
ATOM      1  C   UNL     1       6.793   6.415 -11.329  0.00  0.00    +0.080 C 
ATOM      2  C   UNL     1       5.760   5.797 -10.453  0.00  0.00    +0.247 C 
ATOM      3  O   UNL     1       5.792   5.807  -9.196  0.00  0.00    -0.273 OA
ATOM      4  N   UNL     1       4.751   5.221 -11.271  0.00  0.00    -0.145 NA
ATOM      5  C   UNL     1       5.180   5.208 -12.613  0.00  0.00    +0.248 C 
ATOM      6  O   UNL     1       4.637   4.615 -13.571  0.00  0.00    -0.273 OA
ATOM      7  C   UNL     1       6.308   6.154 -12.742  0.00  0.00    +0.096 C 
ATOM      8  C   UNL     1       6.850   7.903 -11.093  0.00  0.00    +0.010 C 
ENDROOT
BRANCH   1  10
ATOM      9  C   UNL     1       8.892   5.828 -12.239  0.00  0.00    +0.001 C 
ATOM     10  C   UNL     1       8.140   5.753 -11.068  0.00  0.00    +0.009 C 
ENDBRANCH   1  10
TORSDOF 1
ENDMDL
MODEL 3
REMARK VINA RESULT:      -5.2     10.837     11.516
REMARK  Name = 
REMARK  1 active torsions:
REMARK  status: ('A' for Active; 'I' for Inactive)
REMARK    1  A    between atoms: C_2  and  C_3
REMARK                            x       y       z     vdW  Elec       q    Type
REMARK                         _______ _______ _______ _____ _____    ______ ____
ROOT
ATOM      1  C   UNL     1      -0.999   6.177  -4.799  0.00  0.00    +0.080 C 
ATOM      2  C   UNL     1       0.026   5.450  -3.999  0.00  0.00    +0.247 C 
ATOM      3  O   UNL     1       1.202   5.225  -4.383  0.00  0.00    -0.273 OA
ATOM      4  N   UNL     1      -0.546   5.079  -2.752  0.00  0.00    -0.145 NA
ATOM      5  C   UNL     1      -1.938   5.298  -2.785  0.00  0.00    +0.248 C 
ATOM      6  O   UNL     1      -2.779   4.916  -1.943  0.00  0.00    -0.273 OA
ATOM      7  C   UNL     1      -2.231   6.202  -3.916  0.00  0.00    +0.096 C 
ATOM      8  C   UNL     1      -0.547   7.591  -5.059  0.00  0.00    +0.010 C 
ENDROOT
BRANCH   1  10
ATOM      9  C   UNL     1      -2.571   5.668  -6.486  0.00  0.00    +0.001 C 
ATOM     10  C   UNL     1      -1.256   5.421  -6.097  0.00  0.00    +0.009 C 
ENDBRANCH   1  10
TORSDOF 1
ENDMDL
MODEL 4
REMARK VINA RESULT:      -5.2      1.487      1.586
REMARK  Name = 
REMARK  1 active torsions:
REMARK  status: ('A' for Active; 'I' for Inactive)
REMARK    1  A    between atoms: C_2  and  C_3
REMARK                            x       y       z     vdW  Elec       q    Type
REMARK                         _______ _______ _______ _____ _____    ______ ____
ROOT
ATOM      1  C   UNL     1       6.594   6.129 -10.857  0.00  0.00    +0.080 C 
ATOM      2  C   UNL     1       6.718   5.203 -12.016  0.00  0.00    +0.247 C 
ATOM      3  O   UNL     1       7.803   4.720 -12.430  0.00  0.00    -0.273 OA
ATOM      4  N   UNL     1       5.423   4.958 -12.546  0.00  0.00    -0.145 NA
ATOM      5  C   UNL     1       4.498   5.850 -11.968  0.00  0.00    +0.248 C 
ATOM      6  O   UNL     1       3.317   6.046 -12.328  0.00  0.00    -0.273 OA
ATOM      7  C   UNL     1       5.110   6.414 -10.747  0.00  0.00    +0.096 C 
ATOM      8  C   UNL     1       7.062   5.448  -9.596  0.00  0.00    +0.010 C 
ENDROOT
BRANCH   1  10
ATOM      9  C   UNL     1       6.484   8.434 -11.362  0.00  0.00    +0.001 C 
ATOM     10  C   UNL     1       7.389   7.399 -11.137  0.00  0.00    +0.009 C 
ENDBRANCH   1  10
TORSDOF 1
ENDMDL
MODEL 5
REMARK VINA RESULT:      -5.1     11.331     12.104
REMARK  Name = 
REMARK  1 active torsions:
REMARK  status: ('A' for Active; 'I' for Inactive)
REMARK    1  A    between atoms: C_2  and  C_3
REMARK                            x       y       z     vdW  Elec       q    Type
REMARK                         _______ _______ _______ _____ _____    ______ ____
ROOT
ATOM      1  C   UNL     1      -1.548   6.235  -3.827  0.00  0.00    +0.080 C 
ATOM      2  C   UNL     1      -1.652   5.316  -2.660  0.00  0.00    +0.247 C 
ATOM      3  O   UNL     1      -2.733   4.960  -2.126  0.00  0.00    -0.273 OA
ATOM      4  N   UNL     1      -0.344   4.915  -2.277  0.00  0.00    -0.145 NA
ATOM      5  C   UNL     1       0.610   5.698  -2.956  0.00  0.00    +0.248 C 
ATOM      6  O   UNL     1       1.839   5.750  -2.730  0.00  0.00    -0.273 OA
ATOM      7  C   UNL     1      -0.062   6.344  -4.102  0.00  0.00    +0.096 C 
ATOM      8  C   UNL     1      -2.230   5.628  -5.027  0.00  0.00    +0.010 C 
ENDROOT
BRANCH   1  10
ATOM      9  C   UNL     1      -1.891   8.471  -4.507  0.00  0.00    +0.001 C 
ATOM     10  C   UNL     1      -2.152   7.586  -3.462  0.00  0.00    +0.009 C 
ENDBRANCH   1  10
TORSDOF 1
ENDMDL
MODEL 6
REMARK VINA RESULT:      -5.0      1.101      2.985
REMARK  Name = 
REMARK  1 active torsions:
REMARK  status: ('A' for Active; 'I' for Inactive)
REMARK    1  A    between atoms: C_2  and  C_3
REMARK                            x       y       z     vdW  Elec       q    Type
REMARK                         _______ _______ _______ _____ _____    ______ ____
ROOT
ATOM      1  C   UNL     1       6.413   6.247 -11.073  0.00  0.00    +0.080 C 
ATOM      2  C   UNL     1       6.293   5.323 -12.234  0.00  0.00    +0.247 C 
ATOM      3  O   UNL     1       5.229   4.755 -12.587  0.00  0.00    -0.273 OA
ATOM      4  N   UNL     1       7.562   5.214 -12.864  0.00  0.00    -0.145 NA
ATOM      5  C   UNL     1       8.548   5.806 -12.050  0.00  0.00    +0.248 C 
ATOM      6  O   UNL     1       9.788   5.732 -12.196  0.00  0.00    -0.273 OA
ATOM      7  C   UNL     1       7.867   6.675 -11.067  0.00  0.00    +0.096 C 
ATOM      8  C   UNL     1       5.541   7.459 -11.281  0.00  0.00    +0.010 C 
ENDROOT
BRANCH   1  10
ATOM      9  C   UNL     1       4.795   5.958  -9.377  0.00  0.00    +0.001 C 
ATOM     10  C   UNL     1       6.044   5.503  -9.795  0.00  0.00    +0.009 C 
ENDBRANCH   1  10
TORSDOF 1
ENDMDL
MODEL 7
REMARK VINA RESULT:      -4.9      2.262      3.378
REMARK  Name = 
REMARK  1 active torsions:
REMARK  status: ('A' for Active; 'I' for Inactive)
REMARK    1  A    between atoms: C_2  and  C_3
REMARK                            x       y       z     vdW  Elec       q    Type
REMARK                         _______ _______ _______ _____ _____    ______ ____
ROOT
ATOM      1  C   UNL     1       7.066   5.929 -10.692  0.00  0.00    +0.080 C 
ATOM      2  C   UNL     1       5.584   5.985 -10.826  0.00  0.00    +0.247 C 
ATOM      3  O   UNL     1       4.828   4.981 -10.810  0.00  0.00    -0.273 OA
ATOM      4  N   UNL     1       5.189   7.344 -10.958  0.00  0.00    -0.145 NA
ATOM      5  C   UNL     1       6.326   8.151 -11.164  0.00  0.00    +0.248 C 
ATOM      6  O   UNL     1       6.343   9.354 -11.503  0.00  0.00    -0.273 OA
ATOM      7  C   UNL     1       7.516   7.375 -10.758  0.00  0.00    +0.096 C 
ATOM      8  C   UNL     1       7.444   5.353  -9.351  0.00  0.00    +0.010 C 
ENDROOT
BRANCH   1  10
ATOM      9  C   UNL     1       8.854   5.693 -12.217  0.00  0.00    +0.001 C 
ATOM     10  C   UNL     1       7.647   5.109 -11.838  0.00  0.00    +0.009 C 
ENDBRANCH   1  10
TORSDOF 1
ENDMDL
MODEL 8
REMARK VINA RESULT:      -4.9     10.426     11.318
REMARK  Name = 
REMARK  1 active torsions:
REMARK  status: ('A' for Active; 'I' for Inactive)
REMARK    1  A    between atoms: C_2  and  C_3
REMARK                            x       y       z     vdW  Elec       q    Type
REMARK                         _______ _______ _______ _____ _____    ______ ____
ROOT
ATOM      1  C   UNL     1      -1.733   6.195  -4.473  0.00  0.00    +0.080 C 
ATOM      2  C   UNL     1      -1.830   5.713  -5.879  0.00  0.00    +0.247 C 
ATOM      3  O   UNL     1      -2.880   5.737  -6.570  0.00  0.00    -0.273 OA
ATOM      4  N   UNL     1      -0.553   5.245  -6.291  0.00  0.00    -0.145 NA
ATOM      5  C   UNL     1       0.304   5.163  -5.177  0.00  0.00    +0.248 C 
ATOM      6  O   UNL     1       1.431   4.623  -5.132  0.00  0.00    -0.273 OA
ATOM      7  C   UNL     1      -0.284   5.970  -4.087  0.00  0.00    +0.096 C 
ATOM      8  C   UNL     1      -2.040   7.669  -4.408  0.00  0.00    +0.010 C 
ENDROOT
BRANCH   1  10
ATOM      9  C   UNL     1      -3.473   6.279  -2.879  0.00  0.00    +0.001 C 
ATOM     10  C   UNL     1      -2.679   5.385  -3.594  0.00  0.00    +0.009 C 
ENDBRANCH   1  10
TORSDOF 1
ENDMDL
MODEL 9
REMARK VINA RESULT:      -4.9      2.007      2.456
REMARK  Name = 
REMARK  1 active torsions:
REMARK  status: ('A' for Active; 'I' for Inactive)
REMARK    1  A    between atoms: C_2  and  C_3
REMARK                            x       y       z     vdW  Elec       q    Type
REMARK                         _______ _______ _______ _____ _____    ______ ____
ROOT
ATOM      1  C   UNL     1       6.852   6.310 -10.719  0.00  0.00    +0.080 C 
ATOM      2  C   UNL     1       6.679   7.441 -11.671  0.00  0.00    +0.247 C 
ATOM      3  O   UNL     1       6.276   8.589 -11.351  0.00  0.00    -0.273 OA
ATOM      4  N   UNL     1       7.053   7.006 -12.971  0.00  0.00    -0.145 NA
ATOM      5  C   UNL     1       7.223   5.607 -12.972  0.00  0.00    +0.248 C 
ATOM      6  O   UNL     1       7.368   4.868 -13.970  0.00  0.00    -0.273 OA
ATOM      7  C   UNL     1       7.362   5.163 -11.569  0.00  0.00    +0.096 C 
ATOM      8  C   UNL     1       7.891   6.658  -9.683  0.00  0.00    +0.010 C 
ENDROOT
BRANCH   1  10
ATOM      9  C   UNL     1       5.757   5.423  -8.824  0.00  0.00    +0.001 C 
ATOM     10  C   UNL     1       5.510   5.978 -10.078  0.00  0.00    +0.009 C 
ENDBRANCH   1  10
TORSDOF 1
ENDMDL
