MODEL 1
REMARK VINA RESULT:      -9.7      0.000      0.000
REMARK  Name = 
REMARK  5 active torsions:
REMARK  status: ('A' for Active; 'I' for Inactive)
REMARK    1  A    between atoms: C_2  and  C_3
REMARK    2  A    between atoms: C_9  and  N_10
REMARK    3  A    between atoms: C_12  and  C_13
REMARK    4  A    between atoms: C_16  and  O_17
REMARK    5  A    between atoms: O_17  and  C_18
REMARK                            x       y       z     vdW  Elec       q    Type
REMARK                         _______ _______ _______ _____ _____    ______ ____
ROOT
ATOM      1  N   UNL     1       1.317   5.483  -3.270  0.00  0.00    -0.234 N 
ATOM      2  C   UNL     1       2.255   6.140  -2.617  0.00  0.00    +0.165 A 
ATOM      3  N   UNL     1       2.683   6.017  -1.361  0.00  0.00    -0.205 NA
ATOM      4  C   UNL     1       3.896   6.495  -1.010  0.00  0.00    +0.202 A 
ATOM      5  N   UNL     1       4.472   7.388  -1.851  0.00  0.00    -0.206 NA
ATOM      6  C   UNL     1       4.201   7.352  -3.179  0.00  0.00    +0.176 A 
ATOM      7  N   UNL     1       5.037   7.961  -4.148  0.00  0.00    -0.107 NA
ATOM      8  C   UNL     1       3.195   6.483  -3.584  0.00  0.00    +0.090 A 
ATOM      9  C   UNL     1       2.418   6.588  -4.734  0.00  0.00    +0.107 A 
ATOM     10  N   UNL     1       1.271   5.897  -4.521  0.00  0.00    -0.168 NA
ENDROOT
BRANCH   1  14
ATOM     11  C   UNL     1      -1.760   7.534  -0.357  0.00  0.00    +0.249 C 
ATOM     12  N   UNL     1      -1.439   6.578  -1.345  0.00  0.00    -0.274 N 
ATOM     13  C   UNL     1      -0.044   6.243  -1.482  0.00  0.00    +0.118 C 
ATOM     14  C   UNL     1      -0.035   4.988  -2.583  0.00  0.00    +0.127 C 
ATOM     15  C   UNL     1      -1.000   5.830  -3.661  0.00  0.00    +0.028 C 
ATOM     16  C   UNL     1      -2.350   5.270  -3.223  0.00  0.00    +0.024 C 
ATOM     17  C   UNL     1      -2.534   5.771  -1.820  0.00  0.00    +0.094 C 
ATOM     18  O   UNL     1      -1.215   8.673  -0.470  0.00  0.00    -0.270 OA
BRANCH  11  20
ATOM     19  C   UNL     1      -2.504   7.589   1.770  0.00  0.00    +0.005 C 
ATOM     20  C   UNL     1      -2.031   7.118   1.026  0.00  0.00    +0.058 C 
ENDBRANCH  11  20
ENDBRANCH   1  14
BRANCH   9  21
ATOM     21  C   UNL     1       3.058   6.774  -6.043  0.00  0.00    +0.020 A 
ATOM     22  C   UNL     1       3.838   5.752  -6.572  0.00  0.00    +0.005 A 
ATOM     23  C   UNL     1       3.712   5.375  -7.906  0.00  0.00    +0.038 A 
ATOM     24  C   UNL     1       2.829   6.032  -8.756  0.00  0.00    +0.145 A 
ATOM     25  C   UNL     1       2.492   7.310  -8.322  0.00  0.00    +0.038 A 
ATOM     26  C   UNL     1       2.571   7.676  -6.982  0.00  0.00    +0.005 A 
BRANCH  24  27
ATOM     27  O   UNL     1       1.976   5.331  -9.616  0.00  0.00    -0.453 OA
BRANCH  27  28
ATOM     28  C   UNL     1       1.263   6.036 -10.592  0.00  0.00    +0.145 A 
ATOM     29  C   UNL     1       1.811   5.988 -11.868  0.00  0.00    +0.037 A 
ATOM     30  C   UNL     1       1.241   6.804 -12.810  0.00  0.00    +0.003 A 
ATOM     31  C   UNL     1       0.082   7.500 -12.518  0.00  0.00    +0.000 A 
ATOM     32  C   UNL     1      -0.658   7.067 -11.442  0.00  0.00    +0.003 A 
ATOM     33  C   UNL     1      -0.064   6.384 -10.395  0.00  0.00    +0.037 A 
ENDBRANCH  27  28
ENDBRANCH  24  27
ENDBRANCH   9  21
TORSDOF 5
ENDMDL
MODEL 2
REMARK VINA RESULT:      -9.6      4.928     11.030
REMARK  Name = 
REMARK  5 active torsions:
REMARK  status: ('A' for Active; 'I' for Inactive)
REMARK    1  A    between atoms: C_2  and  C_3
REMARK    2  A    between atoms: C_9  and  N_10
REMARK    3  A    between atoms: C_12  and  C_13
REMARK    4  A    between atoms: C_16  and  O_17
REMARK    5  A    between atoms: O_17  and  C_18
REMARK                            x       y       z     vdW  Elec       q    Type
REMARK                         _______ _______ _______ _____ _____    ______ ____
ROOT
ATOM      1  N   UNL     1       3.853   5.396 -11.971  0.00  0.00    -0.234 N 
ATOM      2  C   UNL     1       2.894   5.889 -12.730  0.00  0.00    +0.165 A 
ATOM      3  N   UNL     1       2.583   5.640 -14.002  0.00  0.00    -0.205 NA
ATOM      4  C   UNL     1       1.351   5.938 -14.466  0.00  0.00    +0.202 A 
ATOM      5  N   UNL     1       0.605   6.796 -13.729  0.00  0.00    -0.206 NA
ATOM      6  C   UNL     1       0.775   6.872 -12.386  0.00  0.00    +0.176 A 
ATOM      7  N   UNL     1      -0.201   7.422 -11.520  0.00  0.00    -0.107 NA
ATOM      8  C   UNL     1       1.847   6.163 -11.855  0.00  0.00    +0.090 A 
ATOM      9  C   UNL     1       2.514   6.433 -10.664  0.00  0.00    +0.107 A 
ATOM     10  N   UNL     1       3.751   5.884 -10.750  0.00  0.00    -0.168 NA
ENDROOT
BRANCH   1  14
ATOM     11  C   UNL     1       6.612   7.333 -15.257  0.00  0.00    +0.249 C 
ATOM     12  N   UNL     1       6.434   6.570 -14.083  0.00  0.00    -0.274 N 
ATOM     13  C   UNL     1       5.125   6.004 -13.879  0.00  0.00    +0.118 C 
ATOM     14  C   UNL     1       5.305   5.041 -12.528  0.00  0.00    +0.127 C 
ATOM     15  C   UNL     1       6.040   6.268 -11.660  0.00  0.00    +0.028 C 
ATOM     16  C   UNL     1       7.491   5.903 -11.960  0.00  0.00    +0.024 C 
ATOM     17  C   UNL     1       7.640   6.116 -13.438  0.00  0.00    +0.094 C 
ATOM     18  O   UNL     1       5.855   8.340 -15.400  0.00  0.00    -0.270 OA
BRANCH  11  20
ATOM     19  C   UNL     1       7.676   6.976 -17.212  0.00  0.00    +0.005 C 
ATOM     20  C   UNL     1       7.020   6.691 -16.513  0.00  0.00    +0.058 C 
ENDBRANCH  11  20
ENDBRANCH   1  14
BRANCH   9  21
ATOM     21  C   UNL     1       1.757   6.610  -9.417  0.00  0.00    +0.020 A 
ATOM     22  C   UNL     1       1.038   5.540  -8.898  0.00  0.00    +0.005 A 
ATOM     23  C   UNL     1       1.092   5.233  -7.542  0.00  0.00    +0.038 A 
ATOM     24  C   UNL     1       1.838   6.010  -6.661  0.00  0.00    +0.145 A 
ATOM     25  C   UNL     1       2.086   7.295  -7.132  0.00  0.00    +0.038 A 
ATOM     26  C   UNL     1       2.080   7.595  -8.491  0.00  0.00    +0.005 A 
BRANCH  24  27
ATOM     27  O   UNL     1       2.683   5.433  -5.706  0.00  0.00    -0.453 OA
BRANCH  27  28
ATOM     28  C   UNL     1       3.425   6.266  -4.861  0.00  0.00    +0.145 A 
ATOM     29  C   UNL     1       2.810   6.577  -3.655  0.00  0.00    +0.037 A 
ATOM     30  C   UNL     1       3.427   7.525  -2.880  0.00  0.00    +0.003 A 
ATOM     31  C   UNL     1       4.675   8.004  -3.230  0.00  0.00    +0.000 A 
ATOM     32  C   UNL     1       5.411   7.255  -4.119  0.00  0.00    +0.003 A 
ATOM     33  C   UNL     1       4.793   6.413  -5.027  0.00  0.00    +0.037 A 
ENDBRANCH  27  28
ENDBRANCH  24  27
ENDBRANCH   9  21
TORSDOF 5
ENDMDL
MODEL 3
REMARK VINA RESULT:      -9.6      2.846      6.663
REMARK  Name = 
REMARK  5 active torsions:
REMARK  status: ('A' for Active; 'I' for Inactive)
REMARK    1  A    between atoms: C_2  and  C_3
REMARK    2  A    between atoms: C_9  and  N_10
REMARK    3  A    between atoms: C_12  and  C_13
REMARK    4  A    between atoms: C_16  and  O_17
REMARK    5  A    between atoms: O_17  and  C_18
REMARK                            x       y       z     vdW  Elec       q    Type
REMARK                         _______ _______ _______ _____ _____    ______ ____
ROOT
ATOM      1  N   UNL     1       2.581   6.652  -1.628  0.00  0.00    -0.234 N 
ATOM      2  C   UNL     1       2.590   6.933  -0.340  0.00  0.00    +0.165 A 
ATOM      3  N   UNL     1       3.524   7.513   0.413  0.00  0.00    -0.205 NA
ATOM      4  C   UNL     1       3.190   8.062   1.601  0.00  0.00    +0.202 A 
ATOM      5  N   UNL     1       2.003   7.690   2.139  0.00  0.00    -0.206 NA
ATOM      6  C   UNL     1       0.974   7.318   1.338  0.00  0.00    +0.176 A 
ATOM      7  N   UNL     1      -0.373   7.306   1.778  0.00  0.00    -0.107 NA
ATOM      8  C   UNL     1       1.259   7.181  -0.015  0.00  0.00    +0.090 A 
ATOM      9  C   UNL     1       0.575   6.390  -0.934  0.00  0.00    +0.107 A 
ATOM     10  N   UNL     1       1.418   6.127  -1.962  0.00  0.00    -0.168 NA
ENDROOT
BRANCH   1  14
ATOM     11  C   UNL     1       3.803   6.780  -6.172  0.00  0.00    +0.249 C 
ATOM     12  N   UNL     1       4.137   6.745  -4.801  0.00  0.00    -0.274 N 
ATOM     13  C   UNL     1       3.117   6.261  -3.905  0.00  0.00    +0.118 C 
ATOM     14  C   UNL     1       3.882   6.184  -2.423  0.00  0.00    +0.127 C 
ATOM     15  C   UNL     1       4.471   7.744  -2.564  0.00  0.00    +0.028 C 
ATOM     16  C   UNL     1       5.839   7.406  -3.147  0.00  0.00    +0.024 C 
ATOM     17  C   UNL     1       5.543   6.811  -4.493  0.00  0.00    +0.094 C 
ATOM     18  O   UNL     1       2.800   7.485  -6.494  0.00  0.00    -0.270 OA
BRANCH  11  20
ATOM     19  C   UNL     1       4.615   5.481  -7.825  0.00  0.00    +0.005 C 
ATOM     20  C   UNL     1       4.027   5.606  -7.027  0.00  0.00    +0.058 C 
ENDBRANCH  11  20
ENDBRANCH   1  14
BRANCH   9  21
ATOM     21  C   UNL     1      -0.887   6.489  -1.048  0.00  0.00    +0.020 A 
ATOM     22  C   UNL     1      -1.467   7.718  -1.341  0.00  0.00    +0.005 A 
ATOM     23  C   UNL     1      -2.476   7.823  -2.292  0.00  0.00    +0.038 A 
ATOM     24  C   UNL     1      -2.960   6.697  -2.952  0.00  0.00    +0.145 A 
ATOM     25  C   UNL     1      -2.720   5.511  -2.266  0.00  0.00    +0.038 A 
ATOM     26  C   UNL     1      -1.680   5.388  -1.349  0.00  0.00    +0.005 A 
BRANCH  24  27
ATOM     27  O   UNL     1      -3.160   6.684  -4.337  0.00  0.00    -0.453 OA
BRANCH  27  28
ATOM     28  C   UNL     1      -2.104   6.305  -5.173  0.00  0.00    +0.145 A 
ATOM     29  C   UNL     1      -2.483   5.624  -6.324  0.00  0.00    +0.037 A 
ATOM     30  C   UNL     1      -1.472   5.086  -7.078  0.00  0.00    +0.003 A 
ATOM     31  C   UNL     1      -0.153   5.364  -6.772  0.00  0.00    +0.000 A 
ATOM     32  C   UNL     1       0.090   6.455  -5.969  0.00  0.00    +0.003 A 
ATOM     33  C   UNL     1      -0.862   6.912  -5.076  0.00  0.00    +0.037 A 
ENDBRANCH  27  28
ENDBRANCH  24  27
ENDBRANCH   9  21
TORSDOF 5
ENDMDL
MODEL 4
REMARK VINA RESULT:      -9.5      2.861      6.250
REMARK  Name = 
REMARK  5 active torsions:
REMARK  status: ('A' for Active; 'I' for Inactive)
REMARK    1  A    between atoms: C_2  and  C_3
REMARK    2  A    between atoms: C_9  and  N_10
REMARK    3  A    between atoms: C_12  and  C_13
REMARK    4  A    between atoms: C_16  and  O_17
REMARK    5  A    between atoms: O_17  and  C_18
REMARK                            x       y       z     vdW  Elec       q    Type
REMARK                         _______ _______ _______ _____ _____    ______ ____
ROOT
ATOM      1  N   UNL     1      -0.214   5.694  -4.612  0.00  0.00    -0.234 N 
ATOM      2  C   UNL     1      -0.153   5.398  -5.895  0.00  0.00    +0.165 A 
ATOM      3  N   UNL     1      -1.094   5.439  -6.838  0.00  0.00    -0.205 NA
ATOM      4  C   UNL     1      -0.742   5.481  -8.142  0.00  0.00    +0.202 A 
ATOM      5  N   UNL     1       0.528   5.120  -8.448  0.00  0.00    -0.206 NA
ATOM      6  C   UNL     1       1.528   5.300  -7.550  0.00  0.00    +0.176 A 
ATOM      7  N   UNL     1       2.894   5.328  -7.921  0.00  0.00    -0.107 NA
ATOM      8  C   UNL     1       1.150   5.703  -6.274  0.00  0.00    +0.090 A 
ATOM      9  C   UNL     1       1.861   5.503  -5.095  0.00  0.00    +0.107 A 
ATOM     10  N   UNL     1       0.979   5.563  -4.066  0.00  0.00    -0.168 NA
ENDROOT
BRANCH   1  14
ATOM     11  C   UNL     1      -1.823   7.525  -0.585  0.00  0.00    +0.249 C 
ATOM     12  N   UNL     1      -2.031   6.859  -1.812  0.00  0.00    -0.274 N 
ATOM     13  C   UNL     1      -0.880   6.220  -2.396  0.00  0.00    +0.118 C 
ATOM     14  C   UNL     1      -1.497   5.398  -3.712  0.00  0.00    +0.127 C 
ATOM     15  C   UNL     1      -2.314   6.749  -4.266  0.00  0.00    +0.028 C 
ATOM     16  C   UNL     1      -3.665   6.466  -3.614  0.00  0.00    +0.024 C 
ATOM     17  C   UNL     1      -3.401   6.555  -2.139  0.00  0.00    +0.094 C 
ATOM     18  O   UNL     1      -0.963   8.457  -0.583  0.00  0.00    -0.270 OA
BRANCH  11  20
ATOM     19  C   UNL     1      -1.517   6.963   1.577  0.00  0.00    +0.005 C 
ATOM     20  C   UNL     1      -1.949   6.804   0.689  0.00  0.00    +0.058 C 
ENDBRANCH  11  20
ENDBRANCH   1  14
BRANCH   9  21
ATOM     21  C   UNL     1       3.277   5.884  -5.012  0.00  0.00    +0.020 A 
ATOM     22  C   UNL     1       3.629   7.226  -5.096  0.00  0.00    +0.005 A 
ATOM     23  C   UNL     1       4.555   7.779  -4.217  0.00  0.00    +0.038 A 
ATOM     24  C   UNL     1       5.183   6.996  -3.252  0.00  0.00    +0.145 A 
ATOM     25  C   UNL     1       5.180   5.638  -3.556  0.00  0.00    +0.038 A 
ATOM     26  C   UNL     1       4.225   5.074  -4.397  0.00  0.00    +0.005 A 
BRANCH  24  27
ATOM     27  O   UNL     1       5.308   7.422  -1.925  0.00  0.00    -0.453 OA
BRANCH  27  28
ATOM     28  C   UNL     1       4.157   7.553  -1.141  0.00  0.00    +0.145 A 
ATOM     29  C   UNL     1       3.827   8.858  -0.795  0.00  0.00    +0.037 A 
ATOM     30  C   UNL     1       2.811   9.013   0.113  0.00  0.00    +0.003 A 
ATOM     31  C   UNL     1       2.067   7.920   0.516  0.00  0.00    +0.000 A 
ATOM     32  C   UNL     1       2.120   6.795  -0.275  0.00  0.00    +0.003 A 
ATOM     33  C   UNL     1       3.218   6.535  -1.076  0.00  0.00    +0.037 A 
ENDBRANCH  27  28
ENDBRANCH  24  27
ENDBRANCH   9  21
TORSDOF 5
ENDMDL
MODEL 5
REMARK VINA RESULT:      -9.4      2.972      5.205
REMARK  Name = 
REMARK  5 active torsions:
REMARK  status: ('A' for Active; 'I' for Inactive)
REMARK    1  A    between atoms: C_2  and  C_3
REMARK    2  A    between atoms: C_9  and  N_10
REMARK    3  A    between atoms: C_12  and  C_13
REMARK    4  A    between atoms: C_16  and  O_17
REMARK    5  A    between atoms: O_17  and  C_18
REMARK                            x       y       z     vdW  Elec       q    Type
REMARK                         _______ _______ _______ _____ _____    ______ ____
ROOT
ATOM      1  N   UNL     1       1.050   5.406  -4.340  0.00  0.00    -0.234 N 
ATOM      2  C   UNL     1      -0.187   5.374  -4.793  0.00  0.00    +0.165 A 
ATOM      3  N   UNL     1      -1.328   5.763  -4.223  0.00  0.00    -0.205 NA
ATOM      4  C   UNL     1      -2.414   6.012  -4.986  0.00  0.00    +0.202 A 
ATOM      5  N   UNL     1      -2.406   5.517  -6.247  0.00  0.00    -0.206 NA
ATOM      6  C   UNL     1      -1.235   5.342  -6.908  0.00  0.00    +0.176 A 
ATOM      7  N   UNL     1      -1.162   5.219  -8.317  0.00  0.00    -0.107 NA
ATOM      8  C   UNL     1      -0.072   5.531  -6.171  0.00  0.00    +0.090 A 
ATOM      9  C   UNL     1       1.178   4.978  -6.432  0.00  0.00    +0.107 A 
ATOM     10  N   UNL     1       1.877   4.971  -5.271  0.00  0.00    -0.168 NA
ENDROOT
BRANCH   1  14
ATOM     11  C   UNL     1       3.651   7.771  -1.209  0.00  0.00    +0.249 C 
ATOM     12  N   UNL     1       2.611   6.871  -1.526  0.00  0.00    -0.274 N 
ATOM     13  C   UNL     1       2.668   6.260  -2.830  0.00  0.00    +0.118 C 
ATOM     14  C   UNL     1       1.423   5.147  -2.811  0.00  0.00    +0.127 C 
ATOM     15  C   UNL     1       0.323   6.278  -2.254  0.00  0.00    +0.028 C 
ATOM     16  C   UNL     1       0.444   5.979  -0.763  0.00  0.00    +0.024 C 
ATOM     17  C   UNL     1       1.851   6.367  -0.410  0.00  0.00    +0.094 C 
ATOM     18  O   UNL     1       3.788   8.772  -1.974  0.00  0.00    -0.270 OA
BRANCH  11  20
ATOM     19  C   UNL     1       5.205   7.290   0.351  0.00  0.00    +0.005 C 
ATOM     20  C   UNL     1       4.898   7.289  -0.600  0.00  0.00    +0.058 C 
ENDBRANCH  11  20
ENDBRANCH   1  14
BRANCH   9  21
ATOM     21  C   UNL     1       1.771   5.094  -7.771  0.00  0.00    +0.020 A 
ATOM     22  C   UNL     1       2.079   6.354  -8.274  0.00  0.00    +0.005 A 
ATOM     23  C   UNL     1       3.295   6.593  -8.905  0.00  0.00    +0.038 A 
ATOM     24  C   UNL     1       4.223   5.571  -9.084  0.00  0.00    +0.145 A 
ATOM     25  C   UNL     1       3.660   4.300  -9.036  0.00  0.00    +0.038 A 
ATOM     26  C   UNL     1       2.469   4.048  -8.363  0.00  0.00    +0.005 A 
BRANCH  24  27
ATOM     27  O   UNL     1       5.582   5.753  -8.801  0.00  0.00    -0.453 OA
BRANCH  27  28
ATOM     28  C   UNL     1       6.480   5.930  -9.860  0.00  0.00    +0.145 A 
ATOM     29  C   UNL     1       6.206   7.012 -10.687  0.00  0.00    +0.037 A 
ATOM     30  C   UNL     1       6.958   7.115 -11.830  0.00  0.00    +0.003 A 
ATOM     31  C   UNL     1       8.030   6.267 -12.035  0.00  0.00    +0.000 A 
ATOM     32  C   UNL     1       8.533   5.610 -10.935  0.00  0.00    +0.003 A 
ATOM     33  C   UNL     1       7.737   5.348  -9.834  0.00  0.00    +0.037 A 
ENDBRANCH  27  28
ENDBRANCH  24  27
ENDBRANCH   9  21
TORSDOF 5
ENDMDL
MODEL 6
REMARK VINA RESULT:      -9.4      2.942      5.829
REMARK  Name = 
REMARK  5 active torsions:
REMARK  status: ('A' for Active; 'I' for Inactive)
REMARK    1  A    between atoms: C_2  and  C_3
REMARK    2  A    between atoms: C_9  and  N_10
REMARK    3  A    between atoms: C_12  and  C_13
REMARK    4  A    between atoms: C_16  and  O_17
REMARK    5  A    between atoms: O_17  and  C_18
REMARK                            x       y       z     vdW  Elec       q    Type
REMARK                         _______ _______ _______ _____ _____    ______ ____
ROOT
ATOM      1  N   UNL     1      -0.290   6.128  -2.079  0.00  0.00    -0.234 N 
ATOM      2  C   UNL     1      -1.544   5.919  -2.427  0.00  0.00    +0.165 A 
ATOM      3  N   UNL     1      -2.680   6.278  -1.829  0.00  0.00    -0.205 NA
ATOM      4  C   UNL     1      -3.831   6.317  -2.534  0.00  0.00    +0.202 A 
ATOM      5  N   UNL     1      -3.853   5.652  -3.714  0.00  0.00    -0.206 NA
ATOM      6  C   UNL     1      -2.714   5.493  -4.433  0.00  0.00    +0.176 A 
ATOM      7  N   UNL     1      -2.718   5.179  -5.814  0.00  0.00    -0.107 NA
ATOM      8  C   UNL     1      -1.533   5.890  -3.818  0.00  0.00    +0.090 A 
ATOM      9  C   UNL     1      -0.252   5.422  -4.098  0.00  0.00    +0.107 A 
ATOM     10  N   UNL     1       0.516   5.643  -3.002  0.00  0.00    -0.168 NA
ENDROOT
BRANCH   1  14
ATOM     11  C   UNL     1       3.279   8.226   0.161  0.00  0.00    +0.249 C 
ATOM     12  N   UNL     1       1.993   7.642   0.155  0.00  0.00    -0.274 N 
ATOM     13  C   UNL     1       1.696   6.763  -0.947  0.00  0.00    +0.118 C 
ATOM     14  C   UNL     1       0.203   6.122  -0.562  0.00  0.00    +0.127 C 
ATOM     15  C   UNL     1      -0.446   7.633  -0.248  0.00  0.00    +0.028 C 
ATOM     16  C   UNL     1      -0.209   7.660   1.259  0.00  0.00    +0.024 C 
ATOM     17  C   UNL     1       1.285   7.666   1.409  0.00  0.00    +0.094 C 
ATOM     18  O   UNL     1       3.586   8.935  -0.844  0.00  0.00    -0.270 OA
BRANCH  11  20
ATOM     19  C   UNL     1       5.153   6.995   0.397  0.00  0.00    +0.005 C 
ATOM     20  C   UNL     1       4.411   7.536   0.794  0.00  0.00    +0.058 C 
ENDBRANCH  11  20
ENDBRANCH   1  14
BRANCH   9  21
ATOM     21  C   UNL     1       0.241   5.402  -5.481  0.00  0.00    +0.020 A 
ATOM     22  C   UNL     1       0.524   6.603  -6.122  0.00  0.00    +0.005 A 
ATOM     23  C   UNL     1       1.693   6.762  -6.861  0.00  0.00    +0.038 A 
ATOM     24  C   UNL     1       2.594   5.711  -7.009  0.00  0.00    +0.145 A 
ATOM     25  C   UNL     1       2.023   4.460  -6.800  0.00  0.00    +0.038 A 
ATOM     26  C   UNL     1       0.882   4.293  -6.021  0.00  0.00    +0.005 A 
BRANCH  24  27
ATOM     27  O   UNL     1       3.972   5.896  -6.846  0.00  0.00    -0.453 OA
BRANCH  27  28
ATOM     28  C   UNL     1       4.477   6.152  -5.566  0.00  0.00    +0.145 A 
ATOM     29  C   UNL     1       4.471   7.489  -5.190  0.00  0.00    +0.037 A 
ATOM     30  C   UNL     1       5.115   7.799  -4.020  0.00  0.00    +0.003 A 
ATOM     31  C   UNL     1       5.590   6.792  -3.200  0.00  0.00    +0.000 A 
ATOM     32  C   UNL     1       5.078   5.529  -3.393  0.00  0.00    +0.003 A 
ATOM     33  C   UNL     1       4.574   5.142  -4.622  0.00  0.00    +0.037 A 
ENDBRANCH  27  28
ENDBRANCH  24  27
ENDBRANCH   9  21
TORSDOF 5
ENDMDL
MODEL 7
REMARK VINA RESULT:      -9.2      2.944      6.588
REMARK  Name = 
REMARK  5 active torsions:
REMARK  status: ('A' for Active; 'I' for Inactive)
REMARK    1  A    between atoms: C_2  and  C_3
REMARK    2  A    between atoms: C_9  and  N_10
REMARK    3  A    between atoms: C_12  and  C_13
REMARK    4  A    between atoms: C_16  and  O_17
REMARK    5  A    between atoms: O_17  and  C_18
REMARK                            x       y       z     vdW  Elec       q    Type
REMARK                         _______ _______ _______ _____ _____    ______ ____
ROOT
ATOM      1  N   UNL     1       1.264   6.905  -0.329  0.00  0.00    -0.234 N 
ATOM      2  C   UNL     1       0.582   7.090   0.783  0.00  0.00    +0.165 A 
ATOM      3  N   UNL     1       0.970   7.563   1.967  0.00  0.00    -0.205 NA
ATOM      4  C   UNL     1       0.053   8.041   2.837  0.00  0.00    +0.202 A 
ATOM      5  N   UNL     1      -1.239   7.694   2.622  0.00  0.00    -0.206 NA
ATOM      6  C   UNL     1      -1.680   7.437   1.365  0.00  0.00    +0.176 A 
ATOM      7  N   UNL     1      -3.052   7.464   1.015  0.00  0.00    -0.107 NA
ATOM      8  C   UNL     1      -0.713   7.384   0.368  0.00  0.00    +0.090 A 
ATOM      9  C   UNL     1      -0.802   6.700  -0.841  0.00  0.00    +0.107 A 
ATOM     10  N   UNL     1       0.460   6.468  -1.279  0.00  0.00    -0.168 NA
ENDROOT
BRANCH   1  14
ATOM     11  C   UNL     1       4.570   6.782  -3.678  0.00  0.00    +0.249 C 
ATOM     12  N   UNL     1       4.184   6.844  -2.322  0.00  0.00    -0.274 N 
ATOM     13  C   UNL     1       2.853   6.387  -2.013  0.00  0.00    +0.118 C 
ATOM     14  C   UNL     1       2.787   6.428  -0.346  0.00  0.00    +0.127 C 
ATOM     15  C   UNL     1       3.375   7.994  -0.287  0.00  0.00    +0.028 C 
ATOM     16  C   UNL     1       4.851   7.662  -0.095  0.00  0.00    +0.024 C 
ATOM     17  C   UNL     1       5.256   6.974  -1.367  0.00  0.00    +0.094 C 
ATOM     18  O   UNL     1       3.860   7.433  -4.501  0.00  0.00    -0.270 OA
BRANCH  11  20
ATOM     19  C   UNL     1       4.769   4.740  -4.613  0.00  0.00    +0.005 C 
ATOM     20  C   UNL     1       5.183   5.564  -4.226  0.00  0.00    +0.058 C 
ENDBRANCH  11  20
ENDBRANCH   1  14
BRANCH   9  21
ATOM     21  C   UNL     1      -1.973   6.884  -1.709  0.00  0.00    +0.020 A 
ATOM     22  C   UNL     1      -1.944   7.863  -2.696  0.00  0.00    +0.005 A 
ATOM     23  C   UNL     1      -2.393   7.593  -3.985  0.00  0.00    +0.038 A 
ATOM     24  C   UNL     1      -2.919   6.347  -4.313  0.00  0.00    +0.145 A 
ATOM     25  C   UNL     1      -3.381   5.635  -3.211  0.00  0.00    +0.038 A 
ATOM     26  C   UNL     1      -2.898   5.870  -1.927  0.00  0.00    +0.005 A 
BRANCH  24  27
ATOM     27  O   UNL     1      -2.543   5.674  -5.481  0.00  0.00    -0.453 OA
BRANCH  27  28
ATOM     28  C   UNL     1      -1.190   5.629  -5.835  0.00  0.00    +0.145 A 
ATOM     29  C   UNL     1      -0.326   5.274  -4.807  0.00  0.00    +0.037 A 
ATOM     30  C   UNL     1       1.015   5.388  -5.067  0.00  0.00    +0.003 A 
ATOM     31  C   UNL     1       1.452   5.683  -6.345  0.00  0.00    +0.000 A 
ATOM     32  C   UNL     1       0.564   5.483  -7.377  0.00  0.00    +0.003 A 
ATOM     33  C   UNL     1      -0.803   5.532  -7.162  0.00  0.00    +0.037 A 
ENDBRANCH  27  28
ENDBRANCH  24  27
ENDBRANCH   9  21
TORSDOF 5
ENDMDL
MODEL 8
REMARK VINA RESULT:      -9.2      2.587      4.959
REMARK  Name = 
REMARK  5 active torsions:
REMARK  status: ('A' for Active; 'I' for Inactive)
REMARK    1  A    between atoms: C_2  and  C_3
REMARK    2  A    between atoms: C_9  and  N_10
REMARK    3  A    between atoms: C_12  and  C_13
REMARK    4  A    between atoms: C_16  and  O_17
REMARK    5  A    between atoms: O_17  and  C_18
REMARK                            x       y       z     vdW  Elec       q    Type
REMARK                         _______ _______ _______ _____ _____    ______ ____
ROOT
ATOM      1  N   UNL     1       0.221   5.934  -2.941  0.00  0.00    -0.234 N 
ATOM      2  C   UNL     1      -0.993   5.595  -3.326  0.00  0.00    +0.165 A 
ATOM      3  N   UNL     1      -2.153   5.640  -2.671  0.00  0.00    -0.205 NA
ATOM      4  C   UNL     1      -3.317   5.627  -3.356  0.00  0.00    +0.202 A 
ATOM      5  N   UNL     1      -3.268   5.209  -4.644  0.00  0.00    -0.206 NA
ATOM      6  C   UNL     1      -2.141   5.382  -5.378  0.00  0.00    +0.176 A 
ATOM      7  N   UNL     1      -2.136   5.347  -6.794  0.00  0.00    -0.107 NA
ATOM      8  C   UNL     1      -1.020   5.839  -4.695  0.00  0.00    +0.090 A 
ATOM      9  C   UNL     1       0.310   5.651  -5.059  0.00  0.00    +0.107 A 
ATOM     10  N   UNL     1       1.066   5.777  -3.941  0.00  0.00    -0.168 NA
ENDROOT
BRANCH   1  14
ATOM     11  C   UNL     1       3.655   7.933  -0.417  0.00  0.00    +0.249 C 
ATOM     12  N   UNL     1       2.425   7.245  -0.508  0.00  0.00    -0.274 N 
ATOM     13  C   UNL     1       2.175   6.544  -1.741  0.00  0.00    +0.118 C 
ATOM     14  C   UNL     1       0.754   5.715  -1.454  0.00  0.00    +0.127 C 
ATOM     15  C   UNL     1      -0.014   7.084  -0.876  0.00  0.00    +0.028 C 
ATOM     16  C   UNL     1       0.262   6.875   0.610  0.00  0.00    +0.024 C 
ATOM     17  C   UNL     1       1.752   6.990   0.740  0.00  0.00    +0.094 C 
ATOM     18  O   UNL     1       3.871   8.827  -1.289  0.00  0.00    -0.270 OA
BRANCH  11  20
ATOM     19  C   UNL     1       5.291   7.249   0.974  0.00  0.00    +0.005 C 
ATOM     20  C   UNL     1       4.860   7.250   0.073  0.00  0.00    +0.058 C 
ENDBRANCH  11  20
ENDBRANCH   1  14
BRANCH   9  21
ATOM     21  C   UNL     1       0.757   5.982  -6.419  0.00  0.00    +0.020 A 
ATOM     22  C   UNL     1       1.439   7.173  -6.642  0.00  0.00    +0.005 A 
ATOM     23  C   UNL     1       2.585   7.204  -7.431  0.00  0.00    +0.038 A 
ATOM     24  C   UNL     1       3.061   6.051  -8.048  0.00  0.00    +0.145 A 
ATOM     25  C   UNL     1       2.090   5.067  -8.204  0.00  0.00    +0.038 A 
ATOM     26  C   UNL     1       0.967   5.005  -7.386  0.00  0.00    +0.005 A 
BRANCH  24  27
ATOM     27  O   UNL     1       4.417   5.706  -8.016  0.00  0.00    -0.453 OA
BRANCH  27  28
ATOM     28  C   UNL     1       5.256   6.144  -9.047  0.00  0.00    +0.145 A 
ATOM     29  C   UNL     1       6.515   5.557  -9.068  0.00  0.00    +0.037 A 
ATOM     30  C   UNL     1       7.421   6.084  -9.952  0.00  0.00    +0.003 A 
ATOM     31  C   UNL     1       7.022   7.036 -10.872  0.00  0.00    +0.000 A 
ATOM     32  C   UNL     1       5.673   7.146 -11.119  0.00  0.00    +0.003 A 
ATOM     33  C   UNL     1       4.739   6.774 -10.168  0.00  0.00    +0.037 A 
ENDBRANCH  27  28
ENDBRANCH  24  27
ENDBRANCH   9  21
TORSDOF 5
ENDMDL
MODEL 9
REMARK VINA RESULT:      -8.9      3.445      4.916
REMARK  Name = 
REMARK  5 active torsions:
REMARK  status: ('A' for Active; 'I' for Inactive)
REMARK    1  A    between atoms: C_2  and  C_3
REMARK    2  A    between atoms: C_9  and  N_10
REMARK    3  A    between atoms: C_12  and  C_13
REMARK    4  A    between atoms: C_16  and  O_17
REMARK    5  A    between atoms: O_17  and  C_18
REMARK                            x       y       z     vdW  Elec       q    Type
REMARK                         _______ _______ _______ _____ _____    ______ ____
ROOT
ATOM      1  N   UNL     1       1.476   7.525   0.376  0.00  0.00    -0.234 N 
ATOM      2  C   UNL     1       2.384   7.863   1.269  0.00  0.00    +0.165 A 
ATOM      3  N   UNL     1       2.281   8.038   2.586  0.00  0.00    -0.205 NA
ATOM      4  C   UNL     1       3.384   7.992   3.363  0.00  0.00    +0.202 A 
ATOM      5  N   UNL     1       4.581   8.127   2.741  0.00  0.00    -0.206 NA
ATOM      6  C   UNL     1       4.734   7.726   1.455  0.00  0.00    +0.176 A 
ATOM      7  N   UNL     1       6.002   7.465   0.880  0.00  0.00    -0.107 NA
ATOM      8  C   UNL     1       3.580   7.341   0.783  0.00  0.00    +0.090 A 
ATOM      9  C   UNL     1       3.375   7.354  -0.593  0.00  0.00    +0.107 A 
ATOM     10  N   UNL     1       2.038   7.410  -0.811  0.00  0.00    -0.168 NA
ENDROOT
BRANCH   1  14
ATOM     11  C   UNL     1      -2.529   5.910  -1.499  0.00  0.00    +0.249 C 
ATOM     12  N   UNL     1      -1.828   6.622  -0.502  0.00  0.00    -0.274 N 
ATOM     13  C   UNL     1      -0.505   7.076  -0.850  0.00  0.00    +0.118 C 
ATOM     14  C   UNL     1      -0.042   8.010   0.454  0.00  0.00    +0.127 C 
ATOM     15  C   UNL     1      -0.464   6.820   1.551  0.00  0.00    +0.028 C 
ATOM     16  C   UNL     1      -1.876   7.307   1.864  0.00  0.00    +0.024 C 
ATOM     17  C   UNL     1      -2.627   7.151   0.574  0.00  0.00    +0.094 C 
ATOM     18  O   UNL     1      -1.982   4.851  -1.931  0.00  0.00    -0.270 OA
BRANCH  11  20
ATOM     19  C   UNL     1      -3.157   6.902  -3.423  0.00  0.00    +0.005 C 
ATOM     20  C   UNL     1      -3.355   6.620  -2.485  0.00  0.00    +0.058 C 
ENDBRANCH  11  20
ENDBRANCH   1  14
BRANCH   9  21
ATOM     21  C   UNL     1       4.348   6.717  -1.491  0.00  0.00    +0.020 A 
ATOM     22  C   UNL     1       4.241   5.356  -1.757  0.00  0.00    +0.005 A 
ATOM     23  C   UNL     1       4.365   4.870  -3.055  0.00  0.00    +0.038 A 
ATOM     24  C   UNL     1       4.636   5.727  -4.118  0.00  0.00    +0.145 A 
ATOM     25  C   UNL     1       5.221   6.926  -3.725  0.00  0.00    +0.038 A 
ATOM     26  C   UNL     1       5.059   7.439  -2.442  0.00  0.00    +0.005 A 
BRANCH  24  27
ATOM     27  O   UNL     1       3.932   5.647  -5.325  0.00  0.00    -0.453 OA
BRANCH  27  28
ATOM     28  C   UNL     1       2.536   5.547  -5.294  0.00  0.00    +0.145 A 
ATOM     29  C   UNL     1       1.876   6.690  -4.860  0.00  0.00    +0.037 A 
ATOM     30  C   UNL     1       0.526   6.575  -4.651  0.00  0.00    +0.003 A 
ATOM     31  C   UNL     1      -0.138   5.420  -5.019  0.00  0.00    +0.000 A 
ATOM     32  C   UNL     1       0.495   4.587  -5.913  0.00  0.00    +0.003 A 
ATOM     33  C   UNL     1       1.874   4.569  -6.019  0.00  0.00    +0.037 A 
ENDBRANCH  27  28
ENDBRANCH  24  27
ENDBRANCH   9  21
TORSDOF 5
ENDMDL
