MODEL 1
REMARK VINA RESULT:      -6.0      0.000      0.000
REMARK  Name = 
REMARK  5 active torsions:
REMARK  status: ('A' for Active; 'I' for Inactive)
REMARK    1  A    between atoms: C_2  and  N_3
REMARK    2  A    between atoms: N_3  and  C_4
REMARK    3  A    between atoms: N_3  and  C_6
REMARK    4  A    between atoms: C_6  and  C_7
REMARK    5  A    between atoms: N_9  and  C_10
REMARK                            x       y       z     vdW  Elec       q    Type
REMARK                         _______ _______ _______ _____ _____    ______ ____
ROOT
ATOM      1  C   UNL     1       1.763   5.746  -4.702  0.00  0.00    +0.262 C 
ATOM      2  N   UNL     1       0.625   4.943  -4.413  0.00  0.00    -0.179 NA
ATOM      3  O   UNL     1       1.858   6.893  -4.182  0.00  0.00    -0.271 OA
ENDROOT
BRANCH   2   4
ATOM      4  C   UNL     1      -0.622   5.640  -4.304  0.00  0.00    +0.065 A 
ATOM      5  C   UNL     1      -0.967   6.206  -3.088  0.00  0.00    -0.007 A 
ATOM      6  C   UNL     1      -0.591   5.466  -1.845  0.00  0.00    +0.032 C 
ATOM      7  C   UNL     1      -1.864   7.261  -3.038  0.00  0.00    -0.003 A 
ATOM      8  C   UNL     1      -2.185   7.922  -4.216  0.00  0.00    -0.001 A 
ATOM      9  C   UNL     1      -2.087   7.153  -5.368  0.00  0.00    -0.003 A 
ATOM     10  C   UNL     1      -1.321   6.020  -5.435  0.00  0.00    -0.007 A 
ATOM     11  C   UNL     1      -1.076   5.290  -6.708  0.00  0.00    +0.032 C 
ENDBRANCH   2   4
BRANCH   1  12
ATOM     12  C   UNL     1       2.913   5.261  -5.522  0.00  0.00    +0.161 C 
BRANCH  12  13
ATOM     13  N   UNL     1       2.551   5.440  -6.894  0.00  0.00    -0.265 NA
BRANCH  13  15
ATOM     14  C   UNL     1       3.329   4.105  -8.819  0.00  0.00    +0.019 C 
ATOM     15  C   UNL     1       2.402   4.250  -7.655  0.00  0.00    +0.073 C 
ENDBRANCH  13  15
BRANCH  13  16
ATOM     16  C   UNL     1       3.185   6.536  -7.554  0.00  0.00    +0.073 C 
ATOM     17  C   UNL     1       2.090   7.566  -7.811  0.00  0.00    +0.019 C 
ENDBRANCH  13  16
ENDBRANCH  12  13
ENDBRANCH   1  12
TORSDOF 5
ENDMDL
MODEL 2
REMARK VINA RESULT:      -6.0      4.406      8.779
REMARK  Name = 
REMARK  5 active torsions:
REMARK  status: ('A' for Active; 'I' for Inactive)
REMARK    1  A    between atoms: C_2  and  N_3
REMARK    2  A    between atoms: N_3  and  C_4
REMARK    3  A    between atoms: N_3  and  C_6
REMARK    4  A    between atoms: C_6  and  C_7
REMARK    5  A    between atoms: N_9  and  C_10
REMARK                            x       y       z     vdW  Elec       q    Type
REMARK                         _______ _______ _______ _____ _____    ______ ____
ROOT
ATOM      1  C   UNL     1       3.946   5.779 -10.318  0.00  0.00    +0.262 C 
ATOM      2  N   UNL     1       5.008   6.600 -10.789  0.00  0.00    -0.179 NA
ATOM      3  O   UNL     1       4.215   4.670  -9.779  0.00  0.00    -0.271 OA
ENDROOT
BRANCH   2   4
ATOM      4  C   UNL     1       6.113   5.912 -11.389  0.00  0.00    +0.065 A 
ATOM      5  C   UNL     1       6.073   5.638 -12.746  0.00  0.00    -0.007 A 
ATOM      6  C   UNL     1       4.752   5.269 -13.342  0.00  0.00    +0.032 C 
ATOM      7  C   UNL     1       7.248   5.438 -13.454  0.00  0.00    -0.003 A 
ATOM      8  C   UNL     1       8.452   5.795 -12.863  0.00  0.00    -0.001 A 
ATOM      9  C   UNL     1       8.466   5.746 -11.475  0.00  0.00    -0.003 A 
ATOM     10  C   UNL     1       7.322   5.801 -10.725  0.00  0.00    -0.007 A 
ATOM     11  C   UNL     1       7.338   5.922  -9.243  0.00  0.00    +0.032 C 
ENDBRANCH   2   4
BRANCH   1  12
ATOM     12  C   UNL     1       2.516   6.209 -10.341  0.00  0.00    +0.161 C 
BRANCH  12  13
ATOM     13  N   UNL     1       2.075   6.264  -8.982  0.00  0.00    -0.265 NA
BRANCH  13  15
ATOM     14  C   UNL     1       0.100   5.104  -9.900  0.00  0.00    +0.019 C 
ATOM     15  C   UNL     1       0.788   5.722  -8.726  0.00  0.00    +0.073 C 
ENDBRANCH  13  15
BRANCH  13  16
ATOM     16  C   UNL     1       2.405   7.465  -8.282  0.00  0.00    +0.073 C 
ATOM     17  C   UNL     1       2.577   7.068  -6.819  0.00  0.00    +0.019 C 
ENDBRANCH  13  16
ENDBRANCH  12  13
ENDBRANCH   1  12
TORSDOF 5
ENDMDL
MODEL 3
REMARK VINA RESULT:      -5.9      5.132      9.006
REMARK  Name = 
REMARK  5 active torsions:
REMARK  status: ('A' for Active; 'I' for Inactive)
REMARK    1  A    between atoms: C_2  and  N_3
REMARK    2  A    between atoms: N_3  and  C_4
REMARK    3  A    between atoms: N_3  and  C_6
REMARK    4  A    between atoms: C_6  and  C_7
REMARK    5  A    between atoms: N_9  and  C_10
REMARK                            x       y       z     vdW  Elec       q    Type
REMARK                         _______ _______ _______ _____ _____    ______ ____
ROOT
ATOM      1  C   UNL     1       3.828   5.837 -10.396  0.00  0.00    +0.262 C 
ATOM      2  N   UNL     1       4.921   6.635 -10.833  0.00  0.00    -0.179 NA
ATOM      3  O   UNL     1       4.056   4.709  -9.876  0.00  0.00    -0.271 OA
ENDROOT
BRANCH   2   4
ATOM      4  C   UNL     1       6.015   5.928 -11.430  0.00  0.00    +0.065 A 
ATOM      5  C   UNL     1       5.992   5.690 -12.795  0.00  0.00    -0.007 A 
ATOM      6  C   UNL     1       4.672   5.379 -13.424  0.00  0.00    +0.032 C 
ATOM      7  C   UNL     1       7.173   5.471 -13.486  0.00  0.00    -0.003 A 
ATOM      8  C   UNL     1       8.377   5.774 -12.863  0.00  0.00    -0.001 A 
ATOM      9  C   UNL     1       8.362   5.689 -11.478  0.00  0.00    -0.003 A 
ATOM     10  C   UNL     1       7.206   5.762 -10.747  0.00  0.00    -0.007 A 
ATOM     11  C   UNL     1       7.198   5.844  -9.262  0.00  0.00    +0.032 C 
ENDBRANCH   2   4
BRANCH   1  12
ATOM     12  C   UNL     1       2.412   6.309 -10.432  0.00  0.00    +0.161 C 
BRANCH  12  13
ATOM     13  N   UNL     1       1.673   5.352 -11.196  0.00  0.00    -0.265 NA
BRANCH  13  15
ATOM     14  C   UNL     1       0.807   4.667 -13.404  0.00  0.00    +0.019 C 
ATOM     15  C   UNL     1       1.312   5.753 -12.510  0.00  0.00    +0.073 C 
ENDBRANCH  13  15
BRANCH  13  16
ATOM     16  C   UNL     1       0.687   4.620 -10.467  0.00  0.00    +0.073 C 
ATOM     17  C   UNL     1       0.197   5.554  -9.364  0.00  0.00    +0.019 C 
ENDBRANCH  13  16
ENDBRANCH  12  13
ENDBRANCH   1  12
TORSDOF 5
ENDMDL
MODEL 4
REMARK VINA RESULT:      -5.8      1.679      2.292
REMARK  Name = 
REMARK  5 active torsions:
REMARK  status: ('A' for Active; 'I' for Inactive)
REMARK    1  A    between atoms: C_2  and  N_3
REMARK    2  A    between atoms: N_3  and  C_4
REMARK    3  A    between atoms: N_3  and  C_6
REMARK    4  A    between atoms: C_6  and  C_7
REMARK    5  A    between atoms: N_9  and  C_10
REMARK                            x       y       z     vdW  Elec       q    Type
REMARK                         _______ _______ _______ _____ _____    ______ ____
ROOT
ATOM      1  C   UNL     1       1.253   5.087  -5.285  0.00  0.00    +0.262 C 
ATOM      2  N   UNL     1       0.408   6.127  -4.808  0.00  0.00    -0.179 NA
ATOM      3  O   UNL     1       0.735   4.040  -5.762  0.00  0.00    -0.271 OA
ENDROOT
BRANCH   2   4
ATOM      4  C   UNL     1      -0.784   5.706  -4.133  0.00  0.00    +0.065 A 
ATOM      5  C   UNL     1      -0.754   5.549  -2.757  0.00  0.00    -0.007 A 
ATOM      6  C   UNL     1       0.496   5.000  -2.148  0.00  0.00    +0.032 C 
ATOM      7  C   UNL     1      -1.924   5.628  -2.019  0.00  0.00    -0.003 A 
ATOM      8  C   UNL     1      -3.062   6.145  -2.624  0.00  0.00    -0.001 A 
ATOM      9  C   UNL     1      -3.124   5.978  -4.001  0.00  0.00    -0.003 A 
ATOM     10  C   UNL     1      -2.012   5.759  -4.768  0.00  0.00    -0.007 A 
ATOM     11  C   UNL     1      -2.050   5.751  -6.255  0.00  0.00    +0.032 C 
ENDBRANCH   2   4
BRANCH   1  12
ATOM     12  C   UNL     1       2.741   5.210  -5.339  0.00  0.00    +0.161 C 
BRANCH  12  13
ATOM     13  N   UNL     1       3.034   6.555  -5.726  0.00  0.00    -0.265 NA
BRANCH  13  15
ATOM     14  C   UNL     1       2.126   7.625  -7.757  0.00  0.00    +0.019 C 
ATOM     15  C   UNL     1       3.183   6.780  -7.121  0.00  0.00    +0.073 C 
ENDBRANCH  13  15
BRANCH  13  16
ATOM     16  C   UNL     1       3.946   7.249  -4.874  0.00  0.00    +0.073 C 
ATOM     17  C   UNL     1       4.775   6.175  -4.177  0.00  0.00    +0.019 C 
ENDBRANCH  13  16
ENDBRANCH  12  13
ENDBRANCH   1  12
TORSDOF 5
ENDMDL
MODEL 5
REMARK VINA RESULT:      -5.7      2.176      3.353
REMARK  Name = 
REMARK  5 active torsions:
REMARK  status: ('A' for Active; 'I' for Inactive)
REMARK    1  A    between atoms: C_2  and  N_3
REMARK    2  A    between atoms: N_3  and  C_4
REMARK    3  A    between atoms: N_3  and  C_6
REMARK    4  A    between atoms: C_6  and  C_7
REMARK    5  A    between atoms: N_9  and  C_10
REMARK                            x       y       z     vdW  Elec       q    Type
REMARK                         _______ _______ _______ _____ _____    ______ ____
ROOT
ATOM      1  C   UNL     1       2.487   5.180  -5.940  0.00  0.00    +0.262 C 
ATOM      2  N   UNL     1       1.451   6.147  -6.055  0.00  0.00    -0.179 NA
ATOM      3  O   UNL     1       2.278   4.000  -6.336  0.00  0.00    -0.271 OA
ENDROOT
BRANCH   2   4
ATOM      4  C   UNL     1       0.121   5.675  -5.804  0.00  0.00    +0.065 A 
ATOM      5  C   UNL     1      -0.355   5.680  -4.503  0.00  0.00    -0.007 A 
ATOM      6  C   UNL     1       0.607   5.349  -3.409  0.00  0.00    +0.032 C 
ATOM      7  C   UNL     1      -1.719   5.711  -4.259  0.00  0.00    -0.003 A 
ATOM      8  C   UNL     1      -2.578   6.024  -5.304  0.00  0.00    -0.001 A 
ATOM      9  C   UNL     1      -2.110   5.695  -6.570  0.00  0.00    -0.003 A 
ATOM     10  C   UNL     1      -0.780   5.517  -6.841  0.00  0.00    -0.007 A 
ATOM     11  C   UNL     1      -0.259   5.334  -8.222  0.00  0.00    +0.032 C 
ENDBRANCH   2   4
BRANCH   1  12
ATOM     12  C   UNL     1       3.860   5.515  -5.457  0.00  0.00    +0.161 C 
BRANCH  12  13
ATOM     13  N   UNL     1       3.746   5.842  -4.070  0.00  0.00    -0.265 NA
BRANCH  13  15
ATOM     14  C   UNL     1       5.158   7.861  -4.214  0.00  0.00    +0.019 C 
ATOM     15  C   UNL     1       3.895   7.216  -3.743  0.00  0.00    +0.073 C 
ENDBRANCH  13  15
BRANCH  13  16
ATOM     16  C   UNL     1       4.351   4.911  -3.172  0.00  0.00    +0.073 C 
ATOM     17  C   UNL     1       3.876   5.300  -1.775  0.00  0.00    +0.019 C 
ENDBRANCH  13  16
ENDBRANCH  12  13
ENDBRANCH   1  12
TORSDOF 5
ENDMDL
MODEL 6
REMARK VINA RESULT:      -5.7      1.687      5.530
REMARK  Name = 
REMARK  5 active torsions:
REMARK  status: ('A' for Active; 'I' for Inactive)
REMARK    1  A    between atoms: C_2  and  N_3
REMARK    2  A    between atoms: N_3  and  C_4
REMARK    3  A    between atoms: N_3  and  C_6
REMARK    4  A    between atoms: C_6  and  C_7
REMARK    5  A    between atoms: N_9  and  C_10
REMARK                            x       y       z     vdW  Elec       q    Type
REMARK                         _______ _______ _______ _____ _____    ______ ____
ROOT
ATOM      1  C   UNL     1       0.493   5.518  -6.105  0.00  0.00    +0.262 C 
ATOM      2  N   UNL     1       1.205   6.719  -6.381  0.00  0.00    -0.179 NA
ATOM      3  O   UNL     1       1.137   4.471  -5.816  0.00  0.00    -0.271 OA
ENDROOT
BRANCH   2   4
ATOM      4  C   UNL     1       2.432   6.568  -7.107  0.00  0.00    +0.065 A 
ATOM      5  C   UNL     1       3.604   6.356  -6.400  0.00  0.00    -0.007 A 
ATOM      6  C   UNL     1       3.771   7.072  -5.099  0.00  0.00    +0.032 C 
ATOM      7  C   UNL     1       4.685   5.736  -7.009  0.00  0.00    -0.003 A 
ATOM      8  C   UNL     1       4.485   5.082  -8.217  0.00  0.00    -0.001 A 
ATOM      9  C   UNL     1       3.448   5.582  -8.994  0.00  0.00    -0.003 A 
ATOM     10  C   UNL     1       2.422   6.319  -8.467  0.00  0.00    -0.007 A 
ATOM     11  C   UNL     1       1.225   6.710  -9.258  0.00  0.00    +0.032 C 
ENDBRANCH   2   4
BRANCH   1  12
ATOM     12  C   UNL     1      -0.997   5.454  -6.046  0.00  0.00    +0.161 C 
BRANCH  12  13
ATOM     13  N   UNL     1      -1.402   6.208  -4.900  0.00  0.00    -0.265 NA
BRANCH  13  15
ATOM     14  C   UNL     1      -2.926   5.202  -3.240  0.00  0.00    +0.019 C 
ATOM     15  C   UNL     1      -1.527   5.477  -3.689  0.00  0.00    +0.073 C 
ENDBRANCH  13  15
BRANCH  13  16
ATOM     16  C   UNL     1      -2.400   7.199  -5.145  0.00  0.00    +0.073 C 
ATOM     17  C   UNL     1      -1.881   8.488  -4.515  0.00  0.00    +0.019 C 
ENDBRANCH  13  16
ENDBRANCH  12  13
ENDBRANCH   1  12
TORSDOF 5
ENDMDL
MODEL 7
REMARK VINA RESULT:      -5.6      2.381      4.226
REMARK  Name = 
REMARK  5 active torsions:
REMARK  status: ('A' for Active; 'I' for Inactive)
REMARK    1  A    between atoms: C_2  and  N_3
REMARK    2  A    between atoms: N_3  and  C_4
REMARK    3  A    between atoms: N_3  and  C_6
REMARK    4  A    between atoms: C_6  and  C_7
REMARK    5  A    between atoms: N_9  and  C_10
REMARK                            x       y       z     vdW  Elec       q    Type
REMARK                         _______ _______ _______ _____ _____    ______ ____
ROOT
ATOM      1  C   UNL     1       1.581   6.123  -3.959  0.00  0.00    +0.262 C 
ATOM      2  N   UNL     1       1.161   7.156  -4.842  0.00  0.00    -0.179 NA
ATOM      3  O   UNL     1       1.613   4.931  -4.374  0.00  0.00    -0.271 OA
ENDROOT
BRANCH   2   4
ATOM      4  C   UNL     1       0.094   6.821  -5.737  0.00  0.00    +0.065 A 
ATOM      5  C   UNL     1       0.398   6.196  -6.936  0.00  0.00    -0.007 A 
ATOM      6  C   UNL     1       1.651   6.612  -7.637  0.00  0.00    +0.032 C 
ATOM      7  C   UNL     1      -0.557   5.433  -7.588  0.00  0.00    -0.003 A 
ATOM      8  C   UNL     1      -1.706   5.068  -6.899  0.00  0.00    -0.001 A 
ATOM      9  C   UNL     1      -2.091   5.943  -5.893  0.00  0.00    -0.003 A 
ATOM     10  C   UNL     1      -1.220   6.819  -5.303  0.00  0.00    -0.007 A 
ATOM     11  C   UNL     1      -1.582   7.635  -4.113  0.00  0.00    +0.032 C 
ENDBRANCH   2   4
BRANCH   1  12
ATOM     12  C   UNL     1       2.083   6.389  -2.578  0.00  0.00    +0.161 C 
BRANCH  12  13
ATOM     13  N   UNL     1       3.507   6.479  -2.662  0.00  0.00    -0.265 NA
BRANCH  13  15
ATOM     14  C   UNL     1       3.420   4.564  -1.108  0.00  0.00    +0.019 C 
ATOM     15  C   UNL     1       4.235   5.588  -1.830  0.00  0.00    +0.073 C 
ENDBRANCH  13  15
BRANCH  13  16
ATOM     16  C   UNL     1       4.028   7.804  -2.776  0.00  0.00    +0.073 C 
ATOM     17  C   UNL     1       4.907   7.807  -4.023  0.00  0.00    +0.019 C 
ENDBRANCH  13  16
ENDBRANCH  12  13
ENDBRANCH   1  12
TORSDOF 5
ENDMDL
MODEL 8
REMARK VINA RESULT:      -5.6      1.579      2.903
REMARK  Name = 
REMARK  5 active torsions:
REMARK  status: ('A' for Active; 'I' for Inactive)
REMARK    1  A    between atoms: C_2  and  N_3
REMARK    2  A    between atoms: N_3  and  C_4
REMARK    3  A    between atoms: N_3  and  C_6
REMARK    4  A    between atoms: C_6  and  C_7
REMARK    5  A    between atoms: N_9  and  C_10
REMARK                            x       y       z     vdW  Elec       q    Type
REMARK                         _______ _______ _______ _____ _____    ______ ____
ROOT
ATOM      1  C   UNL     1       1.892   4.829  -6.629  0.00  0.00    +0.262 C 
ATOM      2  N   UNL     1       0.922   4.361  -5.699  0.00  0.00    -0.179 NA
ATOM      3  O   UNL     1       2.332   6.008  -6.522  0.00  0.00    -0.271 OA
ENDROOT
BRANCH   2   4
ATOM      4  C   UNL     1      -0.063   5.317  -5.286  0.00  0.00    +0.065 A 
ATOM      5  C   UNL     1      -1.203   5.478  -6.057  0.00  0.00    -0.007 A 
ATOM      6  C   UNL     1      -1.057   5.382  -7.542  0.00  0.00    +0.032 C 
ATOM      7  C   UNL     1      -2.363   5.985  -5.492  0.00  0.00    -0.003 A 
ATOM      8  C   UNL     1      -2.456   6.056  -4.109  0.00  0.00    -0.001 A 
ATOM      9  C   UNL     1      -1.245   6.196  -3.443  0.00  0.00    -0.003 A 
ATOM     10  C   UNL     1      -0.049   5.838  -4.005  0.00  0.00    -0.007 A 
ATOM     11  C   UNL     1       1.226   5.823  -3.240  0.00  0.00    +0.032 C 
ENDBRANCH   2   4
BRANCH   1  12
ATOM     12  C   UNL     1       2.495   3.957  -7.680  0.00  0.00    +0.161 C 
BRANCH  12  13
ATOM     13  N   UNL     1       2.842   4.806  -8.777  0.00  0.00    -0.265 NA
BRANCH  13  15
ATOM     14  C   UNL     1       1.506   6.501  -9.975  0.00  0.00    +0.019 C 
ATOM     15  C   UNL     1       1.807   5.060  -9.716  0.00  0.00    +0.073 C 
ENDBRANCH  13  15
BRANCH  13  16
ATOM     16  C   UNL     1       4.148   4.601  -9.317  0.00  0.00    +0.073 C 
ATOM     17  C   UNL     1       5.114   5.307  -8.370  0.00  0.00    +0.019 C 
ENDBRANCH  13  16
ENDBRANCH  12  13
ENDBRANCH   1  12
TORSDOF 5
ENDMDL
MODEL 9
REMARK VINA RESULT:      -5.6      1.644      2.446
REMARK  Name = 
REMARK  5 active torsions:
REMARK  status: ('A' for Active; 'I' for Inactive)
REMARK    1  A    between atoms: C_2  and  N_3
REMARK    2  A    between atoms: N_3  and  C_4
REMARK    3  A    between atoms: N_3  and  C_6
REMARK    4  A    between atoms: C_6  and  C_7
REMARK    5  A    between atoms: N_9  and  C_10
REMARK                            x       y       z     vdW  Elec       q    Type
REMARK                         _______ _______ _______ _____ _____    ______ ____
ROOT
ATOM      1  C   UNL     1       1.109   6.314  -6.335  0.00  0.00    +0.262 C 
ATOM      2  N   UNL     1       0.079   6.926  -5.568  0.00  0.00    -0.179 NA
ATOM      3  O   UNL     1       0.932   5.150  -6.791  0.00  0.00    -0.271 OA
ENDROOT
BRANCH   2   4
ATOM      4  C   UNL     1      -0.647   6.059  -4.689  0.00  0.00    +0.065 A 
ATOM      5  C   UNL     1      -0.140   5.813  -3.423  0.00  0.00    -0.007 A 
ATOM      6  C   UNL     1       1.343   5.695  -3.279  0.00  0.00    +0.032 C 
ATOM      7  C   UNL     1      -0.983   5.415  -2.398  0.00  0.00    -0.003 A 
ATOM      8  C   UNL     1      -2.355   5.543  -2.573  0.00  0.00    -0.001 A 
ATOM      9  C   UNL     1      -2.790   5.475  -3.890  0.00  0.00    -0.003 A 
ATOM     10  C   UNL     1      -1.964   5.725  -4.953  0.00  0.00    -0.007 A 
ATOM     11  C   UNL     1      -2.460   5.822  -6.351  0.00  0.00    +0.032 C 
ENDBRANCH   2   4
BRANCH   1  12
ATOM     12  C   UNL     1       2.368   7.022  -6.714  0.00  0.00    +0.161 C 
BRANCH  12  13
ATOM     13  N   UNL     1       3.352   6.016  -6.967  0.00  0.00    -0.265 NA
BRANCH  13  15
ATOM     14  C   UNL     1       4.500   6.920  -4.979  0.00  0.00    +0.019 C 
ATOM     15  C   UNL     1       4.282   5.780  -5.920  0.00  0.00    +0.073 C 
ENDBRANCH  13  15
BRANCH  13  16
ATOM     16  C   UNL     1       3.879   5.999  -8.294  0.00  0.00    +0.073 C 
ATOM     17  C   UNL     1       3.904   4.535  -8.722  0.00  0.00    +0.019 C 
ENDBRANCH  13  16
ENDBRANCH  12  13
ENDBRANCH   1  12
TORSDOF 5
ENDMDL
