MODEL 1
REMARK VINA RESULT:      -3.0      0.000      0.000
REMARK  Name = 
REMARK  2 active torsions:
REMARK  status: ('A' for Active; 'I' for Inactive)
REMARK    1  A    between atoms: C_2  and  C_3
REMARK    2  A    between atoms: C_3  and  C_5
REMARK                            x       y       z     vdW  Elec       q    Type
REMARK                         _______ _______ _______ _____ _____    ______ ____
ROOT
ATOM      1  C   UNL     1       6.721   5.763 -11.002  0.00  0.00    +0.102 C 
ATOM      2  S   UNL     1       6.682   7.653 -11.276  0.00  0.00    -0.079 S 
ENDROOT
BRANCH   1   4
ATOM      3  O   UNL     1       7.783   4.604 -12.802  0.00  0.00    -0.219 OA
ATOM      4  C   UNL     1       8.028   5.528 -11.882  0.00  0.00    +0.195 C 
ENDBRANCH   1   4
BRANCH   1   5
ATOM      5  C   UNL     1       5.698   5.447 -12.179  0.00  0.00    +0.083 C 
ATOM      6  S   UNL     1       4.042   5.908 -11.675  0.00  0.00    -0.081 S 
ENDBRANCH   1   5
TORSDOF 2
ENDMDL
MODEL 2
REMARK VINA RESULT:      -3.0     11.556     11.890
REMARK  Name = 
REMARK  2 active torsions:
REMARK  status: ('A' for Active; 'I' for Inactive)
REMARK    1  A    between atoms: C_2  and  C_3
REMARK    2  A    between atoms: C_3  and  C_5
REMARK                            x       y       z     vdW  Elec       q    Type
REMARK                         _______ _______ _______ _____ _____    ______ ____
ROOT
ATOM      1  C   UNL     1      -2.287   6.816  -3.497  0.00  0.00    +0.102 C 
ATOM      2  S   UNL     1      -0.513   6.145  -3.725  0.00  0.00    -0.079 S 
ENDROOT
BRANCH   1   4
ATOM      3  O   UNL     1      -2.757   4.692  -2.508  0.00  0.00    -0.219 OA
ATOM      4  C   UNL     1      -2.985   5.390  -3.614  0.00  0.00    +0.195 C 
ENDBRANCH   1   4
BRANCH   1   5
ATOM      5  C   UNL     1      -2.474   7.193  -5.033  0.00  0.00    +0.083 C 
ATOM      6  S   UNL     1      -2.217   5.737  -6.044  0.00  0.00    -0.081 S 
ENDBRANCH   1   5
TORSDOF 2
ENDMDL
MODEL 3
REMARK VINA RESULT:      -2.9     11.188     11.740
REMARK  Name = 
REMARK  2 active torsions:
REMARK  status: ('A' for Active; 'I' for Inactive)
REMARK    1  A    between atoms: C_2  and  C_3
REMARK    2  A    between atoms: C_3  and  C_5
REMARK                            x       y       z     vdW  Elec       q    Type
REMARK                         _______ _______ _______ _____ _____    ______ ____
ROOT
ATOM      1  C   UNL     1      -2.042   5.781  -4.536  0.00  0.00    +0.102 C 
ATOM      2  S   UNL     1      -1.909   7.686  -4.525  0.00  0.00    -0.079 S 
ENDROOT
BRANCH   1   4
ATOM      3  O   UNL     1      -2.764   4.706  -2.527  0.00  0.00    -0.219 OA
ATOM      4  C   UNL     1      -3.081   5.713  -3.331  0.00  0.00    +0.195 C 
ENDBRANCH   1   4
BRANCH   1   5
ATOM      5  C   UNL     1      -0.754   5.562  -3.627  0.00  0.00    +0.083 C 
ATOM      6  S   UNL     1       0.681   5.311  -4.669  0.00  0.00    -0.081 S 
ENDBRANCH   1   5
TORSDOF 2
ENDMDL
MODEL 4
REMARK VINA RESULT:      -2.6      6.168      6.554
REMARK  Name = 
REMARK  2 active torsions:
REMARK  status: ('A' for Active; 'I' for Inactive)
REMARK    1  A    between atoms: C_2  and  C_3
REMARK    2  A    between atoms: C_3  and  C_5
REMARK                            x       y       z     vdW  Elec       q    Type
REMARK                         _______ _______ _______ _____ _____    ______ ____
ROOT
ATOM      1  C   UNL     1       3.329   6.496  -7.171  0.00  0.00    +0.102 C 
ATOM      2  S   UNL     1       3.689   6.886  -5.337  0.00  0.00    -0.079 S 
ENDROOT
BRANCH   1   4
ATOM      3  O   UNL     1       2.106   8.411  -7.912  0.00  0.00    -0.219 OA
ATOM      4  C   UNL     1       1.952   7.295  -7.210  0.00  0.00    +0.195 C 
ENDBRANCH   1   4
BRANCH   1   5
ATOM      5  C   UNL     1       2.666   5.081  -6.869  0.00  0.00    +0.083 C 
ATOM      6  S   UNL     1       2.651   4.094  -8.364  0.00  0.00    -0.081 S 
ENDBRANCH   1   5
TORSDOF 2
ENDMDL
MODEL 5
REMARK VINA RESULT:      -2.6      6.877      7.361
REMARK  Name = 
REMARK  2 active torsions:
REMARK  status: ('A' for Active; 'I' for Inactive)
REMARK    1  A    between atoms: C_2  and  C_3
REMARK    2  A    between atoms: C_3  and  C_5
REMARK                            x       y       z     vdW  Elec       q    Type
REMARK                         _______ _______ _______ _____ _____    ______ ____
ROOT
ATOM      1  C   UNL     1       1.425   6.758  -6.215  0.00  0.00    +0.102 C 
ATOM      2  S   UNL     1       0.547   5.559  -7.414  0.00  0.00    -0.079 S 
ENDROOT
BRANCH   1   4
ATOM      3  O   UNL     1       2.112   8.354  -7.856  0.00  0.00    -0.219 OA
ATOM      4  C   UNL     1       2.516   7.231  -7.274  0.00  0.00    +0.195 C 
ENDBRANCH   1   4
BRANCH   1   5
ATOM      5  C   UNL     1       2.340   5.631  -5.561  0.00  0.00    +0.083 C 
ATOM      6  S   UNL     1       2.008   4.057  -6.349  0.00  0.00    -0.081 S 
ENDBRANCH   1   5
TORSDOF 2
ENDMDL
MODEL 6
REMARK VINA RESULT:      -2.6     11.278     11.784
REMARK  Name = 
REMARK  2 active torsions:
REMARK  status: ('A' for Active; 'I' for Inactive)
REMARK    1  A    between atoms: C_2  and  C_3
REMARK    2  A    between atoms: C_3  and  C_5
REMARK                            x       y       z     vdW  Elec       q    Type
REMARK                         _______ _______ _______ _____ _____    ______ ____
ROOT
ATOM      1  C   UNL     1      -1.157   6.360  -3.138  0.00  0.00    +0.102 C 
ATOM      2  S   UNL     1      -0.275   5.566  -1.642  0.00  0.00    -0.079 S 
ENDROOT
BRANCH   1   4
ATOM      3  O   UNL     1      -2.614   4.912  -1.915  0.00  0.00    -0.219 OA
ATOM      4  C   UNL     1      -2.359   5.316  -3.154  0.00  0.00    +0.195 C 
ENDBRANCH   1   4
BRANCH   1   5
ATOM      5  C   UNL     1      -0.283   5.589  -4.221  0.00  0.00    +0.083 C 
ATOM      6  S   UNL     1       0.343   6.755  -5.428  0.00  0.00    -0.081 S 
ENDBRANCH   1   5
TORSDOF 2
ENDMDL
MODEL 7
REMARK VINA RESULT:      -2.6      5.852      6.309
REMARK  Name = 
REMARK  2 active torsions:
REMARK  status: ('A' for Active; 'I' for Inactive)
REMARK    1  A    between atoms: C_2  and  C_3
REMARK    2  A    between atoms: C_3  and  C_5
REMARK                            x       y       z     vdW  Elec       q    Type
REMARK                         _______ _______ _______ _____ _____    ______ ____
ROOT
ATOM      1  C   UNL     1       2.132   6.056  -8.196  0.00  0.00    +0.102 C 
ATOM      2  S   UNL     1       3.537   6.596  -9.371  0.00  0.00    -0.079 S 
ENDROOT
BRANCH   1   4
ATOM      3  O   UNL     1       2.130   8.426  -7.892  0.00  0.00    -0.219 OA
ATOM      4  C   UNL     1       2.295   7.298  -7.213  0.00  0.00    +0.195 C 
ENDBRANCH   1   4
BRANCH   1   5
ATOM      5  C   UNL     1       3.054   5.077  -7.344  0.00  0.00    +0.083 C 
ATOM      6  S   UNL     1       2.027   4.013  -6.333  0.00  0.00    -0.081 S 
ENDBRANCH   1   5
TORSDOF 2
ENDMDL
MODEL 8
REMARK VINA RESULT:      -2.5      6.222      6.653
REMARK  Name = 
REMARK  2 active torsions:
REMARK  status: ('A' for Active; 'I' for Inactive)
REMARK    1  A    between atoms: C_2  and  C_3
REMARK    2  A    between atoms: C_3  and  C_5
REMARK                            x       y       z     vdW  Elec       q    Type
REMARK                         _______ _______ _______ _____ _____    ______ ____
ROOT
ATOM      1  C   UNL     1       1.814   4.795  -7.720  0.00  0.00    +0.102 C 
ATOM      2  S   UNL     1       3.242   5.997  -7.319  0.00  0.00    -0.079 S 
ENDROOT
BRANCH   1   4
ATOM      3  O   UNL     1       1.069   4.370  -5.490  0.00  0.00    -0.219 OA
ATOM      4  C   UNL     1       1.965   3.955  -6.377  0.00  0.00    +0.195 C 
ENDBRANCH   1   4
BRANCH   1   5
ATOM      5  C   UNL     1       2.715   3.822  -8.600  0.00  0.00    +0.083 C 
ATOM      6  S   UNL     1       4.091   4.739  -9.292  0.00  0.00    -0.081 S 
ENDBRANCH   1   5
TORSDOF 2
ENDMDL
MODEL 9
REMARK VINA RESULT:      -2.4      2.404      3.258
REMARK  Name = 
REMARK  2 active torsions:
REMARK  status: ('A' for Active; 'I' for Inactive)
REMARK    1  A    between atoms: C_2  and  C_3
REMARK    2  A    between atoms: C_3  and  C_5
REMARK                            x       y       z     vdW  Elec       q    Type
REMARK                         _______ _______ _______ _____ _____    ______ ____
ROOT
ATOM      1  C   UNL     1       6.074   5.596 -11.843  0.00  0.00    +0.102 C 
ATOM      2  S   UNL     1       4.726   5.415 -13.183  0.00  0.00    -0.079 S 
ENDROOT
BRANCH   1   4
ATOM      3  O   UNL     1       5.607   7.777 -10.985  0.00  0.00    -0.219 OA
ATOM      4  C   UNL     1       6.210   7.174 -12.002  0.00  0.00    +0.195 C 
ENDBRANCH   1   4
BRANCH   1   5
ATOM      5  C   UNL     1       7.275   5.248 -12.828  0.00  0.00    +0.083 C 
ATOM      6  S   UNL     1       8.813   5.853 -12.138  0.00  0.00    -0.081 S 
ENDBRANCH   1   5
TORSDOF 2
ENDMDL
