MODEL 1
REMARK VINA RESULT:      -5.1      0.000      0.000
REMARK  Name = 
REMARK  8 active torsions:
REMARK  status: ('A' for Active; 'I' for Inactive)
REMARK    1  A    between atoms: C_2  and  C_3
REMARK    2  A    between atoms: C_3  and  C_4
REMARK    3  A    between atoms: C_4  and  C_6
REMARK    4  A    between atoms: C_4  and  C_11
REMARK    5  A    between atoms: C_6  and  O_7
REMARK    6  A    between atoms: O_7  and  C_8
REMARK    7  A    between atoms: C_11  and  O_12
REMARK    8  A    between atoms: O_12  and  C_13
REMARK                            x       y       z     vdW  Elec       q    Type
REMARK                         _______ _______ _______ _____ _____    ______ ____
ROOT
ATOM      1  C   UNL     1       0.918   5.970  -5.141  0.00  0.00    +0.081 C 
ATOM      2  C   UNL     1       1.087   4.536  -5.586  0.00  0.00    +0.007 C 
ENDROOT
BRANCH   1   3
ATOM      3  C   UNL     1       2.116   6.773  -5.558  0.00  0.00    +0.214 C 
BRANCH   3   4
ATOM      4  O   UNL     1       2.671   6.333  -6.793  0.00  0.00    -0.432 OA
BRANCH   4   5
ATOM      5  C   UNL     1       2.643   7.185  -7.899  0.00  0.00    +0.441 C 
ATOM      6  O   UNL     1       2.073   8.288  -7.762  0.00  0.00    -0.223 OA
ATOM      7  N   UNL     1       3.347   6.895  -9.110  0.00  0.00    -0.048 NA
ENDBRANCH   4   5
ENDBRANCH   3   4
ENDBRANCH   1   3
BRANCH   1   8
ATOM      8  C   UNL     1      -0.354   6.560  -5.741  0.00  0.00    +0.007 C 
BRANCH   8  10
ATOM      9  C   UNL     1      -2.483   5.548  -6.315  0.00  0.00    +0.000 C 
ATOM     10  C   UNL     1      -0.982   5.428  -6.547  0.00  0.00    +0.000 C 
ENDBRANCH   8  10
ENDBRANCH   1   8
BRANCH   1  11
ATOM     11  C   UNL     1       0.780   6.101  -3.643  0.00  0.00    +0.214 C 
BRANCH  11  12
ATOM     12  O   UNL     1      -0.095   5.150  -3.085  0.00  0.00    -0.432 OA
BRANCH  12  13
ATOM     13  C   UNL     1      -1.260   5.532  -2.411  0.00  0.00    +0.441 C 
ATOM     14  O   UNL     1      -1.198   6.668  -1.853  0.00  0.00    -0.223 OA
ATOM     15  N   UNL     1      -2.516   4.889  -2.659  0.00  0.00    -0.048 NA
ENDBRANCH  12  13
ENDBRANCH  11  12
ENDBRANCH   1  11
TORSDOF 8
ENDMDL
MODEL 2
REMARK VINA RESULT:      -5.0      5.039      7.486
REMARK  Name = 
REMARK  8 active torsions:
REMARK  status: ('A' for Active; 'I' for Inactive)
REMARK    1  A    between atoms: C_2  and  C_3
REMARK    2  A    between atoms: C_3  and  C_4
REMARK    3  A    between atoms: C_4  and  C_6
REMARK    4  A    between atoms: C_4  and  C_11
REMARK    5  A    between atoms: C_6  and  O_7
REMARK    6  A    between atoms: O_7  and  C_8
REMARK    7  A    between atoms: C_11  and  O_12
REMARK    8  A    between atoms: O_12  and  C_13
REMARK                            x       y       z     vdW  Elec       q    Type
REMARK                         _______ _______ _______ _____ _____    ______ ____
ROOT
ATOM      1  C   UNL     1       5.143   6.193 -10.041  0.00  0.00    +0.081 C 
ATOM      2  C   UNL     1       5.151   7.537 -10.731  0.00  0.00    +0.007 C 
ENDROOT
BRANCH   1   3
ATOM      3  C   UNL     1       4.476   5.176 -10.922  0.00  0.00    +0.214 C 
BRANCH   3   4
ATOM      4  O   UNL     1       3.867   5.758 -12.070  0.00  0.00    -0.432 OA
BRANCH   4   5
ATOM      5  C   UNL     1       4.178   5.261 -13.338  0.00  0.00    +0.441 C 
ATOM      6  O   UNL     1       5.281   4.692 -13.477  0.00  0.00    -0.223 OA
ATOM      7  N   UNL     1       3.239   5.265 -14.416  0.00  0.00    -0.048 NA
ENDBRANCH   4   5
ENDBRANCH   3   4
ENDBRANCH   1   3
BRANCH   1   8
ATOM      8  C   UNL     1       6.568   5.762  -9.714  0.00  0.00    +0.007 C 
BRANCH   8  10
ATOM      9  C   UNL     1       8.244   5.602 -11.462  0.00  0.00    +0.000 C 
ATOM     10  C   UNL     1       7.462   6.602 -10.620  0.00  0.00    +0.000 C 
ENDBRANCH   8  10
ENDBRANCH   1   8
BRANCH   1  11
ATOM     11  C   UNL     1       4.396   6.219  -8.729  0.00  0.00    +0.214 C 
BRANCH  11  12
ATOM     12  O   UNL     1       3.006   6.063  -8.883  0.00  0.00    -0.432 OA
BRANCH  12  13
ATOM     13  C   UNL     1       2.137   7.159  -8.846  0.00  0.00    +0.441 C 
ATOM     14  O   UNL     1       1.144   7.071  -9.629  0.00  0.00    -0.223 OA
ATOM     15  N   UNL     1       2.151   8.093  -7.759  0.00  0.00    -0.048 NA
ENDBRANCH  12  13
ENDBRANCH  11  12
ENDBRANCH   1  11
TORSDOF 8
ENDMDL
MODEL 3
REMARK VINA RESULT:      -5.0      4.570      8.548
REMARK  Name = 
REMARK  8 active torsions:
REMARK  status: ('A' for Active; 'I' for Inactive)
REMARK    1  A    between atoms: C_2  and  C_3
REMARK    2  A    between atoms: C_3  and  C_4
REMARK    3  A    between atoms: C_4  and  C_6
REMARK    4  A    between atoms: C_4  and  C_11
REMARK    5  A    between atoms: C_6  and  O_7
REMARK    6  A    between atoms: O_7  and  C_8
REMARK    7  A    between atoms: C_11  and  O_12
REMARK    8  A    between atoms: O_12  and  C_13
REMARK                            x       y       z     vdW  Elec       q    Type
REMARK                         _______ _______ _______ _____ _____    ______ ____
ROOT
ATOM      1  C   UNL     1       5.159   6.123 -10.028  0.00  0.00    +0.081 C 
ATOM      2  C   UNL     1       5.696   5.429  -8.798  0.00  0.00    +0.007 C 
ENDROOT
BRANCH   1   3
ATOM      3  C   UNL     1       3.972   6.964  -9.657  0.00  0.00    +0.214 C 
BRANCH   3   4
ATOM      4  O   UNL     1       3.487   6.682  -8.348  0.00  0.00    -0.432 OA
BRANCH   4   5
ATOM      5  C   UNL     1       2.237   7.172  -7.961  0.00  0.00    +0.441 C 
ATOM      6  O   UNL     1       2.107   8.410  -7.869  0.00  0.00    -0.223 OA
ATOM      7  N   UNL     1       1.095   6.324  -7.804  0.00  0.00    -0.048 NA
ENDBRANCH   4   5
ENDBRANCH   3   4
ENDBRANCH   1   3
BRANCH   1   8
ATOM      8  C   UNL     1       6.245   6.985 -10.662  0.00  0.00    +0.007 C 
BRANCH   8  10
ATOM      9  C   UNL     1       8.218   6.148 -11.801  0.00  0.00    +0.000 C 
ATOM     10  C   UNL     1       7.547   6.225 -10.434  0.00  0.00    +0.000 C 
ENDBRANCH   8  10
ENDBRANCH   1   8
BRANCH   1  11
ATOM     11  C   UNL     1       4.714   5.151 -11.095  0.00  0.00    +0.214 C 
BRANCH  11  12
ATOM     12  O   UNL     1       4.037   5.774 -12.160  0.00  0.00    -0.432 OA
BRANCH  12  13
ATOM     13  C   UNL     1       4.370   5.512 -13.493  0.00  0.00    +0.441 C 
ATOM     14  O   UNL     1       5.429   4.834 -13.649  0.00  0.00    -0.223 OA
ATOM     15  N   UNL     1       3.410   5.652 -14.549  0.00  0.00    -0.048 NA
ENDBRANCH  12  13
ENDBRANCH  11  12
ENDBRANCH   1  11
TORSDOF 8
ENDMDL
MODEL 4
REMARK VINA RESULT:      -4.8      1.829      2.252
REMARK  Name = 
REMARK  8 active torsions:
REMARK  status: ('A' for Active; 'I' for Inactive)
REMARK    1  A    between atoms: C_2  and  C_3
REMARK    2  A    between atoms: C_3  and  C_4
REMARK    3  A    between atoms: C_4  and  C_6
REMARK    4  A    between atoms: C_4  and  C_11
REMARK    5  A    between atoms: C_6  and  O_7
REMARK    6  A    between atoms: O_7  and  C_8
REMARK    7  A    between atoms: C_11  and  O_12
REMARK    8  A    between atoms: O_12  and  C_13
REMARK                            x       y       z     vdW  Elec       q    Type
REMARK                         _______ _______ _______ _____ _____    ______ ____
ROOT
ATOM      1  C   UNL     1       0.896   5.649  -5.189  0.00  0.00    +0.081 C 
ATOM      2  C   UNL     1       1.163   4.411  -6.013  0.00  0.00    +0.007 C 
ENDROOT
BRANCH   1   3
ATOM      3  C   UNL     1       2.106   6.537  -5.203  0.00  0.00    +0.214 C 
BRANCH   3   4
ATOM      4  O   UNL     1       3.278   5.862  -5.649  0.00  0.00    -0.432 OA
BRANCH   4   5
ATOM      5  C   UNL     1       4.410   5.839  -4.830  0.00  0.00    +0.441 C 
ATOM      6  O   UNL     1       4.787   4.730  -4.400  0.00  0.00    -0.223 OA
ATOM      7  N   UNL     1       5.205   7.003  -4.587  0.00  0.00    -0.048 NA
ENDBRANCH   4   5
ENDBRANCH   3   4
ENDBRANCH   1   3
BRANCH   1   8
ATOM      8  C   UNL     1      -0.317   6.394  -5.736  0.00  0.00    +0.007 C 
BRANCH   8  10
ATOM      9  C   UNL     1      -2.507   5.539  -6.341  0.00  0.00    +0.000 C 
ATOM     10  C   UNL     1      -1.021   5.398  -6.652  0.00  0.00    +0.000 C 
ENDBRANCH   8  10
ENDBRANCH   1   8
BRANCH   1  11
ATOM     11  C   UNL     1       0.582   5.330  -3.747  0.00  0.00    +0.214 C 
BRANCH  11  12
ATOM     12  O   UNL     1      -0.626   5.901  -3.306  0.00  0.00    -0.432 OA
BRANCH  12  13
ATOM     13  C   UNL     1      -1.460   5.243  -2.395  0.00  0.00    +0.441 C 
ATOM     14  O   UNL     1      -1.081   5.314  -1.187  0.00  0.00    -0.223 OA
ATOM     15  N   UNL     1      -2.801   4.872  -2.736  0.00  0.00    -0.048 NA
ENDBRANCH  12  13
ENDBRANCH  11  12
ENDBRANCH   1  11
TORSDOF 8
ENDMDL
MODEL 5
REMARK VINA RESULT:      -4.8      2.319      5.108
REMARK  Name = 
REMARK  8 active torsions:
REMARK  status: ('A' for Active; 'I' for Inactive)
REMARK    1  A    between atoms: C_2  and  C_3
REMARK    2  A    between atoms: C_3  and  C_4
REMARK    3  A    between atoms: C_4  and  C_6
REMARK    4  A    between atoms: C_4  and  C_11
REMARK    5  A    between atoms: C_6  and  O_7
REMARK    6  A    between atoms: O_7  and  C_8
REMARK    7  A    between atoms: C_11  and  O_12
REMARK    8  A    between atoms: O_12  and  C_13
REMARK                            x       y       z     vdW  Elec       q    Type
REMARK                         _______ _______ _______ _____ _____    ______ ____
ROOT
ATOM      1  C   UNL     1      -0.236   5.655  -6.048  0.00  0.00    +0.081 C 
ATOM      2  C   UNL     1       0.381   7.017  -5.835  0.00  0.00    +0.007 C 
ENDROOT
BRANCH   1   3
ATOM      3  C   UNL     1      -1.415   5.484  -5.134  0.00  0.00    +0.214 C 
BRANCH   3   4
ATOM      4  O   UNL     1      -1.202   6.060  -3.849  0.00  0.00    -0.432 OA
BRANCH   4   5
ATOM      5  C   UNL     1      -1.547   5.333  -2.707  0.00  0.00    +0.441 C 
ATOM      6  O   UNL     1      -2.666   4.780  -2.693  0.00  0.00    -0.223 OA
ATOM      7  N   UNL     1      -0.624   5.098  -1.640  0.00  0.00    -0.048 NA
ENDBRANCH   4   5
ENDBRANCH   3   4
ENDBRANCH   1   3
BRANCH   1   8
ATOM      8  C   UNL     1      -0.662   5.493  -7.503  0.00  0.00    +0.007 C 
BRANCH   8  10
ATOM      9  C   UNL     1       0.138   5.771  -9.777  0.00  0.00    +0.000 C 
ATOM     10  C   UNL     1       0.595   5.759  -8.323  0.00  0.00    +0.000 C 
ENDBRANCH   8  10
ENDBRANCH   1   8
BRANCH   1  11
ATOM     11  C   UNL     1       0.729   4.530  -5.762  0.00  0.00    +0.214 C 
BRANCH  11  12
ATOM     12  O   UNL     1       1.757   4.898  -4.874  0.00  0.00    -0.432 OA
BRANCH  12  13
ATOM     13  C   UNL     1       3.106   4.710  -5.195  0.00  0.00    +0.441 C 
ATOM     14  O   UNL     1       3.405   4.977  -6.397  0.00  0.00    -0.223 OA
ATOM     15  N   UNL     1       4.113   4.610  -4.179  0.00  0.00    -0.048 NA
ENDBRANCH  12  13
ENDBRANCH  11  12
ENDBRANCH   1  11
TORSDOF 8
ENDMDL
MODEL 6
REMARK VINA RESULT:      -4.7      1.789      2.216
REMARK  Name = 
REMARK  8 active torsions:
REMARK  status: ('A' for Active; 'I' for Inactive)
REMARK    1  A    between atoms: C_2  and  C_3
REMARK    2  A    between atoms: C_3  and  C_4
REMARK    3  A    between atoms: C_4  and  C_6
REMARK    4  A    between atoms: C_4  and  C_11
REMARK    5  A    between atoms: C_6  and  O_7
REMARK    6  A    between atoms: O_7  and  C_8
REMARK    7  A    between atoms: C_11  and  O_12
REMARK    8  A    between atoms: O_12  and  C_13
REMARK                            x       y       z     vdW  Elec       q    Type
REMARK                         _______ _______ _______ _____ _____    ______ ____
ROOT
ATOM      1  C   UNL     1      -0.493   6.106  -5.457  0.00  0.00    +0.081 C 
ATOM      2  C   UNL     1      -1.159   5.370  -6.595  0.00  0.00    +0.007 C 
ENDROOT
BRANCH   1   3
ATOM      3  C   UNL     1       0.592   6.993  -5.994  0.00  0.00    +0.214 C 
BRANCH   3   4
ATOM      4  O   UNL     1       1.322   6.387  -7.057  0.00  0.00    -0.432 OA
BRANCH   4   5
ATOM      5  C   UNL     1       1.786   7.181  -8.109  0.00  0.00    +0.441 C 
ATOM      6  O   UNL     1       2.153   8.342  -7.835  0.00  0.00    -0.223 OA
ATOM      7  N   UNL     1       1.975   6.669  -9.431  0.00  0.00    -0.048 NA
ENDBRANCH   4   5
ENDBRANCH   3   4
ENDBRANCH   1   3
BRANCH   1   8
ATOM      8  C   UNL     1      -1.521   6.929  -4.689  0.00  0.00    +0.007 C 
BRANCH   8  10
ATOM      9  C   UNL     1      -3.165   6.489  -2.958  0.00  0.00    +0.000 C 
ATOM     10  C   UNL     1      -2.592   5.933  -4.256  0.00  0.00    +0.000 C 
ENDBRANCH   8  10
ENDBRANCH   1   8
BRANCH   1  11
ATOM     11  C   UNL     1       0.138   5.172  -4.452  0.00  0.00    +0.214 C 
BRANCH  11  12
ATOM     12  O   UNL     1       0.870   5.846  -3.456  0.00  0.00    -0.432 OA
BRANCH  12  13
ATOM     13  C   UNL     1       0.754   5.505  -2.104  0.00  0.00    +0.441 C 
ATOM     14  O   UNL     1      -0.204   4.720  -1.838  0.00  0.00    -0.223 OA
ATOM     15  N   UNL     1       1.836   5.701  -1.185  0.00  0.00    -0.048 NA
ENDBRANCH  12  13
ENDBRANCH  11  12
ENDBRANCH   1  11
TORSDOF 8
ENDMDL
MODEL 7
REMARK VINA RESULT:      -4.7      4.121      5.235
REMARK  Name = 
REMARK  8 active torsions:
REMARK  status: ('A' for Active; 'I' for Inactive)
REMARK    1  A    between atoms: C_2  and  C_3
REMARK    2  A    between atoms: C_3  and  C_4
REMARK    3  A    between atoms: C_4  and  C_6
REMARK    4  A    between atoms: C_4  and  C_11
REMARK    5  A    between atoms: C_6  and  O_7
REMARK    6  A    between atoms: O_7  and  C_8
REMARK    7  A    between atoms: C_11  and  O_12
REMARK    8  A    between atoms: O_12  and  C_13
REMARK                            x       y       z     vdW  Elec       q    Type
REMARK                         _______ _______ _______ _____ _____    ______ ____
ROOT
ATOM      1  C   UNL     1       1.138   5.494  -7.485  0.00  0.00    +0.081 C 
ATOM      2  C   UNL     1       1.739   6.848  -7.187  0.00  0.00    +0.007 C 
ENDROOT
BRANCH   1   3
ATOM      3  C   UNL     1       2.222   4.457  -7.519  0.00  0.00    +0.214 C 
BRANCH   3   4
ATOM      4  O   UNL     1       2.671   4.173  -8.840  0.00  0.00    -0.432 OA
BRANCH   4   5
ATOM      5  C   UNL     1       3.891   4.695  -9.277  0.00  0.00    +0.441 C 
ATOM      6  O   UNL     1       3.965   5.071 -10.465  0.00  0.00    -0.223 OA
ATOM      7  N   UNL     1       4.987   4.931  -8.388  0.00  0.00    -0.048 NA
ENDBRANCH   4   5
ENDBRANCH   3   4
ENDBRANCH   1   3
BRANCH   1   8
ATOM      8  C   UNL     1       0.094   5.139  -6.432  0.00  0.00    +0.007 C 
BRANCH   8  10
ATOM      9  C   UNL     1      -2.209   5.811  -6.063  0.00  0.00    +0.000 C 
ATOM     10  C   UNL     1      -1.252   5.295  -7.131  0.00  0.00    +0.000 C 
ENDBRANCH   8  10
ENDBRANCH   1   8
BRANCH   1  11
ATOM     11  C   UNL     1       0.428   5.455  -8.816  0.00  0.00    +0.214 C 
BRANCH  11  12
ATOM     12  O   UNL     1       0.675   6.593  -9.607  0.00  0.00    -0.432 OA
BRANCH  12  13
ATOM     13  C   UNL     1       0.306   6.643 -10.956  0.00  0.00    +0.441 C 
ATOM     14  O   UNL     1       0.374   5.533 -11.563  0.00  0.00    -0.223 OA
ATOM     15  N   UNL     1      -0.445   7.741 -11.488  0.00  0.00    -0.048 NA
ENDBRANCH  12  13
ENDBRANCH  11  12
ENDBRANCH   1  11
TORSDOF 8
ENDMDL
MODEL 8
REMARK VINA RESULT:      -4.5      1.816      5.098
REMARK  Name = 
REMARK  8 active torsions:
REMARK  status: ('A' for Active; 'I' for Inactive)
REMARK    1  A    between atoms: C_2  and  C_3
REMARK    2  A    between atoms: C_3  and  C_4
REMARK    3  A    between atoms: C_4  and  C_6
REMARK    4  A    between atoms: C_4  and  C_11
REMARK    5  A    between atoms: C_6  and  O_7
REMARK    6  A    between atoms: O_7  and  C_8
REMARK    7  A    between atoms: C_11  and  O_12
REMARK    8  A    between atoms: O_12  and  C_13
REMARK                            x       y       z     vdW  Elec       q    Type
REMARK                         _______ _______ _______ _____ _____    ______ ____
ROOT
ATOM      1  C   UNL     1       0.753   5.867  -5.452  0.00  0.00    +0.081 C 
ATOM      2  C   UNL     1       0.235   7.278  -5.598  0.00  0.00    +0.007 C 
ENDROOT
BRANCH   1   3
ATOM      3  C   UNL     1       0.734   5.468  -4.005  0.00  0.00    +0.214 C 
BRANCH   3   4
ATOM      4  O   UNL     1      -0.314   6.097  -3.275  0.00  0.00    -0.432 OA
BRANCH   4   5
ATOM      5  C   UNL     1      -1.071   5.342  -2.375  0.00  0.00    +0.441 C 
ATOM      6  O   UNL     1      -0.582   5.131  -1.246  0.00  0.00    -0.223 OA
ATOM      7  N   UNL     1      -2.412   4.930  -2.657  0.00  0.00    -0.048 NA
ENDBRANCH   4   5
ENDBRANCH   3   4
ENDBRANCH   1   3
BRANCH   1   8
ATOM      8  C   UNL     1      -0.094   4.907  -6.280  0.00  0.00    +0.007 C 
BRANCH   8  10
ATOM      9  C   UNL     1      -2.489   5.300  -6.256  0.00  0.00    +0.000 C 
ATOM     10  C   UNL     1      -1.189   5.769  -6.900  0.00  0.00    +0.000 C 
ENDBRANCH   8  10
ENDBRANCH   1   8
BRANCH   1  11
ATOM     11  C   UNL     1       2.171   5.716  -5.948  0.00  0.00    +0.214 C 
BRANCH  11  12
ATOM     12  O   UNL     1       2.954   6.866  -5.739  0.00  0.00    -0.432 OA
BRANCH  12  13
ATOM     13  C   UNL     1       4.188   6.805  -5.081  0.00  0.00    +0.441 C 
ATOM     14  O   UNL     1       4.621   7.922  -4.668  0.00  0.00    -0.223 OA
ATOM     15  N   UNL     1       4.711   5.568  -4.580  0.00  0.00    -0.048 NA
ENDBRANCH  12  13
ENDBRANCH  11  12
ENDBRANCH   1  11
TORSDOF 8
ENDMDL
MODEL 9
REMARK VINA RESULT:      -4.5      3.159      3.699
REMARK  Name = 
REMARK  8 active torsions:
REMARK  status: ('A' for Active; 'I' for Inactive)
REMARK    1  A    between atoms: C_2  and  C_3
REMARK    2  A    between atoms: C_3  and  C_4
REMARK    3  A    between atoms: C_4  and  C_6
REMARK    4  A    between atoms: C_4  and  C_11
REMARK    5  A    between atoms: C_6  and  O_7
REMARK    6  A    between atoms: O_7  and  C_8
REMARK    7  A    between atoms: C_11  and  O_12
REMARK    8  A    between atoms: O_12  and  C_13
REMARK                            x       y       z     vdW  Elec       q    Type
REMARK                         _______ _______ _______ _____ _____    ______ ____
ROOT
ATOM      1  C   UNL     1       1.348   5.853  -6.029  0.00  0.00    +0.081 C 
ATOM      2  C   UNL     1       1.392   4.349  -5.890  0.00  0.00    +0.007 C 
ENDROOT
BRANCH   1   3
ATOM      3  C   UNL     1       1.973   6.260  -7.331  0.00  0.00    +0.214 C 
BRANCH   3   4
ATOM      4  O   UNL     1       2.460   5.149  -8.078  0.00  0.00    -0.432 OA
BRANCH   4   5
ATOM      5  C   UNL     1       3.787   5.147  -8.516  0.00  0.00    +0.441 C 
ATOM      6  O   UNL     1       4.677   5.287  -7.653  0.00  0.00    -0.223 OA
ATOM      7  N   UNL     1       4.148   4.860  -9.870  0.00  0.00    -0.048 NA
ENDBRANCH   4   5
ENDBRANCH   3   4
ENDBRANCH   1   3
BRANCH   1   8
ATOM      8  C   UNL     1      -0.094   6.345  -5.953  0.00  0.00    +0.007 C 
BRANCH   8  10
ATOM      9  C   UNL     1      -2.371   5.621  -6.375  0.00  0.00    +0.000 C 
ATOM     10  C   UNL     1      -0.917   5.299  -6.697  0.00  0.00    +0.000 C 
ENDBRANCH   8  10
ENDBRANCH   1   8
BRANCH   1  11
ATOM     11  C   UNL     1       2.095   6.560  -4.924  0.00  0.00    +0.214 C 
BRANCH  11  12
ATOM     12  O   UNL     1       3.243   7.235  -5.379  0.00  0.00    -0.432 OA
BRANCH  12  13
ATOM     13  C   UNL     1       4.471   7.122  -4.717  0.00  0.00    +0.441 C 
ATOM     14  O   UNL     1       4.989   8.227  -4.375  0.00  0.00    -0.223 OA
ATOM     15  N   UNL     1       4.901   5.884  -4.137  0.00  0.00    -0.048 NA
ENDBRANCH  12  13
ENDBRANCH  11  12
ENDBRANCH   1  11
TORSDOF 8
ENDMDL
