MODEL 1
REMARK VINA RESULT:      -8.6      0.000      0.000
REMARK  Name = 
REMARK  2 active torsions:
REMARK  status: ('A' for Active; 'I' for Inactive)
REMARK    1  A    between atoms: C_3  and  C_4
REMARK    2  A    between atoms: N_6  and  C_7
REMARK                            x       y       z     vdW  Elec       q    Type
REMARK                         _______ _______ _______ _____ _____    ______ ____
ROOT
ATOM      1  C   UNL     1       4.073   4.762  -4.786  0.00  0.00    +0.139 C 
ATOM      2  N   UNL     1       2.955   5.513  -5.286  0.00  0.00    -0.181 N 
ATOM      3  S   UNL     1       1.646   5.876  -4.203  0.00  0.00    +0.077 S 
ATOM      4  O   UNL     1       1.521   4.842  -3.129  0.00  0.00    -0.150 OA
ATOM      5  O   UNL     1       1.834   7.250  -3.651  0.00  0.00    -0.150 OA
ATOM      6  C   UNL     1       0.198   5.883  -5.160  0.00  0.00    +0.129 A 
ATOM      7  C   UNL     1       0.253   5.704  -6.521  0.00  0.00    +0.059 A 
ATOM      8  C   UNL     1      -0.942   5.716  -7.234  0.00  0.00    +0.005 A 
ATOM      9  C   UNL     1      -2.082   5.361  -6.566  0.00  0.00    +0.000 A 
ATOM     10  C   UNL     1      -2.145   5.710  -5.222  0.00  0.00    +0.001 A 
ATOM     11  C   UNL     1       1.534   6.037  -7.157  0.00  0.00    +0.216 C 
ATOM     12  O   UNL     1       1.510   6.170  -8.551  0.00  0.00    -0.285 OA
ATOM     13  C   UNL     1      -1.003   6.092  -4.544  0.00  0.00    +0.020 A 
ATOM     14  C   UNL     1       2.668   5.507  -6.689  0.00  0.00    +0.163 C 
ENDROOT
BRANCH  14  15
ATOM     15  C   UNL     1       3.683   4.931  -7.588  0.00  0.00    +0.288 C 
ATOM     16  N   UNL     1       4.852   5.616  -7.975  0.00  0.00    -0.155 NA
ATOM     17  O   UNL     1       3.255   4.047  -8.391  0.00  0.00    -0.266 OA
BRANCH  16  18
ATOM     18  C   UNL     1       5.329   5.707  -9.324  0.00  0.00    +0.155 A 
ATOM     19  N   UNL     1       4.714   6.477 -10.253  0.00  0.00    -0.227 NA
ATOM     20  C   UNL     1       5.371   7.450 -10.932  0.00  0.00    +0.100 A 
ATOM     21  C   UNL     1       6.753   7.404 -11.067  0.00  0.00    +0.021 A 
ATOM     22  C   UNL     1       7.404   6.420 -10.377  0.00  0.00    +0.005 A 
ATOM     23  C   UNL     1       6.717   5.697  -9.431  0.00  0.00    +0.036 A 
ENDBRANCH  16  18
ENDBRANCH  14  15
TORSDOF 2
ENDMDL
MODEL 2
REMARK VINA RESULT:      -8.2      2.066      2.645
REMARK  Name = 
REMARK  2 active torsions:
REMARK  status: ('A' for Active; 'I' for Inactive)
REMARK    1  A    between atoms: C_3  and  C_4
REMARK    2  A    between atoms: N_6  and  C_7
REMARK                            x       y       z     vdW  Elec       q    Type
REMARK                         _______ _______ _______ _____ _____    ______ ____
ROOT
ATOM      1  C   UNL     1       3.982   4.702  -2.817  0.00  0.00    +0.139 C 
ATOM      2  N   UNL     1       2.773   5.444  -3.045  0.00  0.00    -0.181 N 
ATOM      3  S   UNL     1       1.766   5.832  -1.684  0.00  0.00    +0.077 S 
ATOM      4  O   UNL     1       1.911   4.823  -0.589  0.00  0.00    -0.150 OA
ATOM      5  O   UNL     1       2.079   7.219  -1.224  0.00  0.00    -0.150 OA
ATOM      6  C   UNL     1       0.129   5.822  -2.258  0.00  0.00    +0.129 A 
ATOM      7  C   UNL     1      -0.150   5.613  -3.587  0.00  0.00    +0.059 A 
ATOM      8  C   UNL     1      -1.482   5.613  -3.986  0.00  0.00    +0.005 A 
ATOM      9  C   UNL     1      -2.423   5.274  -3.053  0.00  0.00    +0.000 A 
ATOM     10  C   UNL     1      -2.158   5.653  -1.742  0.00  0.00    +0.001 A 
ATOM     11  C   UNL     1       0.937   5.929  -4.523  0.00  0.00    +0.216 C 
ATOM     12  O   UNL     1       0.572   6.032  -5.872  0.00  0.00    -0.285 OA
ATOM     13  C   UNL     1      -0.886   6.047  -1.372  0.00  0.00    +0.020 A 
ATOM     14  C   UNL     1       2.152   5.407  -4.336  0.00  0.00    +0.163 C 
ENDROOT
BRANCH  14  15
ATOM     15  C   UNL     1       2.919   4.810  -5.442  0.00  0.00    +0.288 C 
ATOM     16  N   UNL     1       3.746   5.558  -6.303  0.00  0.00    -0.155 NA
ATOM     17  O   UNL     1       2.437   3.735  -5.915  0.00  0.00    -0.266 OA
BRANCH  16  18
ATOM     18  C   UNL     1       3.740   5.446  -7.732  0.00  0.00    +0.155 A 
ATOM     19  N   UNL     1       2.941   6.215  -8.510  0.00  0.00    -0.227 NA
ATOM     20  C   UNL     1       3.438   7.004  -9.496  0.00  0.00    +0.100 A 
ATOM     21  C   UNL     1       4.674   6.724 -10.064  0.00  0.00    +0.021 A 
ATOM     22  C   UNL     1       5.399   5.718  -9.492  0.00  0.00    +0.005 A 
ATOM     23  C   UNL     1       4.997   5.205  -8.282  0.00  0.00    +0.036 A 
ENDBRANCH  16  18
ENDBRANCH  14  15
TORSDOF 2
ENDMDL
MODEL 3
REMARK VINA RESULT:      -8.1      2.953      4.484
REMARK  Name = 
REMARK  2 active torsions:
REMARK  status: ('A' for Active; 'I' for Inactive)
REMARK    1  A    between atoms: C_3  and  C_4
REMARK    2  A    between atoms: N_6  and  C_7
REMARK                            x       y       z     vdW  Elec       q    Type
REMARK                         _______ _______ _______ _____ _____    ______ ____
ROOT
ATOM      1  C   UNL     1      -0.076   5.596  -7.284  0.00  0.00    +0.139 C 
ATOM      2  N   UNL     1       1.108   5.462  -6.483  0.00  0.00    -0.181 N 
ATOM      3  S   UNL     1       1.065   6.011  -4.835  0.00  0.00    +0.077 S 
ATOM      4  O   UNL     1       0.075   7.118  -4.653  0.00  0.00    -0.150 OA
ATOM      5  O   UNL     1       0.789   4.847  -3.940  0.00  0.00    -0.150 OA
ATOM      6  C   UNL     1       2.654   6.599  -4.465  0.00  0.00    +0.129 A 
ATOM      7  C   UNL     1       3.672   6.502  -5.382  0.00  0.00    +0.059 A 
ATOM      8  C   UNL     1       4.924   6.994  -5.029  0.00  0.00    +0.005 A 
ATOM      9  C   UNL     1       4.972   7.991  -4.093  0.00  0.00    +0.000 A 
ATOM     10  C   UNL     1       4.006   7.947  -3.094  0.00  0.00    +0.001 A 
ATOM     11  C   UNL     1       3.514   5.456  -6.402  0.00  0.00    +0.216 C 
ATOM     12  O   UNL     1       4.666   5.132  -7.130  0.00  0.00    -0.285 OA
ATOM     13  C   UNL     1       2.890   7.145  -3.235  0.00  0.00    +0.020 A 
ATOM     14  C   UNL     1       2.390   5.390  -7.120  0.00  0.00    +0.163 C 
ENDROOT
BRANCH  14  15
ATOM     15  C   UNL     1       2.413   5.203  -8.581  0.00  0.00    +0.288 C 
ATOM     16  N   UNL     1       2.125   6.234  -9.497  0.00  0.00    -0.155 NA
ATOM     17  O   UNL     1       2.195   4.018  -8.979  0.00  0.00    -0.266 OA
BRANCH  16  18
ATOM     18  C   UNL     1       1.243   6.098 -10.619  0.00  0.00    +0.155 A 
ATOM     19  N   UNL     1      -0.004   6.627 -10.621  0.00  0.00    -0.227 NA
ATOM     20  C   UNL     1      -0.416   7.498 -11.576  0.00  0.00    +0.100 A 
ATOM     21  C   UNL     1       0.209   7.528 -12.817  0.00  0.00    +0.021 A 
ATOM     22  C   UNL     1       1.320   6.748 -12.963  0.00  0.00    +0.005 A 
ATOM     23  C   UNL     1       1.887   6.171 -11.852  0.00  0.00    +0.036 A 
ENDBRANCH  16  18
ENDBRANCH  14  15
TORSDOF 2
ENDMDL
MODEL 4
REMARK VINA RESULT:      -7.9      2.129      3.505
REMARK  Name = 
REMARK  2 active torsions:
REMARK  status: ('A' for Active; 'I' for Inactive)
REMARK    1  A    between atoms: C_3  and  C_4
REMARK    2  A    between atoms: N_6  and  C_7
REMARK                            x       y       z     vdW  Elec       q    Type
REMARK                         _______ _______ _______ _____ _____    ______ ____
ROOT
ATOM      1  C   UNL     1       0.720   6.047  -8.205  0.00  0.00    +0.139 C 
ATOM      2  N   UNL     1       1.693   5.794  -7.179  0.00  0.00    -0.181 N 
ATOM      3  S   UNL     1       1.214   5.967  -5.518  0.00  0.00    +0.077 S 
ATOM      4  O   UNL     1       0.108   6.963  -5.368  0.00  0.00    -0.150 OA
ATOM      5  O   UNL     1       0.851   4.625  -4.972  0.00  0.00    -0.150 OA
ATOM      6  C   UNL     1       2.610   6.529  -4.655  0.00  0.00    +0.129 A 
ATOM      7  C   UNL     1       3.819   6.679  -5.291  0.00  0.00    +0.059 A 
ATOM      8  C   UNL     1       4.901   7.137  -4.547  0.00  0.00    +0.005 A 
ATOM      9  C   UNL     1       4.633   7.905  -3.447  0.00  0.00    +0.000 A 
ATOM     10  C   UNL     1       3.471   7.603  -2.749  0.00  0.00    +0.001 A 
ATOM     11  C   UNL     1       4.003   5.875  -6.507  0.00  0.00    +0.216 C 
ATOM     12  O   UNL     1       5.318   5.768  -6.977  0.00  0.00    -0.285 OA
ATOM     13  C   UNL     1       2.500   6.803  -3.321  0.00  0.00    +0.020 A 
ATOM     14  C   UNL     1       3.088   5.918  -7.480  0.00  0.00    +0.163 C 
ENDROOT
BRANCH  14  15
ATOM     15  C   UNL     1       3.469   6.056  -8.896  0.00  0.00    +0.288 C 
ATOM     16  N   UNL     1       4.198   5.078  -9.599  0.00  0.00    -0.155 NA
ATOM     17  O   UNL     1       3.577   7.250  -9.313  0.00  0.00    -0.266 OA
BRANCH  16  18
ATOM     18  C   UNL     1       5.336   5.356 -10.428  0.00  0.00    +0.155 A 
ATOM     19  N   UNL     1       5.215   5.954 -11.638  0.00  0.00    -0.227 NA
ATOM     20  C   UNL     1       5.870   7.101 -11.943  0.00  0.00    +0.100 A 
ATOM     21  C   UNL     1       7.022   7.458 -11.254  0.00  0.00    +0.021 A 
ATOM     22  C   UNL     1       7.365   6.677 -10.187  0.00  0.00    +0.005 A 
ATOM     23  C   UNL     1       6.466   5.750  -9.717  0.00  0.00    +0.036 A 
ENDBRANCH  16  18
ENDBRANCH  14  15
TORSDOF 2
ENDMDL
MODEL 5
REMARK VINA RESULT:      -7.8      3.071      4.935
REMARK  Name = 
REMARK  2 active torsions:
REMARK  status: ('A' for Active; 'I' for Inactive)
REMARK    1  A    between atoms: C_3  and  C_4
REMARK    2  A    between atoms: N_6  and  C_7
REMARK                            x       y       z     vdW  Elec       q    Type
REMARK                         _______ _______ _______ _____ _____    ______ ____
ROOT
ATOM      1  C   UNL     1      -0.724   5.696  -5.654  0.00  0.00    +0.139 C 
ATOM      2  N   UNL     1      -0.608   5.468  -4.240  0.00  0.00    -0.181 N 
ATOM      3  S   UNL     1      -1.951   5.881  -3.219  0.00  0.00    +0.077 S 
ATOM      4  O   UNL     1      -2.763   6.994  -3.803  0.00  0.00    -0.150 OA
ATOM      5  O   UNL     1      -2.766   4.656  -2.963  0.00  0.00    -0.150 OA
ATOM      6  C   UNL     1      -1.282   6.398  -1.703  0.00  0.00    +0.129 A 
ATOM      7  C   UNL     1       0.072   6.351  -1.479  0.00  0.00    +0.059 A 
ATOM      8  C   UNL     1       0.549   6.782  -0.245  0.00  0.00    +0.005 A 
ATOM      9  C   UNL     1      -0.202   7.697   0.439  0.00  0.00    +0.000 A 
ATOM     10  C   UNL     1      -1.581   7.596   0.297  0.00  0.00    +0.001 A 
ATOM     11  C   UNL     1       0.822   5.396  -2.306  0.00  0.00    +0.216 C 
ATOM     12  O   UNL     1       2.123   5.104  -1.876  0.00  0.00    -0.285 OA
ATOM     13  C   UNL     1      -2.124   6.836  -0.721  0.00  0.00    +0.020 A 
ATOM     14  C   UNL     1       0.689   5.416  -3.635  0.00  0.00    +0.163 C 
ENDROOT
BRANCH  14  15
ATOM     15  C   UNL     1       1.855   5.349  -4.532  0.00  0.00    +0.288 C 
ATOM     16  N   UNL     1       2.660   6.464  -4.839  0.00  0.00    -0.155 NA
ATOM     17  O   UNL     1       1.817   4.424  -5.400  0.00  0.00    -0.266 OA
BRANCH  16  18
ATOM     18  C   UNL     1       3.071   6.825  -6.164  0.00  0.00    +0.155 A 
ATOM     19  N   UNL     1       3.954   6.080  -6.872  0.00  0.00    -0.227 NA
ATOM     20  C   UNL     1       3.656   5.577  -8.095  0.00  0.00    +0.100 A 
ATOM     21  C   UNL     1       2.666   6.163  -8.874  0.00  0.00    +0.021 A 
ATOM     22  C   UNL     1       1.938   7.162  -8.292  0.00  0.00    +0.005 A 
ATOM     23  C   UNL     1       2.052   7.375  -6.939  0.00  0.00    +0.036 A 
ENDBRANCH  16  18
ENDBRANCH  14  15
TORSDOF 2
ENDMDL
MODEL 6
REMARK VINA RESULT:      -7.8      3.269      7.369
REMARK  Name = 
REMARK  2 active torsions:
REMARK  status: ('A' for Active; 'I' for Inactive)
REMARK    1  A    between atoms: C_3  and  C_4
REMARK    2  A    between atoms: N_6  and  C_7
REMARK                            x       y       z     vdW  Elec       q    Type
REMARK                         _______ _______ _______ _____ _____    ______ ____
ROOT
ATOM      1  C   UNL     1       0.172   4.510 -10.987  0.00  0.00    +0.139 C 
ATOM      2  N   UNL     1       1.370   5.291 -11.120  0.00  0.00    -0.181 N 
ATOM      3  S   UNL     1       1.922   5.703 -12.715  0.00  0.00    +0.077 S 
ATOM      4  O   UNL     1       1.495   4.683 -13.723  0.00  0.00    -0.150 OA
ATOM      5  O   UNL     1       1.444   7.076 -13.058  0.00  0.00    -0.150 OA
ATOM      6  C   UNL     1       3.655   5.748 -12.646  0.00  0.00    +0.129 A 
ATOM      7  C   UNL     1       4.317   5.556 -11.457  0.00  0.00    +0.059 A 
ATOM      8  C   UNL     1       5.707   5.600 -11.465  0.00  0.00    +0.005 A 
ATOM      9  C   UNL     1       6.344   5.286 -12.635  0.00  0.00    +0.000 A 
ATOM     10  C   UNL     1       5.695   5.648 -13.809  0.00  0.00    +0.001 A 
ATOM     11  C   UNL     1       3.542   5.843 -10.243  0.00  0.00    +0.216 C 
ATOM     12  O   UNL     1       4.282   5.965  -9.059  0.00  0.00    -0.285 OA
ATOM     13  C   UNL     1       4.359   6.000 -13.789  0.00  0.00    +0.020 A 
ATOM     14  C   UNL     1       2.343   5.282 -10.068  0.00  0.00    +0.163 C 
ENDROOT
BRANCH  14  15
ATOM     15  C   UNL     1       1.953   4.667  -8.788  0.00  0.00    +0.288 C 
ATOM     16  N   UNL     1       1.451   5.403  -7.697  0.00  0.00    -0.155 NA
ATOM     17  O   UNL     1       2.541   3.577  -8.510  0.00  0.00    -0.266 OA
BRANCH  16  18
ATOM     18  C   UNL     1       1.904   5.259  -6.344  0.00  0.00    +0.155 A 
ATOM     19  N   UNL     1       2.804   6.108  -5.793  0.00  0.00    -0.227 NA
ATOM     20  C   UNL     1       2.540   6.800  -4.657  0.00  0.00    +0.100 A 
ATOM     21  C   UNL     1       1.577   6.346  -3.765  0.00  0.00    +0.021 A 
ATOM     22  C   UNL     1       0.837   5.267  -4.157  0.00  0.00    +0.005 A 
ATOM     23  C   UNL     1       0.911   4.840  -5.461  0.00  0.00    +0.036 A 
ENDBRANCH  16  18
ENDBRANCH  14  15
TORSDOF 2
ENDMDL
MODEL 7
REMARK VINA RESULT:      -7.7      3.012      4.580
REMARK  Name = 
REMARK  2 active torsions:
REMARK  status: ('A' for Active; 'I' for Inactive)
REMARK    1  A    between atoms: C_3  and  C_4
REMARK    2  A    between atoms: N_6  and  C_7
REMARK                            x       y       z     vdW  Elec       q    Type
REMARK                         _______ _______ _______ _____ _____    ______ ____
ROOT
ATOM      1  C   UNL     1      -2.416   6.617  -5.589  0.00  0.00    +0.139 C 
ATOM      2  N   UNL     1      -1.541   5.977  -4.647  0.00  0.00    -0.181 N 
ATOM      3  S   UNL     1      -2.004   5.943  -2.972  0.00  0.00    +0.077 S 
ATOM      4  O   UNL     1      -2.872   7.110  -2.620  0.00  0.00    -0.150 OA
ATOM      5  O   UNL     1      -2.660   4.635  -2.673  0.00  0.00    -0.150 OA
ATOM      6  C   UNL     1      -0.537   6.023  -2.050  0.00  0.00    +0.129 A 
ATOM      7  C   UNL     1       0.687   6.022  -2.673  0.00  0.00    +0.059 A 
ATOM      8  C   UNL     1       1.828   6.091  -1.879  0.00  0.00    +0.005 A 
ATOM      9  C   UNL     1       1.712   6.686  -0.653  0.00  0.00    +0.000 A 
ATOM     10  C   UNL     1       0.497   6.520   0.002  0.00  0.00    +0.001 A 
ATOM     11  C   UNL     1       0.717   5.433  -4.018  0.00  0.00    +0.216 C 
ATOM     12  O   UNL     1       1.988   5.132  -4.526  0.00  0.00    -0.285 OA
ATOM     13  C   UNL     1      -0.612   6.066  -0.686  0.00  0.00    +0.020 A 
ATOM     14  C   UNL     1      -0.147   5.849  -4.948  0.00  0.00    +0.163 C 
ENDROOT
BRANCH  14  15
ATOM     15  C   UNL     1       0.283   6.158  -6.322  0.00  0.00    +0.288 C 
ATOM     16  N   UNL     1       0.367   5.190  -7.342  0.00  0.00    -0.155 NA
ATOM     17  O   UNL     1       1.044   7.167  -6.438  0.00  0.00    -0.266 OA
BRANCH  16  18
ATOM     18  C   UNL     1       1.489   5.036  -8.223  0.00  0.00    +0.155 A 
ATOM     19  N   UNL     1       1.716   5.887  -9.252  0.00  0.00    -0.227 NA
ATOM     20  C   UNL     1       2.882   6.567  -9.381  0.00  0.00    +0.100 A 
ATOM     21  C   UNL     1       4.041   6.098  -8.775  0.00  0.00    +0.021 A 
ATOM     22  C   UNL     1       3.907   5.017  -7.950  0.00  0.00    +0.005 A 
ATOM     23  C   UNL     1       2.648   4.603  -7.585  0.00  0.00    +0.036 A 
ENDBRANCH  16  18
ENDBRANCH  14  15
TORSDOF 2
ENDMDL
MODEL 8
REMARK VINA RESULT:      -7.6      2.813      6.731
REMARK  Name = 
REMARK  2 active torsions:
REMARK  status: ('A' for Active; 'I' for Inactive)
REMARK    1  A    between atoms: C_3  and  C_4
REMARK    2  A    between atoms: N_6  and  C_7
REMARK                            x       y       z     vdW  Elec       q    Type
REMARK                         _______ _______ _______ _____ _____    ______ ____
ROOT
ATOM      1  C   UNL     1       3.856   5.965  -6.450  0.00  0.00    +0.139 C 
ATOM      2  N   UNL     1       2.946   5.527  -7.472  0.00  0.00    -0.181 N 
ATOM      3  S   UNL     1       3.526   5.405  -9.105  0.00  0.00    +0.077 S 
ATOM      4  O   UNL     1       4.644   6.365  -9.363  0.00  0.00    -0.150 OA
ATOM      5  O   UNL     1       3.916   3.990  -9.381  0.00  0.00    -0.150 OA
ATOM      6  C   UNL     1       2.187   5.796 -10.138  0.00  0.00    +0.129 A 
ATOM      7  C   UNL     1       0.944   6.049  -9.613  0.00  0.00    +0.059 A 
ATOM      8  C   UNL     1      -0.090   6.360 -10.491  0.00  0.00    +0.005 A 
ATOM      9  C   UNL     1       0.248   6.923 -11.691  0.00  0.00    +0.000 A 
ATOM     10  C   UNL     1       1.450   6.508 -12.253  0.00  0.00    +0.001 A 
ATOM     11  C   UNL     1       0.682   5.473  -8.287  0.00  0.00    +0.216 C 
ATOM     12  O   UNL     1      -0.660   5.443  -7.886  0.00  0.00    -0.285 OA
ATOM     13  C   UNL     1       2.380   5.829 -11.490  0.00  0.00    +0.020 A 
ATOM     14  C   UNL     1       1.536   5.694  -7.284  0.00  0.00    +0.163 C 
ENDROOT
BRANCH  14  15
ATOM     15  C   UNL     1       1.070   6.079  -5.940  0.00  0.00    +0.288 C 
ATOM     16  N   UNL     1       0.505   5.168  -5.027  0.00  0.00    -0.155 NA
ATOM     17  O   UNL     1       0.721   7.292  -5.816  0.00  0.00    -0.266 OA
BRANCH  16  18
ATOM     18  C   UNL     1      -0.701   5.404  -4.288  0.00  0.00    +0.155 A 
ATOM     19  N   UNL     1      -0.685   5.765  -2.983  0.00  0.00    -0.227 NA
ATOM     20  C   UNL     1      -1.285   6.898  -2.540  0.00  0.00    +0.100 A 
ATOM     21  C   UNL     1      -2.312   7.482  -3.271  0.00  0.00    +0.021 A 
ATOM     22  C   UNL     1      -2.579   6.938  -4.496  0.00  0.00    +0.005 A 
ATOM     23  C   UNL     1      -1.702   6.026  -5.031  0.00  0.00    +0.036 A 
ENDBRANCH  16  18
ENDBRANCH  14  15
TORSDOF 2
ENDMDL
MODEL 9
REMARK VINA RESULT:      -7.5      3.029      6.324
REMARK  Name = 
REMARK  2 active torsions:
REMARK  status: ('A' for Active; 'I' for Inactive)
REMARK    1  A    between atoms: C_3  and  C_4
REMARK    2  A    between atoms: N_6  and  C_7
REMARK                            x       y       z     vdW  Elec       q    Type
REMARK                         _______ _______ _______ _____ _____    ______ ____
ROOT
ATOM      1  C   UNL     1      -0.345   5.394  -8.336  0.00  0.00    +0.139 C 
ATOM      2  N   UNL     1       0.729   6.000  -9.073  0.00  0.00    -0.181 N 
ATOM      3  S   UNL     1       0.567   6.165 -10.795  0.00  0.00    +0.077 S 
ATOM      4  O   UNL     1      -0.321   5.105 -11.366  0.00  0.00    -0.150 OA
ATOM      5  O   UNL     1       0.083   7.543 -11.110  0.00  0.00    -0.150 OA
ATOM      6  C   UNL     1       2.159   5.998 -11.463  0.00  0.00    +0.129 A 
ATOM      7  C   UNL     1       3.254   5.852 -10.645  0.00  0.00    +0.059 A 
ATOM      8  C   UNL     1       4.505   5.719 -11.239  0.00  0.00    +0.005 A 
ATOM      9  C   UNL     1       4.552   5.204 -12.506  0.00  0.00    +0.000 A 
ATOM     10  C   UNL     1       3.487   5.517 -13.342  0.00  0.00    +0.001 A 
ATOM     11  C   UNL     1       3.100   6.363  -9.277  0.00  0.00    +0.216 C 
ATOM     12  O   UNL     1       4.283   6.517  -8.544  0.00  0.00    -0.285 OA
ATOM     13  C   UNL     1       2.317   6.035 -12.819  0.00  0.00    +0.020 A 
ATOM     14  C   UNL     1       2.057   5.981  -8.535  0.00  0.00    +0.163 C 
ENDROOT
BRANCH  14  15
ATOM     15  C   UNL     1       2.215   5.560  -7.133  0.00  0.00    +0.288 C 
ATOM     16  N   UNL     1       2.364   6.468  -6.065  0.00  0.00    -0.155 NA
ATOM     17  O   UNL     1       2.718   4.408  -6.967  0.00  0.00    -0.266 OA
BRANCH  16  18
ATOM     18  C   UNL     1       3.360   6.356  -5.039  0.00  0.00    +0.155 A 
ATOM     19  N   UNL     1       4.586   6.919  -5.163  0.00  0.00    -0.227 NA
ATOM     20  C   UNL     1       5.070   7.800  -4.253  0.00  0.00    +0.100 A 
ATOM     21  C   UNL     1       4.574   7.814  -2.955  0.00  0.00    +0.021 A 
ATOM     22  C   UNL     1       3.505   7.004  -2.698  0.00  0.00    +0.005 A 
ATOM     23  C   UNL     1       2.843   6.412  -3.747  0.00  0.00    +0.036 A 
ENDBRANCH  16  18
ENDBRANCH  14  15
TORSDOF 2
ENDMDL
