MODEL 1
REMARK VINA RESULT:      -5.5      0.000      0.000
REMARK  Name = 
REMARK  0 active torsions:
REMARK  status: ('A' for Active; 'I' for Inactive)
REMARK                            x       y       z     vdW  Elec       q    Type
REMARK                         _______ _______ _______ _____ _____    ______ ____
ROOT
ATOM      1  C   UNL     1       1.927   5.231  -1.463  0.00  0.00    +0.137 C 
ATOM      2  N   UNL     1       2.301   5.724  -2.783  0.00  0.00    -0.263 N 
ATOM      3  C   UNL     1       3.585   6.074  -3.033  0.00  0.00    +0.335 A 
ATOM      4  O   UNL     1       4.420   6.024  -2.085  0.00  0.00    -0.246 OA
ATOM      5  N   UNL     1       3.863   6.863  -4.101  0.00  0.00    -0.245 N 
ATOM      6  C   UNL     1       4.991   7.784  -4.120  0.00  0.00    +0.138 C 
ATOM      7  C   UNL     1       2.995   6.757  -5.136  0.00  0.00    +0.285 A 
ATOM      8  O   UNL     1       3.287   7.454  -6.152  0.00  0.00    -0.265 OA
ATOM      9  C   UNL     1       1.642   6.613  -4.858  0.00  0.00    +0.174 A 
ATOM     10  N   UNL     1       0.493   6.881  -5.510  0.00  0.00    -0.213 NA
ATOM     11  C   UNL     1      -0.493   6.923  -4.581  0.00  0.00    +0.200 A 
ATOM     12 BR   UNL     1      -2.082   7.990  -4.598  0.00  0.00    -0.006 Br
ATOM     13  N   UNL     1      -0.028   6.160  -3.565  0.00  0.00    -0.202 NA
ATOM     14  C   UNL     1       1.315   6.047  -3.637  0.00  0.00    +0.172 A 
ENDROOT
TORSDOF 0
ENDMDL
MODEL 2
REMARK VINA RESULT:      -5.5      2.356      2.583
REMARK  Name = 
REMARK  0 active torsions:
REMARK  status: ('A' for Active; 'I' for Inactive)
REMARK                            x       y       z     vdW  Elec       q    Type
REMARK                         _______ _______ _______ _____ _____    ______ ____
ROOT
ATOM      1  C   UNL     1       2.791   5.420  -3.073  0.00  0.00    +0.137 C 
ATOM      2  N   UNL     1       2.502   5.070  -4.458  0.00  0.00    -0.263 N 
ATOM      3  C   UNL     1       3.511   4.981  -5.356  0.00  0.00    +0.335 A 
ATOM      4  O   UNL     1       4.683   5.273  -4.979  0.00  0.00    -0.246 OA
ATOM      5  N   UNL     1       3.228   5.027  -6.682  0.00  0.00    -0.245 N 
ATOM      6  C   UNL     1       4.160   5.565  -7.663  0.00  0.00    +0.138 C 
ATOM      7  C   UNL     1       1.999   4.568  -7.023  0.00  0.00    +0.285 A 
ATOM      8  O   UNL     1       1.757   4.561  -8.266  0.00  0.00    -0.265 OA
ATOM      9  C   UNL     1       0.926   4.855  -6.190  0.00  0.00    +0.174 A 
ATOM     10  N   UNL     1      -0.409   4.961  -6.344  0.00  0.00    -0.213 NA
ATOM     11  C   UNL     1      -0.878   5.670  -5.289  0.00  0.00    +0.200 A 
ATOM     12 BR   UNL     1      -2.380   6.856  -5.242  0.00  0.00    -0.006 Br
ATOM     13  N   UNL     1       0.044   5.476  -4.319  0.00  0.00    -0.202 NA
ATOM     14  C   UNL     1       1.219   5.084  -4.856  0.00  0.00    +0.172 A 
ENDROOT
TORSDOF 0
ENDMDL
MODEL 3
REMARK VINA RESULT:      -5.4      5.249      6.785
REMARK  Name = 
REMARK  0 active torsions:
REMARK  status: ('A' for Active; 'I' for Inactive)
REMARK                            x       y       z     vdW  Elec       q    Type
REMARK                         _______ _______ _______ _____ _____    ______ ____
ROOT
ATOM      1  C   UNL     1       1.765   5.410 -10.824  0.00  0.00    +0.137 C 
ATOM      2  N   UNL     1       2.506   5.354  -9.570  0.00  0.00    -0.263 N 
ATOM      3  C   UNL     1       1.865   5.571  -8.397  0.00  0.00    +0.335 A 
ATOM      4  O   UNL     1       0.640   5.883  -8.427  0.00  0.00    -0.246 OA
ATOM      5  N   UNL     1       2.586   5.886  -7.294  0.00  0.00    -0.245 N 
ATOM      6  C   UNL     1       2.056   6.720  -6.224  0.00  0.00    +0.138 C 
ATOM      7  C   UNL     1       3.850   5.397  -7.274  0.00  0.00    +0.285 A 
ATOM      8  O   UNL     1       4.505   5.647  -6.218  0.00  0.00    -0.265 OA
ATOM      9  C   UNL     1       4.577   5.382  -8.457  0.00  0.00    +0.174 A 
ATOM     10  N   UNL     1       5.885   5.388  -8.782  0.00  0.00    -0.213 NA
ATOM     11  C   UNL     1       5.975   5.791 -10.072  0.00  0.00    +0.200 A 
ATOM     12 BR   UNL     1       7.387   6.782 -10.900  0.00  0.00    -0.006 Br
ATOM     13  N   UNL     1       4.772   5.475 -10.606  0.00  0.00    -0.202 NA
ATOM     14  C   UNL     1       3.848   5.332  -9.633  0.00  0.00    +0.172 A 
ENDROOT
TORSDOF 0
ENDMDL
MODEL 4
REMARK VINA RESULT:      -5.4      7.476      8.865
REMARK  Name = 
REMARK  0 active torsions:
REMARK  status: ('A' for Active; 'I' for Inactive)
REMARK                            x       y       z     vdW  Elec       q    Type
REMARK                         _______ _______ _______ _____ _____    ______ ____
ROOT
ATOM      1  C   UNL     1       4.358   5.744 -13.928  0.00  0.00    +0.137 C 
ATOM      2  N   UNL     1       5.233   6.085 -12.813  0.00  0.00    -0.263 N 
ATOM      3  C   UNL     1       6.561   6.249 -13.024  0.00  0.00    +0.335 A 
ATOM      4  O   UNL     1       7.019   6.034 -14.183  0.00  0.00    -0.246 OA
ATOM      5  N   UNL     1       7.413   6.195 -11.971  0.00  0.00    -0.245 N 
ATOM      6  C   UNL     1       8.787   5.729 -12.099  0.00  0.00    +0.138 C 
ATOM      7  C   UNL     1       6.883   6.573 -10.782  0.00  0.00    +0.285 A 
ATOM      8  O   UNL     1       7.695   6.573  -9.810  0.00  0.00    -0.265 OA
ATOM      9  C   UNL     1       5.575   6.207 -10.490  0.00  0.00    +0.174 A 
ATOM     10  N   UNL     1       4.860   6.013  -9.364  0.00  0.00    -0.213 NA
ATOM     11  C   UNL     1       3.781   5.265  -9.699  0.00  0.00    +0.200 A 
ATOM     12 BR   UNL     1       2.859   3.981  -8.622  0.00  0.00    -0.006 Br
ATOM     13  N   UNL     1       3.599   5.514 -11.017  0.00  0.00    -0.202 NA
ATOM     14  C   UNL     1       4.736   5.988 -11.569  0.00  0.00    +0.172 A 
ENDROOT
TORSDOF 0
ENDMDL
MODEL 5
REMARK VINA RESULT:      -5.4      3.035      4.788
REMARK  Name = 
REMARK  0 active torsions:
REMARK  status: ('A' for Active; 'I' for Inactive)
REMARK                            x       y       z     vdW  Elec       q    Type
REMARK                         _______ _______ _______ _____ _____    ______ ____
ROOT
ATOM      1  C   UNL     1      -0.229   5.574  -5.411  0.00  0.00    +0.137 C 
ATOM      2  N   UNL     1       0.275   5.388  -4.056  0.00  0.00    -0.263 N 
ATOM      3  C   UNL     1      -0.593   5.302  -3.020  0.00  0.00    +0.335 A 
ATOM      4  O   UNL     1      -1.827   5.451  -3.251  0.00  0.00    -0.246 OA
ATOM      5  N   UNL     1      -0.142   5.502  -1.757  0.00  0.00    -0.245 N 
ATOM      6  C   UNL     1      -0.984   6.051  -0.703  0.00  0.00    +0.138 C 
ATOM      7  C   UNL     1       1.161   5.187  -1.555  0.00  0.00    +0.285 A 
ATOM      8  O   UNL     1       1.566   5.324  -0.362  0.00  0.00    -0.265 OA
ATOM      9  C   UNL     1       2.080   5.483  -2.553  0.00  0.00    +0.174 A 
ATOM     10  N   UNL     1       3.406   5.719  -2.599  0.00  0.00    -0.213 NA
ATOM     11  C   UNL     1       3.659   6.359  -3.766  0.00  0.00    +0.200 A 
ATOM     12 BR   UNL     1       5.015   7.660  -4.126  0.00  0.00    -0.006 Br
ATOM     13  N   UNL     1       2.639   5.990  -4.576  0.00  0.00    -0.202 NA
ATOM     14  C   UNL     1       1.591   5.553  -3.846  0.00  0.00    +0.172 A 
ENDROOT
TORSDOF 0
ENDMDL
MODEL 6
REMARK VINA RESULT:      -5.3      6.415      7.324
REMARK  Name = 
REMARK  0 active torsions:
REMARK  status: ('A' for Active; 'I' for Inactive)
REMARK                            x       y       z     vdW  Elec       q    Type
REMARK                         _______ _______ _______ _____ _____    ______ ____
ROOT
ATOM      1  C   UNL     1       4.625   5.233  -8.124  0.00  0.00    +0.137 C 
ATOM      2  N   UNL     1       4.778   5.375  -9.566  0.00  0.00    -0.263 N 
ATOM      3  C   UNL     1       5.988   5.687 -10.089  0.00  0.00    +0.335 A 
ATOM      4  O   UNL     1       6.947   5.914  -9.297  0.00  0.00    -0.246 OA
ATOM      5  N   UNL     1       6.061   6.177 -11.351  0.00  0.00    -0.245 N 
ATOM      6  C   UNL     1       7.108   7.096 -11.774  0.00  0.00    +0.138 C 
ATOM      7  C   UNL     1       5.067   5.776 -12.181  0.00  0.00    +0.285 A 
ATOM      8  O   UNL     1       5.166   6.192 -13.374  0.00  0.00    -0.265 OA
ATOM      9  C   UNL     1       3.778   5.668 -11.675  0.00  0.00    +0.174 A 
ATOM     10  N   UNL     1       2.535   5.720 -12.191  0.00  0.00    -0.213 NA
ATOM     11  C   UNL     1       1.686   5.972 -11.166  0.00  0.00    +0.200 A 
ATOM     12 BR   UNL     1       0.040   6.947 -11.213  0.00  0.00    -0.006 Br
ATOM     13  N   UNL     1       2.339   5.517 -10.072  0.00  0.00    -0.202 NA
ATOM     14  C   UNL     1       3.664   5.432 -10.315  0.00  0.00    +0.172 A 
ENDROOT
TORSDOF 0
ENDMDL
MODEL 7
REMARK VINA RESULT:      -5.3      3.130      4.982
REMARK  Name = 
REMARK  0 active torsions:
REMARK  status: ('A' for Active; 'I' for Inactive)
REMARK                            x       y       z     vdW  Elec       q    Type
REMARK                         _______ _______ _______ _____ _____    ______ ____
ROOT
ATOM      1  C   UNL     1       1.670   4.899  -7.889  0.00  0.00    +0.137 C 
ATOM      2  N   UNL     1       1.240   4.996  -6.500  0.00  0.00    -0.263 N 
ATOM      3  C   UNL     1      -0.081   5.045  -6.205  0.00  0.00    +0.335 A 
ATOM      4  O   UNL     1      -0.912   5.072  -7.157  0.00  0.00    -0.246 OA
ATOM      5  N   UNL     1      -0.473   5.501  -4.989  0.00  0.00    -0.245 N 
ATOM      6  C   UNL     1      -1.746   6.179  -4.782  0.00  0.00    +0.138 C 
ATOM      7  C   UNL     1       0.420   5.311  -3.988  0.00  0.00    +0.285 A 
ATOM      8  O   UNL     1       0.029   5.689  -2.844  0.00  0.00    -0.265 OA
ATOM      9  C   UNL     1       1.772   5.477  -4.261  0.00  0.00    +0.174 A 
ATOM     10  N   UNL     1       2.867   5.784  -3.538  0.00  0.00    -0.213 NA
ATOM     11  C   UNL     1       3.812   6.215  -4.408  0.00  0.00    +0.200 A 
ATOM     12 BR   UNL     1       5.187   7.511  -4.106  0.00  0.00    -0.006 Br
ATOM     13  N   UNL     1       3.469   5.641  -5.585  0.00  0.00    -0.202 NA
ATOM     14  C   UNL     1       2.169   5.279  -5.572  0.00  0.00    +0.172 A 
ENDROOT
TORSDOF 0
ENDMDL
MODEL 8
REMARK VINA RESULT:      -5.3      3.110      4.040
REMARK  Name = 
REMARK  0 active torsions:
REMARK  status: ('A' for Active; 'I' for Inactive)
REMARK                            x       y       z     vdW  Elec       q    Type
REMARK                         _______ _______ _______ _____ _____    ______ ____
ROOT
ATOM      1  C   UNL     1       2.882   4.668  -5.250  0.00  0.00    +0.137 C 
ATOM      2  N   UNL     1       2.067   4.865  -6.442  0.00  0.00    -0.263 N 
ATOM      3  C   UNL     1       2.664   5.068  -7.641  0.00  0.00    +0.335 A 
ATOM      4  O   UNL     1       3.925   5.149  -7.682  0.00  0.00    -0.246 OA
ATOM      5  N   UNL     1       1.948   5.610  -8.656  0.00  0.00    -0.245 N 
ATOM      6  C   UNL     1       2.558   6.429  -9.694  0.00  0.00    +0.138 C 
ATOM      7  C   UNL     1       0.616   5.363  -8.617  0.00  0.00    +0.285 A 
ATOM      8  O   UNL     1      -0.044   5.825  -9.595  0.00  0.00    -0.265 OA
ATOM      9  C   UNL     1      -0.027   5.371  -7.385  0.00  0.00    +0.174 A 
ATOM     10  N   UNL     1      -1.287   5.585  -6.960  0.00  0.00    -0.213 NA
ATOM     11  C   UNL     1      -1.220   5.876  -5.639  0.00  0.00    +0.200 A 
ATOM     12 BR   UNL     1      -2.367   7.027  -4.627  0.00  0.00    -0.006 Br
ATOM     13  N   UNL     1      -0.068   5.298  -5.227  0.00  0.00    -0.202 NA
ATOM     14  C   UNL     1       0.752   5.081  -6.277  0.00  0.00    +0.172 A 
ENDROOT
TORSDOF 0
ENDMDL
MODEL 9
REMARK VINA RESULT:      -5.3      3.896      4.527
REMARK  Name = 
REMARK  0 active torsions:
REMARK  status: ('A' for Active; 'I' for Inactive)
REMARK                            x       y       z     vdW  Elec       q    Type
REMARK                         _______ _______ _______ _____ _____    ______ ____
ROOT
ATOM      1  C   UNL     1      -0.265   5.384  -5.785  0.00  0.00    +0.137 C 
ATOM      2  N   UNL     1       0.899   5.054  -6.597  0.00  0.00    -0.263 N 
ATOM      3  C   UNL     1       2.116   4.934  -6.015  0.00  0.00    +0.335 A 
ATOM      4  O   UNL     1       2.221   5.180  -4.779  0.00  0.00    -0.246 OA
ATOM      5  N   UNL     1       3.231   5.000  -6.785  0.00  0.00    -0.245 N 
ATOM      6  C   UNL     1       4.499   5.509  -6.283  0.00  0.00    +0.138 C 
ATOM      7  C   UNL     1       3.069   4.588  -8.066  0.00  0.00    +0.285 A 
ATOM      8  O   UNL     1       4.124   4.599  -8.769  0.00  0.00    -0.265 OA
ATOM      9  C   UNL     1       1.890   4.909  -8.725  0.00  0.00    +0.174 A 
ATOM     10  N   UNL     1       1.519   5.065 -10.012  0.00  0.00    -0.213 NA
ATOM     11  C   UNL     1       0.370   5.783 -10.013  0.00  0.00    +0.200 A 
ATOM     12 BR   UNL     1      -0.241   7.023 -11.336  0.00  0.00    -0.006 Br
ATOM     13  N   UNL     1      -0.172   5.548  -8.795  0.00  0.00    -0.202 NA
ATOM     14  C   UNL     1       0.773   5.118  -7.933  0.00  0.00    +0.172 A 
ENDROOT
TORSDOF 0
ENDMDL
