MODEL 1
REMARK VINA RESULT:      -4.9      0.000      0.000
REMARK  Name = 
REMARK  2 active torsions:
REMARK  status: ('A' for Active; 'I' for Inactive)
REMARK    1  A    between atoms: N_2  and  O_4
REMARK    2  A    between atoms: O_4  and  C_5
REMARK                            x       y       z     vdW  Elec       q    Type
REMARK                         _______ _______ _______ _____ _____    ______ ____
ROOT
ATOM      1  C   UNL     1       3.186   6.115  -6.527  0.00  0.00    +0.307 C 
ATOM      2  C   UNL     1       4.474   6.260  -5.407  0.00  0.00    +0.195 C 
ATOM      3  C   UNL     1       4.017   4.849  -4.577  0.00  0.00    +0.179 C 
ATOM      4  C   UNL     1       3.392   5.679  -3.221  0.00  0.00    +0.211 C 
ATOM      5  C   UNL     1       4.561   6.823  -3.339  0.00  0.00    +0.178 C 
ATOM      6  O   UNL     1       4.206   4.806  -2.292  0.00  0.00    -0.218 OA
ATOM      7  O   UNL     1       2.655   4.718  -5.164  0.00  0.00    -0.347 OA
ATOM      8  O   UNL     1       3.817   7.219  -4.469  0.00  0.00    -0.347 OA
ATOM      9  C   UNL     1       2.152   5.954  -5.272  0.00  0.00    +0.196 C 
ENDROOT
BRANCH   1  10
ATOM     10  O   UNL     1       2.935   7.619  -6.653  0.00  0.00    -0.199 OA
BRANCH  10  12
ATOM     11  O   UNL     1       2.132   8.244  -7.944  0.00  0.00    +0.093 OA
ATOM     12  N   UNL     1       2.327   7.767  -7.899  0.00  0.00    +0.285 N 
ATOM     13  O   UNL     1       2.358   6.684  -8.747  0.00  0.00    -0.534 OA
ENDBRANCH  10  12
ENDBRANCH   1  10
TORSDOF 2
ENDMDL
MODEL 2
REMARK VINA RESULT:      -4.8      5.265      6.913
REMARK  Name = 
REMARK  2 active torsions:
REMARK  status: ('A' for Active; 'I' for Inactive)
REMARK    1  A    between atoms: N_2  and  O_4
REMARK    2  A    between atoms: O_4  and  C_5
REMARK                            x       y       z     vdW  Elec       q    Type
REMARK                         _______ _______ _______ _____ _____    ______ ____
ROOT
ATOM      1  C   UNL     1       6.045   6.209 -11.979  0.00  0.00    +0.307 C 
ATOM      2  C   UNL     1       4.634   5.377 -11.477  0.00  0.00    +0.195 C 
ATOM      3  C   UNL     1       3.880   6.807 -10.952  0.00  0.00    +0.179 C 
ATOM      4  C   UNL     1       4.080   6.469  -9.289  0.00  0.00    +0.211 C 
ATOM      5  C   UNL     1       3.842   4.868  -9.550  0.00  0.00    +0.178 C 
ATOM      6  O   UNL     1       2.614   6.745  -9.041  0.00  0.00    -0.218 OA
ATOM      7  O   UNL     1       5.093   7.671 -10.955  0.00  0.00    -0.347 OA
ATOM      8  O   UNL     1       5.123   4.948 -10.132  0.00  0.00    -0.347 OA
ATOM      9  C   UNL     1       6.111   6.923 -10.511  0.00  0.00    +0.196 C 
ENDROOT
BRANCH   1  10
ATOM     10  O   UNL     1       7.019   5.099 -11.579  0.00  0.00    -0.199 OA
BRANCH  10  12
ATOM     11  O   UNL     1       7.831   4.756 -12.966  0.00  0.00    +0.093 OA
ATOM     12  N   UNL     1       7.972   5.089 -12.596  0.00  0.00    +0.285 N 
ATOM     13  O   UNL     1       9.055   5.925 -12.452  0.00  0.00    -0.534 OA
ENDBRANCH  10  12
ENDBRANCH   1  10
TORSDOF 2
ENDMDL
MODEL 3
REMARK VINA RESULT:      -4.8      4.264      5.712
REMARK  Name = 
REMARK  2 active torsions:
REMARK  status: ('A' for Active; 'I' for Inactive)
REMARK    1  A    between atoms: N_2  and  O_4
REMARK    2  A    between atoms: O_4  and  C_5
REMARK                            x       y       z     vdW  Elec       q    Type
REMARK                         _______ _______ _______ _____ _____    ______ ____
ROOT
ATOM      1  C   UNL     1      -1.218   6.452  -3.700  0.00  0.00    +0.307 C 
ATOM      2  C   UNL     1       0.466   6.303  -3.972  0.00  0.00    +0.195 C 
ATOM      3  C   UNL     1       0.348   6.920  -5.551  0.00  0.00    +0.179 C 
ATOM      4  C   UNL     1       0.587   5.409  -6.311  0.00  0.00    +0.211 C 
ATOM      5  C   UNL     1       1.646   4.951  -5.148  0.00  0.00    +0.178 C 
ATOM      6  O   UNL     1       1.662   6.005  -7.192  0.00  0.00    -0.218 OA
ATOM      7  O   UNL     1      -1.129   6.794  -5.692  0.00  0.00    -0.347 OA
ATOM      8  O   UNL     1       0.479   4.861  -4.363  0.00  0.00    -0.347 OA
ATOM      9  C   UNL     1      -1.485   5.648  -5.098  0.00  0.00    +0.196 C 
ENDROOT
BRANCH   1  10
ATOM     10  O   UNL     1      -1.341   5.186  -2.848  0.00  0.00    -0.199 OA
BRANCH  10  12
ATOM     11  O   UNL     1      -2.610   4.980  -1.826  0.00  0.00    +0.093 OA
ATOM     12  N   UNL     1      -2.440   5.426  -2.026  0.00  0.00    +0.285 N 
ATOM     13  O   UNL     1      -2.855   6.730  -1.892  0.00  0.00    -0.534 OA
ENDBRANCH  10  12
ENDBRANCH   1  10
TORSDOF 2
ENDMDL
MODEL 4
REMARK VINA RESULT:      -4.8      2.489      5.062
REMARK  Name = 
REMARK  2 active torsions:
REMARK  status: ('A' for Active; 'I' for Inactive)
REMARK    1  A    between atoms: N_2  and  O_4
REMARK    2  A    between atoms: O_4  and  C_5
REMARK                            x       y       z     vdW  Elec       q    Type
REMARK                         _______ _______ _______ _____ _____    ______ ____
ROOT
ATOM      1  C   UNL     1       4.222   6.096  -2.567  0.00  0.00    +0.307 C 
ATOM      2  C   UNL     1       4.643   5.800  -4.200  0.00  0.00    +0.195 C 
ATOM      3  C   UNL     1       4.121   7.338  -4.698  0.00  0.00    +0.179 C 
ATOM      4  C   UNL     1       2.709   6.765  -5.469  0.00  0.00    +0.211 C 
ATOM      5  C   UNL     1       3.487   5.409  -5.964  0.00  0.00    +0.178 C 
ATOM      6  O   UNL     1       3.059   7.538  -6.721  0.00  0.00    -0.218 OA
ATOM      7  O   UNL     1       3.351   7.682  -3.472  0.00  0.00    -0.347 OA
ATOM      8  O   UNL     1       3.402   5.071  -4.598  0.00  0.00    -0.347 OA
ATOM      9  C   UNL     1       2.738   6.563  -3.065  0.00  0.00    +0.196 C 
ENDROOT
BRANCH   1  10
ATOM     10  O   UNL     1       3.767   4.665  -2.272  0.00  0.00    -0.199 OA
BRANCH  10  12
ATOM     11  O   UNL     1       3.742   4.066  -0.742  0.00  0.00    +0.093 OA
ATOM     12  N   UNL     1       3.885   4.541  -0.888  0.00  0.00    +0.285 N 
ATOM     13  O   UNL     1       4.343   5.637  -0.194  0.00  0.00    -0.534 OA
ENDBRANCH  10  12
ENDBRANCH   1  10
TORSDOF 2
ENDMDL
MODEL 5
REMARK VINA RESULT:      -4.6      3.225      4.070
REMARK  Name = 
REMARK  2 active torsions:
REMARK  status: ('A' for Active; 'I' for Inactive)
REMARK    1  A    between atoms: N_2  and  O_4
REMARK    2  A    between atoms: O_4  and  C_5
REMARK                            x       y       z     vdW  Elec       q    Type
REMARK                         _______ _______ _______ _____ _____    ______ ____
ROOT
ATOM      1  C   UNL     1      -0.178   4.998  -6.534  0.00  0.00    +0.307 C 
ATOM      2  C   UNL     1       0.994   5.890  -7.410  0.00  0.00    +0.195 C 
ATOM      3  C   UNL     1       2.209   4.740  -7.110  0.00  0.00    +0.179 C 
ATOM      4  C   UNL     1       3.038   5.706  -5.970  0.00  0.00    +0.211 C 
ATOM      5  C   UNL     1       2.685   7.066  -6.813  0.00  0.00    +0.178 C 
ATOM      6  O   UNL     1       4.342   5.476  -6.700  0.00  0.00    -0.218 OA
ATOM      7  O   UNL     1       1.507   4.003  -6.023  0.00  0.00    -0.347 OA
ATOM      8  O   UNL     1       1.387   6.830  -6.317  0.00  0.00    -0.347 OA
ATOM      9  C   UNL     1       0.865   4.914  -5.280  0.00  0.00    +0.196 C 
ENDROOT
BRANCH   1  10
ATOM     10  O   UNL     1      -0.898   6.223  -5.966  0.00  0.00    -0.199 OA
BRANCH  10  12
ATOM     11  O   UNL     1      -2.454   5.866  -6.354  0.00  0.00    +0.093 OA
ATOM     12  N   UNL     1      -2.234   5.836  -5.886  0.00  0.00    +0.285 N 
ATOM     13  O   UNL     1      -2.707   5.455  -4.652  0.00  0.00    -0.534 OA
ENDBRANCH  10  12
ENDBRANCH   1  10
TORSDOF 2
ENDMDL
MODEL 6
REMARK VINA RESULT:      -4.6      2.740      4.267
REMARK  Name = 
REMARK  2 active torsions:
REMARK  status: ('A' for Active; 'I' for Inactive)
REMARK    1  A    between atoms: N_2  and  O_4
REMARK    2  A    between atoms: O_4  and  C_5
REMARK                            x       y       z     vdW  Elec       q    Type
REMARK                         _______ _______ _______ _____ _____    ______ ____
ROOT
ATOM      1  C   UNL     1       0.813   6.147  -9.164  0.00  0.00    +0.307 C 
ATOM      2  C   UNL     1       1.055   5.720  -7.523  0.00  0.00    +0.195 C 
ATOM      3  C   UNL     1       1.684   7.250  -7.134  0.00  0.00    +0.179 C 
ATOM      4  C   UNL     1       3.299   6.708  -7.005  0.00  0.00    +0.211 C 
ATOM      5  C   UNL     1       2.807   5.281  -6.367  0.00  0.00    +0.178 C 
ATOM      6  O   UNL     1       3.431   7.376  -5.654  0.00  0.00    -0.218 OA
ATOM      7  O   UNL     1       1.918   7.717  -8.528  0.00  0.00    -0.347 OA
ATOM      8  O   UNL     1       2.374   5.038  -7.686  0.00  0.00    -0.347 OA
ATOM      9  C   UNL     1       2.361   6.664  -9.227  0.00  0.00    +0.196 C 
ENDROOT
BRANCH   1  10
ATOM     10  O   UNL     1       1.160   4.767  -9.727  0.00  0.00    -0.199 OA
BRANCH  10  12
ATOM     11  O   UNL     1      -0.109   4.259 -10.638  0.00  0.00    +0.093 OA
ATOM     12  N   UNL     1       0.266   4.585 -10.780  0.00  0.00    +0.285 N 
ATOM     13  O   UNL     1       0.518   5.272 -11.945  0.00  0.00    -0.534 OA
ENDBRANCH  10  12
ENDBRANCH   1  10
TORSDOF 2
ENDMDL
MODEL 7
REMARK VINA RESULT:      -4.6      7.148      8.356
REMARK  Name = 
REMARK  2 active torsions:
REMARK  status: ('A' for Active; 'I' for Inactive)
REMARK    1  A    between atoms: N_2  and  O_4
REMARK    2  A    between atoms: O_4  and  C_5
REMARK                            x       y       z     vdW  Elec       q    Type
REMARK                         _______ _______ _______ _____ _____    ______ ____
ROOT
ATOM      1  C   UNL     1       7.232   6.115 -13.922  0.00  0.00    +0.307 C 
ATOM      2  C   UNL     1       8.017   6.764 -12.544  0.00  0.00    +0.195 C 
ATOM      3  C   UNL     1       8.050   5.260 -11.755  0.00  0.00    +0.179 C 
ATOM      4  C   UNL     1       6.821   5.661 -10.637  0.00  0.00    +0.211 C 
ATOM      5  C   UNL     1       7.354   7.209 -10.554  0.00  0.00    +0.178 C 
ATOM      6  O   UNL     1       7.692   5.198  -9.490  0.00  0.00    -0.218 OA
ATOM      7  O   UNL     1       7.070   4.564 -12.633  0.00  0.00    -0.347 OA
ATOM      8  O   UNL     1       6.803   7.286 -11.849  0.00  0.00    -0.347 OA
ATOM      9  C   UNL     1       6.113   5.451 -12.934  0.00  0.00    +0.196 C 
ENDROOT
BRANCH   1  10
ATOM     10  O   UNL     1       6.379   7.354 -14.200  0.00  0.00    -0.199 OA
BRANCH  10  12
ATOM     11  O   UNL     1       6.938   7.295 -15.744  0.00  0.00    +0.093 OA
ATOM     12  N   UNL     1       6.586   7.623 -15.552  0.00  0.00    +0.285 N 
ATOM     13  O   UNL     1       5.857   8.647 -16.109  0.00  0.00    -0.534 OA
ENDBRANCH  10  12
ENDBRANCH   1  10
TORSDOF 2
ENDMDL
MODEL 8
REMARK VINA RESULT:      -4.4      2.869      4.303
REMARK  Name = 
REMARK  2 active torsions:
REMARK  status: ('A' for Active; 'I' for Inactive)
REMARK    1  A    between atoms: N_2  and  O_4
REMARK    2  A    between atoms: O_4  and  C_5
REMARK                            x       y       z     vdW  Elec       q    Type
REMARK                         _______ _______ _______ _____ _____    ______ ____
ROOT
ATOM      1  C   UNL     1       1.343   5.760  -6.644  0.00  0.00    +0.307 C 
ATOM      2  C   UNL     1       2.415   4.519  -7.139  0.00  0.00    +0.195 C 
ATOM      3  C   UNL     1       3.784   5.497  -6.904  0.00  0.00    +0.179 C 
ATOM      4  C   UNL     1       4.072   5.738  -8.571  0.00  0.00    +0.211 C 
ATOM      5  C   UNL     1       3.581   4.212  -8.912  0.00  0.00    +0.178 C 
ATOM      6  O   UNL     1       5.519   5.336  -8.395  0.00  0.00    -0.218 OA
ATOM      7  O   UNL     1       3.071   6.800  -6.806  0.00  0.00    -0.347 OA
ATOM      8  O   UNL     1       2.309   4.739  -8.613  0.00  0.00    -0.347 OA
ATOM      9  C   UNL     1       2.073   6.771  -7.699  0.00  0.00    +0.196 C 
ENDROOT
BRANCH   1  10
ATOM     10  O   UNL     1       0.231   5.394  -7.629  0.00  0.00    -0.199 OA
BRANCH  10  12
ATOM     11  O   UNL     1      -1.291   5.066  -7.105  0.00  0.00    +0.093 OA
ATOM     12  N   UNL     1      -0.917   5.310  -6.844  0.00  0.00    +0.285 N 
ATOM     13  O   UNL     1      -0.857   5.854  -5.582  0.00  0.00    -0.534 OA
ENDBRANCH  10  12
ENDBRANCH   1  10
TORSDOF 2
ENDMDL
MODEL 9
REMARK VINA RESULT:      -4.4      4.039      5.735
REMARK  Name = 
REMARK  2 active torsions:
REMARK  status: ('A' for Active; 'I' for Inactive)
REMARK    1  A    between atoms: N_2  and  O_4
REMARK    2  A    between atoms: O_4  and  C_5
REMARK                            x       y       z     vdW  Elec       q    Type
REMARK                         _______ _______ _______ _____ _____    ______ ____
ROOT
ATOM      1  C   UNL     1       5.248   5.554 -10.429  0.00  0.00    +0.307 C 
ATOM      2  C   UNL     1       4.005   4.819  -9.508  0.00  0.00    +0.195 C 
ATOM      3  C   UNL     1       2.780   5.496 -10.472  0.00  0.00    +0.179 C 
ATOM      4  C   UNL     1       2.297   6.642  -9.301  0.00  0.00    +0.211 C 
ATOM      5  C   UNL     1       2.588   5.579  -8.088  0.00  0.00    +0.178 C 
ATOM      6  O   UNL     1       0.854   6.217  -9.457  0.00  0.00    -0.218 OA
ATOM      7  O   UNL     1       3.623   6.509 -11.164  0.00  0.00    -0.347 OA
ATOM      8  O   UNL     1       3.934   5.837  -8.418  0.00  0.00    -0.347 OA
ATOM      9  C   UNL     1       4.485   6.989 -10.258  0.00  0.00    +0.196 C 
ENDROOT
BRANCH   1  10
ATOM     10  O   UNL     1       6.178   5.809  -9.241  0.00  0.00    -0.199 OA
BRANCH  10  12
ATOM     11  O   UNL     1       7.726   5.302  -9.454  0.00  0.00    +0.093 OA
ATOM     12  N   UNL     1       7.460   5.627  -9.757  0.00  0.00    +0.285 N 
ATOM     13  O   UNL     1       7.772   6.296 -10.917  0.00  0.00    -0.534 OA
ENDBRANCH  10  12
ENDBRANCH   1  10
TORSDOF 2
ENDMDL
