MODEL 1
REMARK VINA RESULT:     -10.5      0.000      0.000
REMARK  Name = 
REMARK  7 active torsions:
REMARK  status: ('A' for Active; 'I' for Inactive)
REMARK    1  A    between atoms: N_10  and  C_11
REMARK    2  A    between atoms: N_14  and  C_15
REMARK    3  A    between atoms: C_15  and  C_16
REMARK    4  A    between atoms: C_16  and  C_17
REMARK    5  A    between atoms: C_17  and  C_18
REMARK    6  A    between atoms: C_18  and  C_19
REMARK    7  A    between atoms: C_18  and  C_26
REMARK                            x       y       z     vdW  Elec       q    Type
REMARK                         _______ _______ _______ _____ _____    ______ ____
ROOT
ATOM      1  C   UNL     1      -0.092   5.650  -9.805  0.00  0.00    +0.072 C 
ENDROOT
BRANCH   1   5
ATOM      2  C   UNL     1       3.537   6.276 -11.751  0.00  0.00    +0.093 C 
ATOM      3  C   UNL     1       3.485   5.292 -10.604  0.00  0.00    +0.040 C 
ATOM      4  C   UNL     1       2.302   5.710  -9.739  0.00  0.00    +0.074 C 
ATOM      5  N   UNL     1       1.120   5.579 -10.585  0.00  0.00    -0.273 NA
ATOM      6  C   UNL     1       1.128   6.588 -11.635  0.00  0.00    +0.074 C 
ATOM      7  C   UNL     1       2.281   6.285 -12.575  0.00  0.00    +0.040 C 
BRANCH   2  10
ATOM      8  O   UNL     1       3.952   4.133 -13.781  0.00  0.00    -0.244 OA
ATOM      9  C   UNL     1       4.916   5.064 -13.378  0.00  0.00    +0.350 A 
ATOM     10  N   UNL     1       4.735   6.102 -12.530  0.00  0.00    -0.280 N 
ATOM     11  C   UNL     1       5.965   6.404 -12.047  0.00  0.00    +0.082 A 
ATOM     12  C   UNL     1       6.882   5.712 -12.793  0.00  0.00    +0.102 A 
ATOM     13  C   UNL     1       8.226   5.794 -12.467  0.00  0.00    +0.021 A 
ATOM     14  C   UNL     1       8.615   6.270 -11.226  0.00  0.00    +0.002 A 
ATOM     15  C   UNL     1       7.692   6.891 -10.413  0.00  0.00    +0.002 A 
ATOM     16  C   UNL     1       6.426   7.101 -10.939  0.00  0.00    +0.019 A 
ATOM     17  N   UNL     1       6.228   4.881 -13.611  0.00  0.00    -0.191 NA
ENDBRANCH   2  10
ENDBRANCH   1   5
BRANCH   1  18
ATOM     18  C   UNL     1       0.164   5.040  -8.456  0.00  0.00    +0.018 C 
BRANCH  18  19
ATOM     19  C   UNL     1      -0.891   5.364  -7.441  0.00  0.00    +0.010 C 
BRANCH  19  20
ATOM     20  C   UNL     1      -0.467   6.348  -6.401  0.00  0.00    +0.045 C 
BRANCH  20  21
ATOM     21  C   UNL     1       0.934   6.201  -5.969  0.00  0.00    -0.018 A 
ATOM     22  C   UNL     1       1.938   7.093  -6.248  0.00  0.00    -0.002 A 
ATOM     23  C   UNL     1       3.250   6.786  -5.979  0.00  0.00    +0.029 A 
ATOM     24  C   UNL     1       3.582   5.600  -5.342  0.00  0.00    +0.140 A 
ATOM     25  F   UNL     1       4.847   5.102  -5.389  0.00  0.00    -0.204 F 
ATOM     26  C   UNL     1       2.552   4.901  -4.763  0.00  0.00    +0.029 A 
ATOM     27  C   UNL     1       1.237   5.196  -5.058  0.00  0.00    -0.002 A 
ENDBRANCH  20  21
BRANCH  20  28
ATOM     28  C   UNL     1      -1.323   6.396  -5.207  0.00  0.00    -0.018 A 
ATOM     29  C   UNL     1      -1.302   7.572  -4.465  0.00  0.00    -0.002 A 
ATOM     30  C   UNL     1      -2.187   7.801  -3.444  0.00  0.00    +0.029 A 
ATOM     31  C   UNL     1      -2.911   6.724  -2.962  0.00  0.00    +0.140 A 
ATOM     32  F   UNL     1      -3.545   6.855  -1.777  0.00  0.00    -0.204 F 
ATOM     33  C   UNL     1      -2.789   5.501  -3.611  0.00  0.00    +0.029 A 
ATOM     34  C   UNL     1      -2.345   5.525  -4.927  0.00  0.00    -0.002 A 
ENDBRANCH  20  28
ENDBRANCH  19  20
ENDBRANCH  18  19
ENDBRANCH   1  18
TORSDOF 7
ENDMDL
MODEL 2
REMARK VINA RESULT:     -10.1      0.778      3.951
REMARK  Name = 
REMARK  7 active torsions:
REMARK  status: ('A' for Active; 'I' for Inactive)
REMARK    1  A    between atoms: N_10  and  C_11
REMARK    2  A    between atoms: N_14  and  C_15
REMARK    3  A    between atoms: C_15  and  C_16
REMARK    4  A    between atoms: C_16  and  C_17
REMARK    5  A    between atoms: C_17  and  C_18
REMARK    6  A    between atoms: C_18  and  C_19
REMARK    7  A    between atoms: C_18  and  C_26
REMARK                            x       y       z     vdW  Elec       q    Type
REMARK                         _______ _______ _______ _____ _____    ______ ____
ROOT
ATOM      1  C   UNL     1       0.044   5.485  -9.490  0.00  0.00    +0.072 C 
ENDROOT
BRANCH   1   5
ATOM      2  C   UNL     1       3.542   6.278 -11.606  0.00  0.00    +0.093 C 
ATOM      3  C   UNL     1       3.559   5.195 -10.553  0.00  0.00    +0.040 C 
ATOM      4  C   UNL     1       2.439   5.534  -9.577  0.00  0.00    +0.074 C 
ATOM      5  N   UNL     1       1.202   5.483 -10.351  0.00  0.00    -0.273 NA
ATOM      6  C   UNL     1       1.149   6.583 -11.304  0.00  0.00    +0.074 C 
ATOM      7  C   UNL     1       2.235   6.364 -12.342  0.00  0.00    +0.040 C 
BRANCH   2  10
ATOM      8  O   UNL     1       3.765   4.399 -13.910  0.00  0.00    -0.244 OA
ATOM      9  C   UNL     1       4.781   5.247 -13.456  0.00  0.00    +0.350 A 
ATOM     10  N   UNL     1       4.685   6.174 -12.476  0.00  0.00    -0.280 N 
ATOM     11  C   UNL     1       5.951   6.381 -12.039  0.00  0.00    +0.082 A 
ATOM     12  C   UNL     1       6.799   5.766 -12.921  0.00  0.00    +0.102 A 
ATOM     13  C   UNL     1       8.162   5.773 -12.674  0.00  0.00    +0.021 A 
ATOM     14  C   UNL     1       8.640   6.078 -11.411  0.00  0.00    +0.002 A 
ATOM     15  C   UNL     1       7.788   6.615 -10.469  0.00  0.00    +0.002 A 
ATOM     16  C   UNL     1       6.501   6.921 -10.884  0.00  0.00    +0.019 A 
ATOM     17  N   UNL     1       6.070   5.062 -13.793  0.00  0.00    -0.191 NA
ENDBRANCH   2  10
ENDBRANCH   1   5
BRANCH   1  18
ATOM     18  C   UNL     1       0.462   5.035  -8.118  0.00  0.00    +0.018 C 
BRANCH  18  19
ATOM     19  C   UNL     1      -0.204   5.796  -7.009  0.00  0.00    +0.010 C 
BRANCH  19  20
ATOM     20  C   UNL     1       0.236   5.399  -5.638  0.00  0.00    +0.045 C 
BRANCH  20  21
ATOM     21  C   UNL     1      -0.628   5.908  -4.558  0.00  0.00    -0.018 A 
ATOM     22  C   UNL     1      -0.649   5.420  -3.276  0.00  0.00    -0.002 A 
ATOM     23  C   UNL     1      -1.618   5.816  -2.386  0.00  0.00    +0.029 A 
ATOM     24  C   UNL     1      -2.548   6.782  -2.738  0.00  0.00    +0.140 A 
ATOM     25  F   UNL     1      -3.711   6.929  -2.048  0.00  0.00    -0.204 F 
ATOM     26  C   UNL     1      -2.292   7.499  -3.880  0.00  0.00    +0.029 A 
ATOM     27  C   UNL     1      -1.336   7.081  -4.783  0.00  0.00    -0.002 A 
ENDBRANCH  20  21
BRANCH  20  28
ATOM     28  C   UNL     1       1.632   5.727  -5.316  0.00  0.00    -0.018 A 
ATOM     29  C   UNL     1       2.472   4.664  -5.004  0.00  0.00    -0.002 A 
ATOM     30  C   UNL     1       3.825   4.825  -4.866  0.00  0.00    +0.029 A 
ATOM     31  C   UNL     1       4.315   6.116  -4.747  0.00  0.00    +0.140 A 
ATOM     32  F   UNL     1       5.580   6.285  -4.307  0.00  0.00    -0.204 F 
ATOM     33  C   UNL     1       3.427   7.175  -4.889  0.00  0.00    +0.029 A 
ATOM     34  C   UNL     1       2.248   6.924  -5.581  0.00  0.00    -0.002 A 
ENDBRANCH  20  28
ENDBRANCH  19  20
ENDBRANCH  18  19
ENDBRANCH   1  18
TORSDOF 7
ENDMDL
MODEL 3
REMARK VINA RESULT:      -9.8      4.697      8.445
REMARK  Name = 
REMARK  7 active torsions:
REMARK  status: ('A' for Active; 'I' for Inactive)
REMARK    1  A    between atoms: N_10  and  C_11
REMARK    2  A    between atoms: N_14  and  C_15
REMARK    3  A    between atoms: C_15  and  C_16
REMARK    4  A    between atoms: C_16  and  C_17
REMARK    5  A    between atoms: C_17  and  C_18
REMARK    6  A    between atoms: C_18  and  C_19
REMARK    7  A    between atoms: C_18  and  C_26
REMARK                            x       y       z     vdW  Elec       q    Type
REMARK                         _______ _______ _______ _____ _____    ______ ____
ROOT
ATOM      1  C   UNL     1       4.666   5.553  -6.574  0.00  0.00    +0.072 C 
ENDROOT
BRANCH   1   5
ATOM      2  C   UNL     1       3.723   6.386  -2.604  0.00  0.00    +0.093 C 
ATOM      3  C   UNL     1       3.086   7.218  -3.693  0.00  0.00    +0.040 C 
ATOM      4  C   UNL     1       4.022   7.135  -4.893  0.00  0.00    +0.074 C 
ATOM      5  N   UNL     1       4.062   5.727  -5.275  0.00  0.00    -0.273 NA
ATOM      6  C   UNL     1       4.756   4.942  -4.264  0.00  0.00    +0.074 C 
ATOM      7  C   UNL     1       3.918   4.950  -2.998  0.00  0.00    +0.040 C 
BRANCH   2  10
ATOM      8  O   UNL     1       1.191   4.995  -1.868  0.00  0.00    -0.244 OA
ATOM      9  C   UNL     1       1.835   5.966  -1.094  0.00  0.00    +0.350 A 
ATOM     10  N   UNL     1       3.028   6.550  -1.353  0.00  0.00    -0.280 N 
ATOM     11  C   UNL     1       3.021   7.722  -0.674  0.00  0.00    +0.082 A 
ATOM     12  C   UNL     1       1.940   7.707   0.167  0.00  0.00    +0.102 A 
ATOM     13  C   UNL     1       1.662   8.822   0.941  0.00  0.00    +0.021 A 
ATOM     14  C   UNL     1       2.235  10.045   0.632  0.00  0.00    +0.002 A 
ATOM     15  C   UNL     1       3.266  10.105  -0.280  0.00  0.00    +0.002 A 
ATOM     16  C   UNL     1       3.749   8.901  -0.768  0.00  0.00    +0.019 A 
ATOM     17  N   UNL     1       1.207   6.621  -0.100  0.00  0.00    -0.191 NA
ENDBRANCH   2  10
ENDBRANCH   1   5
BRANCH   1  18
ATOM     18  C   UNL     1       3.599   5.152  -7.553  0.00  0.00    +0.018 C 
BRANCH  18  19
ATOM     19  C   UNL     1       2.387   6.035  -7.515  0.00  0.00    +0.010 C 
BRANCH  19  20
ATOM     20  C   UNL     1       1.105   5.340  -7.842  0.00  0.00    +0.045 C 
BRANCH  20  21
ATOM     21  C   UNL     1       0.678   5.494  -9.243  0.00  0.00    -0.018 A 
ATOM     22  C   UNL     1       0.255   4.470 -10.051  0.00  0.00    -0.002 A 
ATOM     23  C   UNL     1       0.062   4.666 -11.397  0.00  0.00    +0.029 A 
ATOM     24  C   UNL     1       0.210   5.925 -11.956  0.00  0.00    +0.140 A 
ATOM     25  F   UNL     1       0.388   6.089 -13.295  0.00  0.00    -0.204 F 
ATOM     26  C   UNL     1       0.283   6.983 -11.084  0.00  0.00    +0.029 A 
ATOM     27  C   UNL     1       0.504   6.781  -9.737  0.00  0.00    -0.002 A 
ENDBRANCH  20  21
BRANCH  20  28
ATOM     28  C   UNL     1      -0.025   5.680  -6.966  0.00  0.00    -0.018 A 
ATOM     29  C   UNL     1       0.224   6.589  -5.943  0.00  0.00    -0.002 A 
ATOM     30  C   UNL     1      -0.784   7.118  -5.183  0.00  0.00    +0.029 A 
ATOM     31  C   UNL     1      -2.029   6.513  -5.245  0.00  0.00    +0.140 A 
ATOM     32  F   UNL     1      -2.937   6.812  -4.293  0.00  0.00    -0.204 F 
ATOM     33  C   UNL     1      -2.217   5.481  -6.156  0.00  0.00    +0.029 A 
ATOM     34  C   UNL     1      -1.345   5.425  -7.238  0.00  0.00    -0.002 A 
ENDBRANCH  20  28
ENDBRANCH  19  20
ENDBRANCH  18  19
ENDBRANCH   1  18
TORSDOF 7
ENDMDL
MODEL 4
REMARK VINA RESULT:      -9.7      1.988      4.462
REMARK  Name = 
REMARK  7 active torsions:
REMARK  status: ('A' for Active; 'I' for Inactive)
REMARK    1  A    between atoms: N_10  and  C_11
REMARK    2  A    between atoms: N_14  and  C_15
REMARK    3  A    between atoms: C_15  and  C_16
REMARK    4  A    between atoms: C_16  and  C_17
REMARK    5  A    between atoms: C_17  and  C_18
REMARK    6  A    between atoms: C_18  and  C_19
REMARK    7  A    between atoms: C_18  and  C_26
REMARK                            x       y       z     vdW  Elec       q    Type
REMARK                         _______ _______ _______ _____ _____    ______ ____
ROOT
ATOM      1  C   UNL     1      -0.287   5.721  -8.702  0.00  0.00    +0.072 C 
ENDROOT
BRANCH   1   5
ATOM      2  C   UNL     1       3.660   5.165  -9.908  0.00  0.00    +0.093 C 
ATOM      3  C   UNL     1       3.168   6.571  -9.653  0.00  0.00    +0.040 C 
ATOM      4  C   UNL     1       1.657   6.533  -9.844  0.00  0.00    +0.074 C 
ATOM      5  N   UNL     1       1.146   5.616  -8.830  0.00  0.00    -0.273 NA
ATOM      6  C   UNL     1       1.547   4.248  -9.128  0.00  0.00    +0.074 C 
ATOM      7  C   UNL     1       3.055   4.152  -8.978  0.00  0.00    +0.040 C 
BRANCH   2  10
ATOM      8  O   UNL     1       5.454   5.791  -7.610  0.00  0.00    -0.244 OA
ATOM      9  C   UNL     1       5.877   5.495  -8.910  0.00  0.00    +0.350 A 
ATOM     10  N   UNL     1       5.099   5.118  -9.951  0.00  0.00    -0.280 N 
ATOM     11  C   UNL     1       5.802   5.423 -11.068  0.00  0.00    +0.082 A 
ATOM     12  C   UNL     1       7.075   5.745 -10.680  0.00  0.00    +0.102 A 
ATOM     13  C   UNL     1       7.994   6.159 -11.631  0.00  0.00    +0.021 A 
ATOM     14  C   UNL     1       7.564   6.577 -12.880  0.00  0.00    +0.002 A 
ATOM     15  C   UNL     1       6.261   6.348 -13.265  0.00  0.00    +0.002 A 
ATOM     16  C   UNL     1       5.468   5.606 -12.403  0.00  0.00    +0.019 A 
ATOM     17  N   UNL     1       7.115   5.793  -9.344  0.00  0.00    -0.191 NA
ENDBRANCH   2  10
ENDBRANCH   1   5
BRANCH   1  18
ATOM     18  C   UNL     1      -0.691   5.206  -7.350  0.00  0.00    +0.018 C 
BRANCH  18  19
ATOM     19  C   UNL     1      -0.467   6.192  -6.241  0.00  0.00    +0.010 C 
BRANCH  19  20
ATOM     20  C   UNL     1      -0.053   5.579  -4.943  0.00  0.00    +0.045 C 
BRANCH  20  21
ATOM     21  C   UNL     1      -0.814   6.064  -3.778  0.00  0.00    -0.018 A 
ATOM     22  C   UNL     1      -1.761   7.055  -3.819  0.00  0.00    -0.002 A 
ATOM     23  C   UNL     1      -2.280   7.583  -2.662  0.00  0.00    +0.029 A 
ATOM     24  C   UNL     1      -1.920   7.068  -1.426  0.00  0.00    +0.140 A 
ATOM     25  F   UNL     1      -2.114   7.775  -0.281  0.00  0.00    -0.204 F 
ATOM     26  C   UNL     1      -1.258   5.865  -1.428  0.00  0.00    +0.029 A 
ATOM     27  C   UNL     1      -0.715   5.354  -2.589  0.00  0.00    -0.002 A 
ENDBRANCH  20  21
BRANCH  20  28
ATOM     28  C   UNL     1       1.382   5.680  -4.641  0.00  0.00    -0.018 A 
ATOM     29  C   UNL     1       2.192   4.641  -5.086  0.00  0.00    -0.002 A 
ATOM     30  C   UNL     1       3.559   4.710  -5.025  0.00  0.00    +0.029 A 
ATOM     31  C   UNL     1       4.123   5.702  -4.240  0.00  0.00    +0.140 A 
ATOM     32  F   UNL     1       5.430   5.603  -3.920  0.00  0.00    -0.204 F 
ATOM     33  C   UNL     1       3.280   6.640  -3.654  0.00  0.00    +0.029 A 
ATOM     34  C   UNL     1       2.030   6.818  -4.235  0.00  0.00    -0.002 A 
ENDBRANCH  20  28
ENDBRANCH  19  20
ENDBRANCH  18  19
ENDBRANCH   1  18
TORSDOF 7
ENDMDL
MODEL 5
REMARK VINA RESULT:      -9.6      3.471      8.984
REMARK  Name = 
REMARK  7 active torsions:
REMARK  status: ('A' for Active; 'I' for Inactive)
REMARK    1  A    between atoms: N_10  and  C_11
REMARK    2  A    between atoms: N_14  and  C_15
REMARK    3  A    between atoms: C_15  and  C_16
REMARK    4  A    between atoms: C_16  and  C_17
REMARK    5  A    between atoms: C_17  and  C_18
REMARK    6  A    between atoms: C_18  and  C_19
REMARK    7  A    between atoms: C_18  and  C_26
REMARK                            x       y       z     vdW  Elec       q    Type
REMARK                         _______ _______ _______ _____ _____    ______ ____
ROOT
ATOM      1  C   UNL     1       4.586   5.941  -6.119  0.00  0.00    +0.072 C 
ENDROOT
BRANCH   1   5
ATOM      2  C   UNL     1       0.762   5.292  -4.603  0.00  0.00    +0.093 C 
ATOM      3  C   UNL     1       1.283   6.708  -4.681  0.00  0.00    +0.040 C 
ATOM      4  C   UNL     1       2.803   6.603  -4.661  0.00  0.00    +0.074 C 
ATOM      5  N   UNL     1       3.170   5.851  -5.858  0.00  0.00    -0.273 NA
ATOM      6  C   UNL     1       2.745   4.463  -5.739  0.00  0.00    +0.074 C 
ATOM      7  C   UNL     1       1.227   4.429  -5.742  0.00  0.00    +0.040 C 
BRANCH   2  10
ATOM      8  O   UNL     1      -1.242   5.990  -6.697  0.00  0.00    -0.244 OA
ATOM      9  C   UNL     1      -1.537   5.683  -5.365  0.00  0.00    +0.350 A 
ATOM     10  N   UNL     1      -0.666   5.274  -4.414  0.00  0.00    -0.280 N 
ATOM     11  C   UNL     1      -1.245   5.576  -3.227  0.00  0.00    +0.082 A 
ATOM     12  C   UNL     1      -2.544   5.930  -3.479  0.00  0.00    +0.102 A 
ATOM     13  C   UNL     1      -3.352   6.348  -2.434  0.00  0.00    +0.021 A 
ATOM     14  C   UNL     1      -2.789   6.737  -1.230  0.00  0.00    +0.002 A 
ATOM     15  C   UNL     1      -1.458   6.476  -0.982  0.00  0.00    +0.002 A 
ATOM     16  C   UNL     1      -0.773   5.731  -1.930  0.00  0.00    +0.019 A 
ATOM     17  N   UNL     1      -2.718   5.999  -4.803  0.00  0.00    -0.191 NA
ENDBRANCH   2  10
ENDBRANCH   1   5
BRANCH   1  18
ATOM     18  C   UNL     1       4.946   4.939  -7.179  0.00  0.00    +0.018 C 
BRANCH  18  19
ATOM     19  C   UNL     1       5.470   5.561  -8.440  0.00  0.00    +0.010 C 
BRANCH  19  20
ATOM     20  C   UNL     1       4.729   5.170  -9.677  0.00  0.00    +0.045 C 
BRANCH  20  21
ATOM     21  C   UNL     1       5.345   5.651 -10.925  0.00  0.00    -0.018 A 
ATOM     22  C   UNL     1       4.994   5.233 -12.183  0.00  0.00    -0.002 A 
ATOM     23  C   UNL     1       5.747   5.582 -13.279  0.00  0.00    +0.029 A 
ATOM     24  C   UNL     1       6.832   6.435 -13.148  0.00  0.00    +0.140 A 
ATOM     25  F   UNL     1       7.794   6.508 -14.106  0.00  0.00    -0.204 F 
ATOM     26  C   UNL     1       6.946   7.111 -11.958  0.00  0.00    +0.029 A 
ATOM     27  C   UNL     1       6.207   6.738 -10.855  0.00  0.00    -0.002 A 
ENDBRANCH  20  21
BRANCH  20  28
ATOM     28  C   UNL     1       3.305   5.533  -9.686  0.00  0.00    -0.018 A 
ATOM     29  C   UNL     1       2.389   4.486  -9.680  0.00  0.00    -0.002 A 
ATOM     30  C   UNL     1       1.047   4.698  -9.505  0.00  0.00    +0.029 A 
ATOM     31  C   UNL     1       0.574   5.994  -9.631  0.00  0.00    +0.140 A 
ATOM     32  F   UNL     1      -0.756   6.182  -9.770  0.00  0.00    -0.204 F 
ATOM     33  C   UNL     1       1.494   7.019  -9.812  0.00  0.00    +0.029 A 
ATOM     34  C   UNL     1       2.800   6.777  -9.401  0.00  0.00    -0.002 A 
ENDBRANCH  20  28
ENDBRANCH  19  20
ENDBRANCH  18  19
ENDBRANCH   1  18
TORSDOF 7
ENDMDL
MODEL 6
REMARK VINA RESULT:      -9.6      4.129      9.605
REMARK  Name = 
REMARK  7 active torsions:
REMARK  status: ('A' for Active; 'I' for Inactive)
REMARK    1  A    between atoms: N_10  and  C_11
REMARK    2  A    between atoms: N_14  and  C_15
REMARK    3  A    between atoms: C_15  and  C_16
REMARK    4  A    between atoms: C_16  and  C_17
REMARK    5  A    between atoms: C_17  and  C_18
REMARK    6  A    between atoms: C_18  and  C_19
REMARK    7  A    between atoms: C_18  and  C_26
REMARK                            x       y       z     vdW  Elec       q    Type
REMARK                         _______ _______ _______ _____ _____    ______ ____
ROOT
ATOM      1  C   UNL     1       4.919   5.641  -6.616  0.00  0.00    +0.072 C 
ENDROOT
BRANCH   1   5
ATOM      2  C   UNL     1       1.583   5.681  -4.124  0.00  0.00    +0.093 C 
ATOM      3  C   UNL     1       2.087   6.990  -4.687  0.00  0.00    +0.040 C 
ATOM      4  C   UNL     1       3.563   6.777  -5.000  0.00  0.00    +0.074 C 
ATOM      5  N   UNL     1       3.611   5.727  -6.013  0.00  0.00    -0.273 NA
ATOM      6  C   UNL     1       3.211   4.448  -5.443  0.00  0.00    +0.074 C 
ATOM      7  C   UNL     1       1.740   4.531  -5.078  0.00  0.00    +0.040 C 
BRANCH   2  10
ATOM      8  O   UNL     1       0.653   4.607  -1.503  0.00  0.00    -0.244 OA
ATOM      9  C   UNL     1      -0.157   5.241  -2.451  0.00  0.00    +0.350 A 
ATOM     10  N   UNL     1       0.246   5.819  -3.605  0.00  0.00    -0.280 N 
ATOM     11  C   UNL     1      -0.845   5.842  -4.409  0.00  0.00    +0.082 A 
ATOM     12  C   UNL     1      -1.929   5.507  -3.642  0.00  0.00    +0.102 A 
ATOM     13  C   UNL     1      -3.176   5.396  -4.236  0.00  0.00    +0.021 A 
ATOM     14  C   UNL     1      -3.285   5.278  -5.612  0.00  0.00    +0.002 A 
ATOM     15  C   UNL     1      -2.185   5.520  -6.407  0.00  0.00    +0.002 A 
ATOM     16  C   UNL     1      -1.038   5.978  -5.777  0.00  0.00    +0.019 A 
ATOM     17  N   UNL     1      -1.498   5.132  -2.433  0.00  0.00    -0.191 NA
ENDBRANCH   2  10
ENDBRANCH   1   5
BRANCH   1  18
ATOM     18  C   UNL     1       4.760   5.583  -8.109  0.00  0.00    +0.018 C 
BRANCH  18  19
ATOM     19  C   UNL     1       3.395   5.986  -8.582  0.00  0.00    +0.010 C 
BRANCH  19  20
ATOM     20  C   UNL     1       3.363   6.554  -9.964  0.00  0.00    +0.045 C 
BRANCH  20  21
ATOM     21  C   UNL     1       2.289   6.009 -10.814  0.00  0.00    -0.018 A 
ATOM     22  C   UNL     1       1.288   5.181 -10.376  0.00  0.00    -0.002 A 
ATOM     23  C   UNL     1       0.444   4.562 -11.266  0.00  0.00    +0.029 A 
ATOM     24  C   UNL     1       0.532   4.826 -12.624  0.00  0.00    +0.140 A 
ATOM     25  F   UNL     1      -0.014   3.987 -13.545  0.00  0.00    -0.204 F 
ATOM     26  C   UNL     1       1.291   5.909 -12.994  0.00  0.00    +0.029 A 
ATOM     27  C   UNL     1       2.156   6.508 -12.103  0.00  0.00    -0.002 A 
ENDBRANCH  20  21
BRANCH  20  28
ATOM     28  C   UNL     1       4.632   6.466 -10.699  0.00  0.00    -0.018 A 
ATOM     29  C   UNL     1       5.413   7.616 -10.745  0.00  0.00    -0.002 A 
ATOM     30  C   UNL     1       6.690   7.605 -11.240  0.00  0.00    +0.029 A 
ATOM     31  C   UNL     1       7.093   6.500 -11.971  0.00  0.00    +0.140 A 
ATOM     32  F   UNL     1       8.213   6.596 -12.718  0.00  0.00    -0.204 F 
ATOM     33  C   UNL     1       6.226   5.417 -12.064  0.00  0.00    +0.029 A 
ATOM     34  C   UNL     1       5.250   5.302 -11.080  0.00  0.00    -0.002 A 
ENDBRANCH  20  28
ENDBRANCH  19  20
ENDBRANCH  18  19
ENDBRANCH   1  18
TORSDOF 7
ENDMDL
MODEL 7
REMARK VINA RESULT:      -9.5      1.477      1.921
REMARK  Name = 
REMARK  7 active torsions:
REMARK  status: ('A' for Active; 'I' for Inactive)
REMARK    1  A    between atoms: N_10  and  C_11
REMARK    2  A    between atoms: N_14  and  C_15
REMARK    3  A    between atoms: C_15  and  C_16
REMARK    4  A    between atoms: C_16  and  C_17
REMARK    5  A    between atoms: C_17  and  C_18
REMARK    6  A    between atoms: C_18  and  C_19
REMARK    7  A    between atoms: C_18  and  C_26
REMARK                            x       y       z     vdW  Elec       q    Type
REMARK                         _______ _______ _______ _____ _____    ______ ____
ROOT
ATOM      1  C   UNL     1      -0.006   5.493  -8.570  0.00  0.00    +0.072 C 
ENDROOT
BRANCH   1   5
ATOM      2  C   UNL     1       3.236   5.336 -11.180  0.00  0.00    +0.093 C 
ATOM      3  C   UNL     1       2.331   6.546 -11.215  0.00  0.00    +0.040 C 
ATOM      4  C   UNL     1       0.984   6.085 -10.670  0.00  0.00    +0.074 C 
ATOM      5  N   UNL     1       1.230   5.664  -9.294  0.00  0.00    -0.273 NA
ATOM      6  C   UNL     1       2.027   4.446  -9.267  0.00  0.00    +0.074 C 
ATOM      7  C   UNL     1       3.411   4.773  -9.798  0.00  0.00    +0.040 C 
BRANCH   2  10
ATOM      8  O   UNL     1       3.973   4.272 -13.866  0.00  0.00    -0.244 OA
ATOM      9  C   UNL     1       4.810   5.025 -13.036  0.00  0.00    +0.350 A 
ATOM     10  N   UNL     1       4.480   5.599 -11.856  0.00  0.00    -0.280 N 
ATOM     11  C   UNL     1       5.646   5.770 -11.189  0.00  0.00    +0.082 A 
ATOM     12  C   UNL     1       6.666   5.526 -12.070  0.00  0.00    +0.102 A 
ATOM     13  C   UNL     1       7.978   5.573 -11.625  0.00  0.00    +0.021 A 
ATOM     14  C   UNL     1       8.256   5.520 -10.269  0.00  0.00    +0.002 A 
ATOM     15  C   UNL     1       7.235   5.672  -9.356  0.00  0.00    +0.002 A 
ATOM     16  C   UNL     1       5.979   5.978  -9.857  0.00  0.00    +0.019 A 
ATOM     17  N   UNL     1       6.144   5.061 -13.209  0.00  0.00    -0.191 NA
ENDBRANCH   2  10
ENDBRANCH   1   5
BRANCH   1  18
ATOM     18  C   UNL     1       0.282   5.564  -7.098  0.00  0.00    +0.018 C 
BRANCH  18  19
ATOM     19  C   UNL     1       1.215   6.677  -6.723  0.00  0.00    +0.010 C 
BRANCH  19  20
ATOM     20  C   UNL     1       1.178   7.054  -5.277  0.00  0.00    +0.045 C 
BRANCH  20  21
ATOM     21  C   UNL     1       2.262   6.462  -4.473  0.00  0.00    -0.018 A 
ATOM     22  C   UNL     1       3.039   5.402  -4.865  0.00  0.00    -0.002 A 
ATOM     23  C   UNL     1       3.892   4.787  -3.981  0.00  0.00    +0.029 A 
ATOM     24  C   UNL     1       4.049   5.276  -2.694  0.00  0.00    +0.140 A 
ATOM     25  F   UNL     1       4.579   4.508  -1.704  0.00  0.00    -0.204 F 
ATOM     26  C   UNL     1       3.539   6.526  -2.442  0.00  0.00    +0.029 A 
ATOM     27  C   UNL     1       2.661   7.127  -3.321  0.00  0.00    -0.002 A 
ENDBRANCH  20  21
BRANCH  20  28
ATOM     28  C   UNL     1      -0.101   6.795  -4.603  0.00  0.00    -0.018 A 
ATOM     29  C   UNL     1      -1.118   7.723  -4.804  0.00  0.00    -0.002 A 
ATOM     30  C   UNL     1      -2.400   7.498  -4.379  0.00  0.00    +0.029 A 
ATOM     31  C   UNL     1      -2.613   6.464  -3.482  0.00  0.00    +0.140 A 
ATOM     32  F   UNL     1      -3.790   6.418  -2.822  0.00  0.00    -0.204 F 
ATOM     33  C   UNL     1      -1.541   5.643  -3.153  0.00  0.00    +0.029 A 
ATOM     34  C   UNL     1      -0.480   5.598  -4.050  0.00  0.00    -0.002 A 
ENDBRANCH  20  28
ENDBRANCH  19  20
ENDBRANCH  18  19
ENDBRANCH   1  18
TORSDOF 7
ENDMDL
MODEL 8
REMARK VINA RESULT:      -9.4      4.183      9.499
REMARK  Name = 
REMARK  7 active torsions:
REMARK  status: ('A' for Active; 'I' for Inactive)
REMARK    1  A    between atoms: N_10  and  C_11
REMARK    2  A    between atoms: N_14  and  C_15
REMARK    3  A    between atoms: C_15  and  C_16
REMARK    4  A    between atoms: C_16  and  C_17
REMARK    5  A    between atoms: C_17  and  C_18
REMARK    6  A    between atoms: C_18  and  C_19
REMARK    7  A    between atoms: C_18  and  C_26
REMARK                            x       y       z     vdW  Elec       q    Type
REMARK                         _______ _______ _______ _____ _____    ______ ____
ROOT
ATOM      1  C   UNL     1       4.128   5.574  -7.343  0.00  0.00    +0.072 C 
ENDROOT
BRANCH   1   5
ATOM      2  C   UNL     1       1.772   5.544  -3.909  0.00  0.00    +0.093 C 
ATOM      3  C   UNL     1       2.443   6.834  -4.320  0.00  0.00    +0.040 C 
ATOM      4  C   UNL     1       3.652   6.436  -5.159  0.00  0.00    +0.074 C 
ATOM      5  N   UNL     1       3.120   5.736  -6.324  0.00  0.00    -0.273 NA
ATOM      6  C   UNL     1       2.554   4.452  -5.936  0.00  0.00    +0.074 C 
ATOM      7  C   UNL     1       1.328   4.713  -5.080  0.00  0.00    +0.040 C 
BRANCH   2  10
ATOM      8  O   UNL     1       1.778   4.542  -1.101  0.00  0.00    -0.244 OA
ATOM      9  C   UNL     1       0.728   5.239  -1.710  0.00  0.00    +0.350 A 
ATOM     10  N   UNL     1       0.728   5.786  -2.947  0.00  0.00    -0.280 N 
ATOM     11  C   UNL     1      -0.575   5.896  -3.302  0.00  0.00    +0.082 A 
ATOM     12  C   UNL     1      -1.330   5.646  -2.187  0.00  0.00    +0.102 A 
ATOM     13  C   UNL     1      -2.712   5.634  -2.288  0.00  0.00    +0.021 A 
ATOM     14  C   UNL     1      -3.320   5.528  -3.528  0.00  0.00    +0.002 A 
ATOM     15  C   UNL     1      -2.568   5.684  -4.672  0.00  0.00    +0.002 A 
ATOM     16  C   UNL     1      -1.240   6.050  -4.511  0.00  0.00    +0.019 A 
ATOM     17  N   UNL     1      -0.519   5.235  -1.206  0.00  0.00    -0.191 NA
ENDBRANCH   2  10
ENDBRANCH   1   5
BRANCH   1  18
ATOM     18  C   UNL     1       3.504   4.916  -8.541  0.00  0.00    +0.018 C 
BRANCH  18  19
ATOM     19  C   UNL     1       2.925   5.889  -9.525  0.00  0.00    +0.010 C 
BRANCH  19  20
ATOM     20  C   UNL     1       3.217   5.570 -10.955  0.00  0.00    +0.045 C 
BRANCH  20  21
ATOM     21  C   UNL     1       4.578   5.933 -11.387  0.00  0.00    -0.018 A 
ATOM     22  C   UNL     1       5.338   5.211 -12.271  0.00  0.00    -0.002 A 
ATOM     23  C   UNL     1       6.665   5.509 -12.470  0.00  0.00    +0.029 A 
ATOM     24  C   UNL     1       7.245   6.601 -11.842  0.00  0.00    +0.140 A 
ATOM     25  F   UNL     1       8.595   6.711 -11.720  0.00  0.00    -0.204 F 
ATOM     26  C   UNL     1       6.391   7.500 -11.253  0.00  0.00    +0.029 A 
ATOM     27  C   UNL     1       5.067   7.184 -11.032  0.00  0.00    -0.002 A 
ENDBRANCH  20  21
BRANCH  20  28
ATOM     28  C   UNL     1       2.256   6.120 -11.921  0.00  0.00    -0.018 A 
ATOM     29  C   UNL     1       2.460   5.804 -13.260  0.00  0.00    -0.002 A 
ATOM     30  C   UNL     1       1.535   6.104 -14.225  0.00  0.00    +0.029 A 
ATOM     31  C   UNL     1       0.525   6.995 -13.899  0.00  0.00    +0.140 A 
ATOM     32  F   UNL     1      -0.201   7.537 -14.899  0.00  0.00    -0.204 F 
ATOM     33  C   UNL     1       0.437   7.442 -12.586  0.00  0.00    +0.029 A 
ATOM     34  C   UNL     1       1.033   6.655 -11.608  0.00  0.00    -0.002 A 
ENDBRANCH  20  28
ENDBRANCH  19  20
ENDBRANCH  18  19
ENDBRANCH   1  18
TORSDOF 7
ENDMDL
MODEL 9
REMARK VINA RESULT:      -9.4      1.994      2.653
REMARK  Name = 
REMARK  7 active torsions:
REMARK  status: ('A' for Active; 'I' for Inactive)
REMARK    1  A    between atoms: N_10  and  C_11
REMARK    2  A    between atoms: N_14  and  C_15
REMARK    3  A    between atoms: C_15  and  C_16
REMARK    4  A    between atoms: C_16  and  C_17
REMARK    5  A    between atoms: C_17  and  C_18
REMARK    6  A    between atoms: C_18  and  C_19
REMARK    7  A    between atoms: C_18  and  C_26
REMARK                            x       y       z     vdW  Elec       q    Type
REMARK                         _______ _______ _______ _____ _____    ______ ____
ROOT
ATOM      1  C   UNL     1       0.598   5.939  -7.907  0.00  0.00    +0.072 C 
ENDROOT
BRANCH   1   5
ATOM      2  C   UNL     1       3.973   5.301 -10.262  0.00  0.00    +0.093 C 
ATOM      3  C   UNL     1       3.655   6.708  -9.812  0.00  0.00    +0.040 C 
ATOM      4  C   UNL     1       2.155   6.739  -9.543  0.00  0.00    +0.074 C 
ATOM      5  N   UNL     1       1.920   5.786  -8.463  0.00  0.00    -0.273 NA
ATOM      6  C   UNL     1       2.141   4.423  -8.926  0.00  0.00    +0.074 C 
ATOM      7  C   UNL     1       3.618   4.261  -9.238  0.00  0.00    +0.040 C 
BRANCH   2  10
ATOM      8  O   UNL     1       6.394   5.935  -8.641  0.00  0.00    -0.244 OA
ATOM      9  C   UNL     1       6.396   5.584  -9.995  0.00  0.00    +0.350 A 
ATOM     10  N   UNL     1       5.330   5.202 -10.736  0.00  0.00    -0.280 N 
ATOM     11  C   UNL     1       5.668   5.447 -12.025  0.00  0.00    +0.082 A 
ATOM     12  C   UNL     1       7.006   5.735 -12.053  0.00  0.00    +0.102 A 
ATOM     13  C   UNL     1       7.603   6.086 -13.253  0.00  0.00    +0.021 A 
ATOM     14  C   UNL     1       6.825   6.479 -14.330  0.00  0.00    +0.002 A 
ATOM     15  C   UNL     1       5.461   6.285 -14.294  0.00  0.00    +0.002 A 
ATOM     16  C   UNL     1       4.949   5.599 -13.203  0.00  0.00    +0.019 A 
ATOM     17  N   UNL     1       7.451   5.823 -10.795  0.00  0.00    -0.191 NA
ENDBRANCH   2  10
ENDBRANCH   1   5
BRANCH   1  18
ATOM     18  C   UNL     1       0.281   4.731  -7.072  0.00  0.00    +0.018 C 
BRANCH  18  19
ATOM     19  C   UNL     1       1.032   4.687  -5.773  0.00  0.00    +0.010 C 
BRANCH  19  20
ATOM     20  C   UNL     1       1.133   6.003  -5.074  0.00  0.00    +0.045 C 
BRANCH  20  21
ATOM     21  C   UNL     1       2.465   6.283  -4.509  0.00  0.00    -0.018 A 
ATOM     22  C   UNL     1       2.750   7.311  -3.647  0.00  0.00    -0.002 A 
ATOM     23  C   UNL     1       4.048   7.621  -3.322  0.00  0.00    +0.029 A 
ATOM     24  C   UNL     1       5.098   6.849  -3.795  0.00  0.00    +0.140 A 
ATOM     25  F   UNL     1       6.374   7.320  -3.806  0.00  0.00    -0.204 F 
ATOM     26  C   UNL     1       4.772   5.638  -4.353  0.00  0.00    +0.029 A 
ATOM     27  C   UNL     1       3.470   5.344  -4.702  0.00  0.00    -0.002 A 
ENDBRANCH  20  21
BRANCH  20  28
ATOM     28  C   UNL     1       0.124   6.229  -4.030  0.00  0.00    -0.018 A 
ATOM     29  C   UNL     1      -0.878   7.151  -4.313  0.00  0.00    -0.002 A 
ATOM     30  C   UNL     1      -1.968   7.310  -3.498  0.00  0.00    +0.029 A 
ATOM     31  C   UNL     1      -1.916   6.754  -2.231  0.00  0.00    +0.140 A 
ATOM     32  F   UNL     1      -2.825   7.152  -1.317  0.00  0.00    -0.204 F 
ATOM     33  C   UNL     1      -0.817   5.971  -1.897  0.00  0.00    +0.029 A 
ATOM     34  C   UNL     1      -0.093   5.416  -2.946  0.00  0.00    -0.002 A 
ENDBRANCH  20  28
ENDBRANCH  19  20
ENDBRANCH  18  19
ENDBRANCH   1  18
TORSDOF 7
ENDMDL
