MODEL 1
REMARK VINA RESULT:      -9.1      0.000      0.000
REMARK  Name = 
REMARK  7 active torsions:
REMARK  status: ('A' for Active; 'I' for Inactive)
REMARK    1  A    between atoms: C_2  and  C_4
REMARK    2  A    between atoms: C_2  and  C_15
REMARK    3  A    between atoms: C_4  and  S_5
REMARK    4  A    between atoms: S_5  and  C_8
REMARK    5  A    between atoms: N_17  and  C_18
REMARK    6  A    between atoms: C_21  and  C_22
REMARK    7  A    between atoms: C_24  and  C_25
REMARK                            x       y       z     vdW  Elec       q    Type
REMARK                         _______ _______ _______ _____ _____    ______ ____
ROOT
ATOM      1  C   UNL     1       2.897   5.429  -7.400  0.00  0.00    +0.275 C 
ATOM      2  N   UNL     1       2.982   6.250  -8.570  0.00  0.00    -0.177 NA
ATOM      3  O   UNL     1       2.838   4.197  -7.590  0.00  0.00    -0.270 OA
ENDROOT
BRANCH   2   4
ATOM      4  C   UNL     1       3.942   5.889  -9.571  0.00  0.00    +0.073 A 
ATOM      5  C   UNL     1       5.283   6.064  -9.350  0.00  0.00    +0.021 A 
ATOM      6  C   UNL     1       6.127   6.039 -10.444  0.00  0.00    +0.082 A 
ATOM      7  C   UNL     1       5.635   5.698 -11.680  0.00  0.00    +0.072 A 
ATOM      8  C   UNL     1       4.281   5.724 -11.941  0.00  0.00    +0.012 A 
ATOM      9  C   UNL     1       3.430   5.738 -10.852  0.00  0.00    +0.017 A 
BRANCH   6  10
ATOM     10  C   UNL     1       7.588   6.098 -10.150  0.00  0.00    +0.419 C 
ATOM     11  F   UNL     1       8.146   4.848 -10.283  0.00  0.00    -0.166 F 
ATOM     12  F   UNL     1       7.743   6.469  -8.818  0.00  0.00    -0.166 F 
ATOM     13  F   UNL     1       8.189   7.042 -10.948  0.00  0.00    -0.166 F 
ENDBRANCH   6  10
BRANCH   7  14
ATOM     14  C   UNL     1       6.555   5.261 -12.703  0.00  0.00    +0.100 C 
ATOM     15  N   UNL     1       7.315   4.900 -13.485  0.00  0.00    -0.191 NA
ENDBRANCH   7  14
ENDBRANCH   2   4
BRANCH   1  17
ATOM     16  C   UNL     1       3.685   6.944  -5.797  0.00  0.00    +0.044 C 
ATOM     17  C   UNL     1       2.558   6.098  -6.110  0.00  0.00    +0.218 C 
ATOM     18  O   UNL     1       2.388   5.068  -5.172  0.00  0.00    -0.214 OA
BRANCH  17  19
ATOM     19  C   UNL     1       1.266   6.859  -6.179  0.00  0.00    +0.195 C 
BRANCH  19  20
ATOM     20  S   UNL     1      -0.126   5.783  -6.309  0.00  0.00    +0.012 S 
ATOM     21  O   UNL     1       0.140   4.413  -5.769  0.00  0.00    -0.169 OA
ATOM     22  O   UNL     1      -0.539   5.605  -7.752  0.00  0.00    -0.169 OA
BRANCH  20  23
ATOM     23  C   UNL     1      -1.466   6.451  -5.388  0.00  0.00    +0.106 A 
ATOM     24  C   UNL     1      -2.380   5.546  -4.864  0.00  0.00    +0.021 A 
ATOM     25  C   UNL     1      -3.071   5.827  -3.691  0.00  0.00    +0.031 A 
ATOM     26  C   UNL     1      -2.704   6.915  -2.907  0.00  0.00    +0.140 A 
ATOM     27  F   UNL     1      -2.623   6.822  -1.548  0.00  0.00    -0.204 F 
ATOM     28  C   UNL     1      -2.053   7.938  -3.585  0.00  0.00    +0.031 A 
ATOM     29  C   UNL     1      -1.429   7.689  -4.802  0.00  0.00    +0.021 A 
ENDBRANCH  20  23
ENDBRANCH  19  20
ENDBRANCH  17  19
ENDBRANCH   1  17
TORSDOF 7
ENDMDL
MODEL 2
REMARK VINA RESULT:      -9.1      3.074      9.592
REMARK  Name = 
REMARK  7 active torsions:
REMARK  status: ('A' for Active; 'I' for Inactive)
REMARK    1  A    between atoms: C_2  and  C_4
REMARK    2  A    between atoms: C_2  and  C_15
REMARK    3  A    between atoms: C_4  and  S_5
REMARK    4  A    between atoms: S_5  and  C_8
REMARK    5  A    between atoms: N_17  and  C_18
REMARK    6  A    between atoms: C_21  and  C_22
REMARK    7  A    between atoms: C_24  and  C_25
REMARK                            x       y       z     vdW  Elec       q    Type
REMARK                         _______ _______ _______ _____ _____    ______ ____
ROOT
ATOM      1  C   UNL     1       2.452   4.554  -7.477  0.00  0.00    +0.275 C 
ATOM      2  N   UNL     1       2.193   5.626  -6.563  0.00  0.00    -0.177 NA
ATOM      3  O   UNL     1       2.521   3.410  -6.984  0.00  0.00    -0.270 OA
ENDROOT
BRANCH   2   4
ATOM      4  C   UNL     1       1.122   5.460  -5.625  0.00  0.00    +0.073 A 
ATOM      5  C   UNL     1      -0.170   5.743  -5.981  0.00  0.00    +0.021 A 
ATOM      6  C   UNL     1      -1.098   5.908  -4.971  0.00  0.00    +0.082 A 
ATOM      7  C   UNL     1      -0.747   5.642  -3.670  0.00  0.00    +0.072 A 
ATOM      8  C   UNL     1       0.576   5.561  -3.290  0.00  0.00    +0.012 A 
ATOM      9  C   UNL     1       1.509   5.385  -4.294  0.00  0.00    +0.017 A 
BRANCH   6  10
ATOM     10  C   UNL     1      -2.516   6.080  -5.400  0.00  0.00    +0.419 C 
ATOM     11  F   UNL     1      -3.244   4.957  -5.084  0.00  0.00    -0.166 F 
ATOM     12  F   UNL     1      -2.534   6.196  -6.787  0.00  0.00    -0.166 F 
ATOM     13  F   UNL     1      -3.036   7.228  -4.852  0.00  0.00    -0.166 F 
ENDBRANCH   6  10
BRANCH   7  14
ATOM     14  C   UNL     1      -1.788   5.399  -2.700  0.00  0.00    +0.100 C 
ATOM     15  N   UNL     1      -2.595   5.169  -1.916  0.00  0.00    -0.191 NA
ENDBRANCH   7  14
ENDBRANCH   2   4
BRANCH   1  17
ATOM     16  C   UNL     1       1.752   5.073  -9.650  0.00  0.00    +0.044 C 
ATOM     17  C   UNL     1       2.936   4.912  -8.841  0.00  0.00    +0.218 C 
ATOM     18  O   UNL     1       3.729   3.834  -9.267  0.00  0.00    -0.214 OA
BRANCH  17  19
ATOM     19  C   UNL     1       3.805   6.136  -8.841  0.00  0.00    +0.195 C 
BRANCH  19  20
ATOM     20  S   UNL     1       4.356   6.551 -10.465  0.00  0.00    +0.012 S 
ATOM     21  O   UNL     1       4.696   8.000 -10.617  0.00  0.00    -0.169 OA
ATOM     22  O   UNL     1       3.288   6.248 -11.492  0.00  0.00    -0.169 OA
BRANCH  20  23
ATOM     23  C   UNL     1       5.811   5.636 -10.837  0.00  0.00    +0.106 A 
ATOM     24  C   UNL     1       6.023   5.312 -12.171  0.00  0.00    +0.021 A 
ATOM     25  C   UNL     1       7.310   5.165 -12.674  0.00  0.00    +0.031 A 
ATOM     26  C   UNL     1       8.406   5.551 -11.912  0.00  0.00    +0.140 A 
ATOM     27  F   UNL     1       9.448   6.246 -12.457  0.00  0.00    -0.204 F 
ATOM     28  C   UNL     1       8.200   5.552 -10.537  0.00  0.00    +0.031 A 
ATOM     29  C   UNL     1       6.911   5.613 -10.021  0.00  0.00    +0.021 A 
ENDBRANCH  20  23
ENDBRANCH  19  20
ENDBRANCH  17  19
ENDBRANCH   1  17
TORSDOF 7
ENDMDL
MODEL 3
REMARK VINA RESULT:      -9.0      4.299      8.294
REMARK  Name = 
REMARK  7 active torsions:
REMARK  status: ('A' for Active; 'I' for Inactive)
REMARK    1  A    between atoms: C_2  and  C_4
REMARK    2  A    between atoms: C_2  and  C_15
REMARK    3  A    between atoms: C_4  and  S_5
REMARK    4  A    between atoms: S_5  and  C_8
REMARK    5  A    between atoms: N_17  and  C_18
REMARK    6  A    between atoms: C_21  and  C_22
REMARK    7  A    between atoms: C_24  and  C_25
REMARK                            x       y       z     vdW  Elec       q    Type
REMARK                         _______ _______ _______ _____ _____    ______ ____
ROOT
ATOM      1  C   UNL     1       2.766   4.726  -6.997  0.00  0.00    +0.275 C 
ATOM      2  N   UNL     1       2.538   5.461  -5.789  0.00  0.00    -0.177 NA
ATOM      3  O   UNL     1       2.419   3.528  -6.990  0.00  0.00    -0.270 OA
ENDROOT
BRANCH   2   4
ATOM      4  C   UNL     1       1.245   5.356  -5.178  0.00  0.00    +0.073 A 
ATOM      5  C   UNL     1       0.108   5.598  -5.903  0.00  0.00    +0.021 A 
ATOM      6  C   UNL     1      -1.064   5.830  -5.208  0.00  0.00    +0.082 A 
ATOM      7  C   UNL     1      -1.094   5.669  -3.844  0.00  0.00    +0.072 A 
ATOM      8  C   UNL     1       0.069   5.631  -3.104  0.00  0.00    +0.012 A 
ATOM      9  C   UNL     1       1.244   5.388  -3.791  0.00  0.00    +0.017 A 
BRANCH   6  10
ATOM     10  C   UNL     1      -2.303   5.955  -6.029  0.00  0.00    +0.419 C 
ATOM     11  F   UNL     1      -3.123   4.872  -5.810  0.00  0.00    -0.166 F 
ATOM     12  F   UNL     1      -1.935   5.918  -7.370  0.00  0.00    -0.166 F 
ATOM     13  F   UNL     1      -2.919   7.156  -5.769  0.00  0.00    -0.166 F 
ENDBRANCH   6  10
BRANCH   7  14
ATOM     14  C   UNL     1      -2.368   5.490  -3.188  0.00  0.00    +0.100 C 
ATOM     15  N   UNL     1      -3.374   5.304  -2.667  0.00  0.00    -0.191 NA
ENDBRANCH   7  14
ENDBRANCH   2   4
BRANCH   1  17
ATOM     16  C   UNL     1       4.977   5.389  -7.392  0.00  0.00    +0.044 C 
ATOM     17  C   UNL     1       3.675   5.332  -8.012  0.00  0.00    +0.218 C 
ATOM     18  O   UNL     1       3.159   6.609  -8.282  0.00  0.00    -0.214 OA
BRANCH  17  19
ATOM     19  C   UNL     1       3.685   4.570  -9.305  0.00  0.00    +0.195 C 
BRANCH  19  20
ATOM     20  S   UNL     1       3.750   5.646 -10.702  0.00  0.00    +0.012 S 
ATOM     21  O   UNL     1       4.673   5.160 -11.774  0.00  0.00    -0.169 OA
ATOM     22  O   UNL     1       4.238   7.020 -10.303  0.00  0.00    -0.169 OA
BRANCH  20  23
ATOM     23  C   UNL     1       2.148   5.771 -11.415  0.00  0.00    +0.106 A 
ATOM     24  C   UNL     1       1.068   5.531 -10.575  0.00  0.00    +0.021 A 
ATOM     25  C   UNL     1      -0.157   6.152 -10.793  0.00  0.00    +0.031 A 
ATOM     26  C   UNL     1      -0.262   7.185 -11.717  0.00  0.00    +0.140 A 
ATOM     27  F   UNL     1      -0.970   8.320 -11.445  0.00  0.00    -0.204 F 
ATOM     28  C   UNL     1       0.694   7.175 -12.726  0.00  0.00    +0.031 A 
ATOM     29  C   UNL     1       1.889   6.486 -12.555  0.00  0.00    +0.021 A 
ENDBRANCH  20  23
ENDBRANCH  19  20
ENDBRANCH  17  19
ENDBRANCH   1  17
TORSDOF 7
ENDMDL
MODEL 4
REMARK VINA RESULT:      -8.9      2.977      9.400
REMARK  Name = 
REMARK  7 active torsions:
REMARK  status: ('A' for Active; 'I' for Inactive)
REMARK    1  A    between atoms: C_2  and  C_4
REMARK    2  A    between atoms: C_2  and  C_15
REMARK    3  A    between atoms: C_4  and  S_5
REMARK    4  A    between atoms: S_5  and  C_8
REMARK    5  A    between atoms: N_17  and  C_18
REMARK    6  A    between atoms: C_21  and  C_22
REMARK    7  A    between atoms: C_24  and  C_25
REMARK                            x       y       z     vdW  Elec       q    Type
REMARK                         _______ _______ _______ _____ _____    ______ ____
ROOT
ATOM      1  C   UNL     1       0.872   6.084  -8.683  0.00  0.00    +0.275 C 
ATOM      2  N   UNL     1      -0.277   5.384  -8.193  0.00  0.00    -0.177 NA
ATOM      3  O   UNL     1       1.072   7.221  -8.210  0.00  0.00    -0.270 OA
ENDROOT
BRANCH   2   4
ATOM      4  C   UNL     1      -0.476   5.338  -6.774  0.00  0.00    +0.073 A 
ATOM      5  C   UNL     1      -1.427   6.121  -6.176  0.00  0.00    +0.021 A 
ATOM      6  C   UNL     1      -1.345   6.307  -4.809  0.00  0.00    +0.082 A 
ATOM      7  C   UNL     1      -0.424   5.598  -4.076  0.00  0.00    +0.072 A 
ATOM      8  C   UNL     1       0.648   4.980  -4.684  0.00  0.00    +0.012 A 
ATOM      9  C   UNL     1       0.568   4.781  -6.050  0.00  0.00    +0.017 A 
BRANCH   6  10
ATOM     10  C   UNL     1      -2.472   7.053  -4.176  0.00  0.00    +0.419 C 
ATOM     11  F   UNL     1      -3.365   6.170  -3.617  0.00  0.00    -0.166 F 
ATOM     12  F   UNL     1      -3.152   7.735  -5.180  0.00  0.00    -0.166 F 
ATOM     13  F   UNL     1      -1.981   7.965  -3.273  0.00  0.00    -0.166 F 
ENDBRANCH   6  10
BRANCH   7  14
ATOM     14  C   UNL     1      -0.617   5.465  -2.652  0.00  0.00    +0.100 C 
ATOM     15  N   UNL     1      -0.775   5.314  -1.524  0.00  0.00    -0.191 NA
ENDBRANCH   7  14
ENDBRANCH   2   4
BRANCH   1  17
ATOM     16  C   UNL     1       0.519   5.625 -10.952  0.00  0.00    +0.044 C 
ATOM     17  C   UNL     1       1.524   5.561  -9.918  0.00  0.00    +0.218 C 
ATOM     18  O   UNL     1       1.904   4.241  -9.627  0.00  0.00    -0.214 OA
BRANCH  17  19
ATOM     19  C   UNL     1       2.770   6.318 -10.277  0.00  0.00    +0.195 C 
BRANCH  19  20
ATOM     20  S   UNL     1       4.163   5.770  -9.344  0.00  0.00    +0.012 S 
ATOM     21  O   UNL     1       4.363   4.289  -9.402  0.00  0.00    -0.169 OA
ATOM     22  O   UNL     1       4.010   6.127  -7.883  0.00  0.00    -0.169 OA
BRANCH  20  23
ATOM     23  C   UNL     1       5.622   6.515  -9.985  0.00  0.00    +0.106 A 
ATOM     24  C   UNL     1       6.811   5.821  -9.802  0.00  0.00    +0.021 A 
ATOM     25  C   UNL     1       7.855   5.942 -10.713  0.00  0.00    +0.031 A 
ATOM     26  C   UNL     1       7.649   6.581 -11.930  0.00  0.00    +0.140 A 
ATOM     27  F   UNL     1       8.138   6.071 -13.098  0.00  0.00    -0.204 F 
ATOM     28  C   UNL     1       6.613   7.507 -11.944  0.00  0.00    +0.031 A 
ATOM     29  C   UNL     1       5.607   7.450 -10.986  0.00  0.00    +0.021 A 
ENDBRANCH  20  23
ENDBRANCH  19  20
ENDBRANCH  17  19
ENDBRANCH   1  17
TORSDOF 7
ENDMDL
MODEL 5
REMARK VINA RESULT:      -8.9      3.792      8.676
REMARK  Name = 
REMARK  7 active torsions:
REMARK  status: ('A' for Active; 'I' for Inactive)
REMARK    1  A    between atoms: C_2  and  C_4
REMARK    2  A    between atoms: C_2  and  C_15
REMARK    3  A    between atoms: C_4  and  S_5
REMARK    4  A    between atoms: S_5  and  C_8
REMARK    5  A    between atoms: N_17  and  C_18
REMARK    6  A    between atoms: C_21  and  C_22
REMARK    7  A    between atoms: C_24  and  C_25
REMARK                            x       y       z     vdW  Elec       q    Type
REMARK                         _______ _______ _______ _____ _____    ______ ____
ROOT
ATOM      1  C   UNL     1       2.663   4.948  -7.592  0.00  0.00    +0.275 C 
ATOM      2  N   UNL     1       2.518   5.732  -6.403  0.00  0.00    -0.177 NA
ATOM      3  O   UNL     1       2.478   3.720  -7.473  0.00  0.00    -0.270 OA
ENDROOT
BRANCH   2   4
ATOM      4  C   UNL     1       1.353   5.514  -5.597  0.00  0.00    +0.073 A 
ATOM      5  C   UNL     1       0.101   5.765  -6.095  0.00  0.00    +0.021 A 
ATOM      6  C   UNL     1      -0.941   5.881  -5.194  0.00  0.00    +0.082 A 
ATOM      7  C   UNL     1      -0.732   5.600  -3.866  0.00  0.00    +0.072 A 
ATOM      8  C   UNL     1       0.541   5.551  -3.339  0.00  0.00    +0.012 A 
ATOM      9  C   UNL     1       1.588   5.424  -4.232  0.00  0.00    +0.017 A 
BRANCH   6  10
ATOM     10  C   UNL     1      -2.305   6.019  -5.781  0.00  0.00    +0.419 C 
ATOM     11  F   UNL     1      -3.057   4.904  -5.491  0.00  0.00    -0.166 F 
ATOM     12  F   UNL     1      -2.174   6.069  -7.165  0.00  0.00    -0.166 F 
ATOM     13  F   UNL     1      -2.887   7.186  -5.346  0.00  0.00    -0.166 F 
ENDBRANCH   6  10
BRANCH   7  14
ATOM     14  C   UNL     1      -1.869   5.305  -3.026  0.00  0.00    +0.100 C 
ATOM     15  N   UNL     1      -2.772   5.029  -2.373  0.00  0.00    -0.191 NA
ENDBRANCH   7  14
ENDBRANCH   2   4
BRANCH   1  17
ATOM     16  C   UNL     1       4.707   5.166  -8.714  0.00  0.00    +0.044 C 
ATOM     17  C   UNL     1       3.327   5.588  -8.764  0.00  0.00    +0.218 C 
ATOM     18  O   UNL     1       3.187   6.973  -8.581  0.00  0.00    -0.214 OA
BRANCH  17  19
ATOM     19  C   UNL     1       2.664   5.238 -10.065  0.00  0.00    +0.195 C 
BRANCH  19  20
ATOM     20  S   UNL     1       1.021   5.873 -10.156  0.00  0.00    +0.012 S 
ATOM     21  O   UNL     1       0.889   7.246  -9.577  0.00  0.00    -0.169 OA
ATOM     22  O   UNL     1       0.056   4.990  -9.397  0.00  0.00    -0.169 OA
BRANCH  20  23
ATOM     23  C   UNL     1       0.529   5.974 -11.842  0.00  0.00    +0.106 A 
ATOM     24  C   UNL     1       0.264   7.242 -12.342  0.00  0.00    +0.021 A 
ATOM     25  C   UNL     1       0.466   7.535 -13.686  0.00  0.00    +0.031 A 
ATOM     26  C   UNL     1       1.139   6.635 -14.504  0.00  0.00    +0.140 A 
ATOM     27  F   UNL     1       2.085   7.049 -15.397  0.00  0.00    -0.204 F 
ATOM     28  C   UNL     1       1.094   5.310 -14.088  0.00  0.00    +0.031 A 
ATOM     29  C   UNL     1       0.809   4.999 -12.763  0.00  0.00    +0.021 A 
ENDBRANCH  20  23
ENDBRANCH  19  20
ENDBRANCH  17  19
ENDBRANCH   1  17
TORSDOF 7
ENDMDL
MODEL 6
REMARK VINA RESULT:      -8.8      2.980      3.767
REMARK  Name = 
REMARK  7 active torsions:
REMARK  status: ('A' for Active; 'I' for Inactive)
REMARK    1  A    between atoms: C_2  and  C_4
REMARK    2  A    between atoms: C_2  and  C_15
REMARK    3  A    between atoms: C_4  and  S_5
REMARK    4  A    between atoms: S_5  and  C_8
REMARK    5  A    between atoms: N_17  and  C_18
REMARK    6  A    between atoms: C_21  and  C_22
REMARK    7  A    between atoms: C_24  and  C_25
REMARK                            x       y       z     vdW  Elec       q    Type
REMARK                         _______ _______ _______ _____ _____    ______ ____
ROOT
ATOM      1  C   UNL     1       2.260   4.788  -8.422  0.00  0.00    +0.275 C 
ATOM      2  N   UNL     1       2.491   5.568  -9.601  0.00  0.00    -0.177 NA
ATOM      3  O   UNL     1       2.516   3.570  -8.504  0.00  0.00    -0.270 OA
ENDROOT
BRANCH   2   4
ATOM      4  C   UNL     1       3.744   5.401 -10.276  0.00  0.00    +0.073 A 
ATOM      5  C   UNL     1       4.925   5.678  -9.638  0.00  0.00    +0.021 A 
ATOM      6  C   UNL     1       6.056   5.844 -10.415  0.00  0.00    +0.082 A 
ATOM      7  C   UNL     1       6.003   5.585 -11.763  0.00  0.00    +0.072 A 
ATOM      8  C   UNL     1       4.799   5.510 -12.429  0.00  0.00    +0.012 A 
ATOM      9  C   UNL     1       3.664   5.333 -11.660  0.00  0.00    +0.017 A 
BRANCH   6  10
ATOM     10  C   UNL     1       7.342   6.009  -9.679  0.00  0.00    +0.419 C 
ATOM     11  F   UNL     1       8.021   7.106 -10.157  0.00  0.00    -0.166 F 
ATOM     12  F   UNL     1       8.135   4.897  -9.944  0.00  0.00    -0.166 F 
ATOM     13  F   UNL     1       7.103   6.073  -8.327  0.00  0.00    -0.166 F 
ENDBRANCH   6  10
BRANCH   7  14
ATOM     14  C   UNL     1       7.234   5.342 -12.477  0.00  0.00    +0.100 C 
ATOM     15  N   UNL     1       8.193   5.159 -13.083  0.00  0.00    -0.191 NA
ENDBRANCH   7  14
ENDBRANCH   2   4
BRANCH   1  17
ATOM     16  C   UNL     1       0.118   5.566  -7.882  0.00  0.00    +0.044 C 
ATOM     17  C   UNL     1       1.444   5.404  -7.336  0.00  0.00    +0.218 C 
ATOM     18  O   UNL     1       2.053   6.635  -7.044  0.00  0.00    -0.214 OA
BRANCH  17  19
ATOM     19  C   UNL     1       1.454   4.589  -6.075  0.00  0.00    +0.195 C 
BRANCH  19  20
ATOM     20  S   UNL     1       1.095   5.572  -4.654  0.00  0.00    +0.012 S 
ATOM     21  O   UNL     1       0.178   4.893  -3.687  0.00  0.00    -0.169 OA
ATOM     22  O   UNL     1       0.422   6.868  -5.049  0.00  0.00    -0.169 OA
BRANCH  20  23
ATOM     23  C   UNL     1       2.589   5.919  -3.795  0.00  0.00    +0.106 A 
ATOM     24  C   UNL     1       3.678   5.103  -4.076  0.00  0.00    +0.021 A 
ATOM     25  C   UNL     1       4.977   5.587  -3.977  0.00  0.00    +0.031 A 
ATOM     26  C   UNL     1       5.205   6.948  -3.809  0.00  0.00    +0.140 A 
ATOM     27  F   UNL     1       6.178   7.603  -4.507  0.00  0.00    -0.204 F 
ATOM     28  C   UNL     1       4.160   7.654  -3.224  0.00  0.00    +0.031 A 
ATOM     29  C   UNL     1       2.869   7.141  -3.241  0.00  0.00    +0.021 A 
ENDBRANCH  20  23
ENDBRANCH  19  20
ENDBRANCH  17  19
ENDBRANCH   1  17
TORSDOF 7
ENDMDL
MODEL 7
REMARK VINA RESULT:      -8.6      1.803      2.158
REMARK  Name = 
REMARK  7 active torsions:
REMARK  status: ('A' for Active; 'I' for Inactive)
REMARK    1  A    between atoms: C_2  and  C_4
REMARK    2  A    between atoms: C_2  and  C_15
REMARK    3  A    between atoms: C_4  and  S_5
REMARK    4  A    between atoms: S_5  and  C_8
REMARK    5  A    between atoms: N_17  and  C_18
REMARK    6  A    between atoms: C_21  and  C_22
REMARK    7  A    between atoms: C_24  and  C_25
REMARK                            x       y       z     vdW  Elec       q    Type
REMARK                         _______ _______ _______ _____ _____    ______ ____
ROOT
ATOM      1  C   UNL     1       2.357   5.946  -7.350  0.00  0.00    +0.275 C 
ATOM      2  N   UNL     1       3.139   4.916  -7.967  0.00  0.00    -0.177 NA
ATOM      3  O   UNL     1       2.940   7.027  -7.131  0.00  0.00    -0.270 OA
ENDROOT
BRANCH   2   4
ATOM      4  C   UNL     1       3.916   5.267  -9.118  0.00  0.00    +0.073 A 
ATOM      5  C   UNL     1       5.275   5.414  -9.027  0.00  0.00    +0.021 A 
ATOM      6  C   UNL     1       5.924   6.083 -10.047  0.00  0.00    +0.082 A 
ATOM      7  C   UNL     1       5.230   6.445 -11.176  0.00  0.00    +0.072 A 
ATOM      8  C   UNL     1       3.852   6.485 -11.185  0.00  0.00    +0.012 A 
ATOM      9  C   UNL     1       3.196   5.809 -10.174  0.00  0.00    +0.017 A 
BRANCH   6  10
ATOM     10  C   UNL     1       7.413   6.105  -9.978  0.00  0.00    +0.419 C 
ATOM     11  F   UNL     1       7.940   5.228 -10.898  0.00  0.00    -0.166 F 
ATOM     12  F   UNL     1       7.792   5.647  -8.720  0.00  0.00    -0.166 F 
ATOM     13  F   UNL     1       7.871   7.391 -10.140  0.00  0.00    -0.166 F 
ENDBRANCH   6  10
BRANCH   7  14
ATOM     14  C   UNL     1       5.964   6.742 -12.383  0.00  0.00    +0.100 C 
ATOM     15  N   UNL     1       6.522   7.014 -13.350  0.00  0.00    -0.191 NA
ENDBRANCH   7  14
ENDBRANCH   2   4
BRANCH   1  17
ATOM     16  C   UNL     1       1.265   4.231  -6.189  0.00  0.00    +0.044 C 
ATOM     17  C   UNL     1       1.057   5.551  -6.735  0.00  0.00    +0.218 C 
ATOM     18  O   UNL     1       0.118   5.553  -7.778  0.00  0.00    -0.214 OA
BRANCH  17  19
ATOM     19  C   UNL     1       0.586   6.534  -5.704  0.00  0.00    +0.195 C 
BRANCH  19  20
ATOM     20  S   UNL     1      -1.095   6.252  -5.247  0.00  0.00    +0.012 S 
ATOM     21  O   UNL     1      -1.806   5.318  -6.174  0.00  0.00    -0.169 OA
ATOM     22  O   UNL     1      -1.880   7.545  -5.251  0.00  0.00    -0.169 OA
BRANCH  20  23
ATOM     23  C   UNL     1      -1.149   5.532  -3.644  0.00  0.00    +0.106 A 
ATOM     24  C   UNL     1       0.063   5.386  -2.982  0.00  0.00    +0.021 A 
ATOM     25  C   UNL     1       0.127   5.423  -1.594  0.00  0.00    +0.031 A 
ATOM     26  C   UNL     1      -0.979   5.824  -0.854  0.00  0.00    +0.140 A 
ATOM     27  F   UNL     1      -0.861   6.674   0.207  0.00  0.00    -0.204 F 
ATOM     28  C   UNL     1      -2.206   5.646  -1.482  0.00  0.00    +0.031 A 
ATOM     29  C   UNL     1      -2.276   5.521  -2.865  0.00  0.00    +0.021 A 
ENDBRANCH  20  23
ENDBRANCH  19  20
ENDBRANCH  17  19
ENDBRANCH   1  17
TORSDOF 7
ENDMDL
MODEL 8
REMARK VINA RESULT:      -8.6      3.907      8.071
REMARK  Name = 
REMARK  7 active torsions:
REMARK  status: ('A' for Active; 'I' for Inactive)
REMARK    1  A    between atoms: C_2  and  C_4
REMARK    2  A    between atoms: C_2  and  C_15
REMARK    3  A    between atoms: C_4  and  S_5
REMARK    4  A    between atoms: S_5  and  C_8
REMARK    5  A    between atoms: N_17  and  C_18
REMARK    6  A    between atoms: C_21  and  C_22
REMARK    7  A    between atoms: C_24  and  C_25
REMARK                            x       y       z     vdW  Elec       q    Type
REMARK                         _______ _______ _______ _____ _____    ______ ____
ROOT
ATOM      1  C   UNL     1       1.011   5.721  -8.480  0.00  0.00    +0.275 C 
ATOM      2  N   UNL     1      -0.044   4.970  -7.869  0.00  0.00    -0.177 NA
ATOM      3  O   UNL     1       0.992   6.955  -8.296  0.00  0.00    -0.270 OA
ENDROOT
BRANCH   2   4
ATOM      4  C   UNL     1      -0.336   5.229  -6.490  0.00  0.00    +0.073 A 
ATOM      5  C   UNL     1      -1.294   6.142  -6.137  0.00  0.00    +0.021 A 
ATOM      6  C   UNL     1      -1.293   6.610  -4.837  0.00  0.00    +0.082 A 
ATOM      7  C   UNL     1      -0.449   6.051  -3.909  0.00  0.00    +0.072 A 
ATOM      8  C   UNL     1       0.637   5.294  -4.297  0.00  0.00    +0.012 A 
ATOM      9  C   UNL     1       0.638   4.814  -5.593  0.00  0.00    +0.017 A 
BRANCH   6  10
ATOM     10  C   UNL     1      -2.430   7.497  -4.455  0.00  0.00    +0.419 C 
ATOM     11  F   UNL     1      -3.323   6.808  -3.668  0.00  0.00    -0.166 F 
ATOM     12  F   UNL     1      -3.107   7.851  -5.618  0.00  0.00    -0.166 F 
ATOM     13  F   UNL     1      -1.953   8.637  -3.853  0.00  0.00    -0.166 F 
ENDBRANCH   6  10
BRANCH   7  14
ATOM     14  C   UNL     1      -0.737   6.225  -2.505  0.00  0.00    +0.100 C 
ATOM     15  N   UNL     1      -0.925   6.351  -1.380  0.00  0.00    -0.191 NA
ENDBRANCH   7  14
ENDBRANCH   2   4
BRANCH   1  17
ATOM     16  C   UNL     1       2.204   6.071 -10.465  0.00  0.00    +0.044 C 
ATOM     17  C   UNL     1       1.826   5.040  -9.527  0.00  0.00    +0.218 C 
ATOM     18  O   UNL     1       0.987   4.075 -10.106  0.00  0.00    -0.214 OA
BRANCH  17  19
ATOM     19  C   UNL     1       3.012   4.319  -8.955  0.00  0.00    +0.195 C 
BRANCH  19  20
ATOM     20  S   UNL     1       4.218   5.438  -8.317  0.00  0.00    +0.012 S 
ATOM     21  O   UNL     1       4.222   6.759  -9.020  0.00  0.00    -0.169 OA
ATOM     22  O   UNL     1       5.612   4.870  -8.459  0.00  0.00    -0.169 OA
BRANCH  20  23
ATOM     23  C   UNL     1       3.878   5.755  -6.621  0.00  0.00    +0.106 A 
ATOM     24  C   UNL     1       4.390   4.850  -5.700  0.00  0.00    +0.021 A 
ATOM     25  C   UNL     1       4.728   5.256  -4.414  0.00  0.00    +0.031 A 
ATOM     26  C   UNL     1       4.766   6.608  -4.095  0.00  0.00    +0.140 A 
ATOM     27  F   UNL     1       5.780   7.140  -3.353  0.00  0.00    -0.204 F 
ATOM     28  C   UNL     1       3.967   7.425  -4.887  0.00  0.00    +0.031 A 
ATOM     29  C   UNL     1       3.551   6.996  -6.142  0.00  0.00    +0.021 A 
ENDBRANCH  20  23
ENDBRANCH  19  20
ENDBRANCH  17  19
ENDBRANCH   1  17
TORSDOF 7
ENDMDL
MODEL 9
REMARK VINA RESULT:      -8.5      3.025      8.992
REMARK  Name = 
REMARK  7 active torsions:
REMARK  status: ('A' for Active; 'I' for Inactive)
REMARK    1  A    between atoms: C_2  and  C_4
REMARK    2  A    between atoms: C_2  and  C_15
REMARK    3  A    between atoms: C_4  and  S_5
REMARK    4  A    between atoms: S_5  and  C_8
REMARK    5  A    between atoms: N_17  and  C_18
REMARK    6  A    between atoms: C_21  and  C_22
REMARK    7  A    between atoms: C_24  and  C_25
REMARK                            x       y       z     vdW  Elec       q    Type
REMARK                         _______ _______ _______ _____ _____    ______ ____
ROOT
ATOM      1  C   UNL     1       0.808   5.915  -8.894  0.00  0.00    +0.275 C 
ATOM      2  N   UNL     1      -0.308   5.283  -8.256  0.00  0.00    -0.177 NA
ATOM      3  O   UNL     1       0.876   7.157  -8.789  0.00  0.00    -0.270 OA
ENDROOT
BRANCH   2   4
ATOM      4  C   UNL     1      -0.600   5.651  -6.902  0.00  0.00    +0.073 A 
ATOM      5  C   UNL     1       0.340   5.495  -5.917  0.00  0.00    +0.021 A 
ATOM      6  C   UNL     1      -0.090   5.524  -4.604  0.00  0.00    +0.082 A 
ATOM      7  C   UNL     1      -1.393   5.852  -4.318  0.00  0.00    +0.072 A 
ATOM      8  C   UNL     1      -2.370   5.807  -5.289  0.00  0.00    +0.012 A 
ATOM      9  C   UNL     1      -1.948   5.788  -6.605  0.00  0.00    +0.017 A 
BRANCH   6  10
ATOM     10  C   UNL     1       0.976   5.486  -3.561  0.00  0.00    +0.419 C 
ATOM     11  F   UNL     1       2.125   4.938  -4.082  0.00  0.00    -0.166 F 
ATOM     12  F   UNL     1       0.551   4.639  -2.543  0.00  0.00    -0.166 F 
ATOM     13  F   UNL     1       1.169   6.744  -3.042  0.00  0.00    -0.166 F 
ENDBRANCH   6  10
BRANCH   7  14
ATOM     14  C   UNL     1      -1.726   6.295  -2.985  0.00  0.00    +0.100 C 
ATOM     15  N   UNL     1      -1.958   6.622  -1.909  0.00  0.00    -0.191 NA
ENDBRANCH   7  14
ENDBRANCH   2   4
BRANCH   1  17
ATOM     16  C   UNL     1       0.663   4.789 -10.942  0.00  0.00    +0.044 C 
ATOM     17  C   UNL     1       1.586   5.111  -9.880  0.00  0.00    +0.218 C 
ATOM     18  O   UNL     1       2.022   3.968  -9.191  0.00  0.00    -0.214 OA
BRANCH  17  19
ATOM     19  C   UNL     1       2.807   5.830 -10.375  0.00  0.00    +0.195 C 
BRANCH  19  20
ATOM     20  S   UNL     1       4.167   5.657  -9.264  0.00  0.00    +0.012 S 
ATOM     21  O   UNL     1       4.558   4.232  -9.033  0.00  0.00    -0.169 OA
ATOM     22  O   UNL     1       3.835   6.239  -7.909  0.00  0.00    -0.169 OA
BRANCH  20  23
ATOM     23  C   UNL     1       5.571   6.478  -9.932  0.00  0.00    +0.106 A 
ATOM     24  C   UNL     1       6.800   5.850  -9.770  0.00  0.00    +0.021 A 
ATOM     25  C   UNL     1       7.819   6.024 -10.699  0.00  0.00    +0.031 A 
ATOM     26  C   UNL     1       7.557   6.649 -11.913  0.00  0.00    +0.140 A 
ATOM     27  F   UNL     1       8.053   6.163 -13.089  0.00  0.00    -0.204 F 
ATOM     28  C   UNL     1       6.473   7.518 -11.910  0.00  0.00    +0.031 A 
ATOM     29  C   UNL     1       5.489   7.409 -10.934  0.00  0.00    +0.021 A 
ENDBRANCH  20  23
ENDBRANCH  19  20
ENDBRANCH  17  19
ENDBRANCH   1  17
TORSDOF 7
ENDMDL
