MODEL 1
REMARK VINA RESULT:     -10.3      0.000      0.000
REMARK  Name = 
REMARK  1 active torsions:
REMARK  status: ('A' for Active; 'I' for Inactive)
REMARK    1  A    between atoms: C_18  and  C_19
REMARK                            x       y       z     vdW  Elec       q    Type
REMARK                         _______ _______ _______ _____ _____    ______ ____
ROOT
ATOM      1  C   UNL     1       4.436   7.837  -0.115  0.00  0.00    +0.115 C 
ATOM      2  N   UNL     1       4.193   6.810  -1.125  0.00  0.00    -0.268 N 
ATOM      3  C   UNL     1       2.804   6.502  -1.329  0.00  0.00    +0.244 C 
ATOM      4  O   UNL     1       1.937   7.365  -1.266  0.00  0.00    -0.273 OA
ATOM      5  C   UNL     1       2.614   5.311  -2.443  0.00  0.00    +0.157 C 
ATOM      6  C   UNL     1       0.983   5.614  -2.664  0.00  0.00    +0.057 C 
ATOM      7  C   UNL     1       0.755   5.509  -4.091  0.00  0.00    -0.003 A 
ATOM      8  C   UNL     1       1.576   5.258  -5.110  0.00  0.00    +0.077 A 
ATOM      9  C   UNL     1       3.180   5.142  -4.788  0.00  0.00    +0.138 C 
ATOM     10  N   UNL     1       0.908   4.604  -6.051  0.00  0.00    -0.248 NA
ATOM     11  C   UNL     1      -0.334   5.150  -5.986  0.00  0.00    +0.081 A 
ATOM     12  C   UNL     1      -1.449   5.159  -6.813  0.00  0.00    +0.019 A 
ATOM     13  C   UNL     1      -2.623   5.796  -6.430  0.00  0.00    +0.002 A 
ATOM     14  C   UNL     1      -2.651   6.600  -5.312  0.00  0.00    +0.000 A 
ATOM     15  C   UNL     1      -1.629   6.401  -4.397  0.00  0.00    +0.001 A 
ATOM     16  C   UNL     1      -0.465   5.719  -4.722  0.00  0.00    +0.015 A 
ATOM     17  N   UNL     1       3.047   6.283  -3.648  0.00  0.00    -0.264 N 
ATOM     18  C   UNL     1       4.387   6.775  -3.477  0.00  0.00    +0.247 C 
ATOM     19  O   UNL     1       4.585   7.636  -4.358  0.00  0.00    -0.273 OA
ATOM     20  C   UNL     1       5.156   6.743  -2.225  0.00  0.00    +0.179 C 
ENDROOT
BRANCH   9  21
ATOM     21  C   UNL     1       3.650   6.201  -5.968  0.00  0.00    +0.005 A 
ATOM     22  C   UNL     1       4.080   5.337  -6.993  0.00  0.00    +0.038 A 
ATOM     23  C   UNL     1       4.376   5.902  -8.226  0.00  0.00    +0.176 A 
ATOM     24  O   UNL     1       5.441   5.882  -9.123  0.00  0.00    -0.435 OA
ATOM     25  C   UNL     1       4.920   6.369 -10.346  0.00  0.00    +0.429 C 
ATOM     26  O   UNL     1       3.568   6.742 -10.088  0.00  0.00    -0.435 OA
ATOM     27  C   UNL     1       3.379   6.739  -8.717  0.00  0.00    +0.176 A 
ATOM     28  C   UNL     1       2.609   7.434  -7.799  0.00  0.00    +0.040 A 
ATOM     29  C   UNL     1       2.609   6.967  -6.489  0.00  0.00    +0.001 A 
ENDBRANCH   9  21
TORSDOF 1
ENDMDL
MODEL 2
REMARK VINA RESULT:      -9.4      2.991      4.786
REMARK  Name = 
REMARK  1 active torsions:
REMARK  status: ('A' for Active; 'I' for Inactive)
REMARK    1  A    between atoms: C_18  and  C_19
REMARK                            x       y       z     vdW  Elec       q    Type
REMARK                         _______ _______ _______ _____ _____    ______ ____
ROOT
ATOM      1  C   UNL     1       1.211   6.114  -3.605  0.00  0.00    +0.115 C 
ATOM      2  N   UNL     1       1.600   5.383  -4.809  0.00  0.00    -0.268 N 
ATOM      3  C   UNL     1       0.682   5.529  -5.906  0.00  0.00    +0.244 C 
ATOM      4  O   UNL     1       0.097   6.583  -6.120  0.00  0.00    -0.273 OA
ATOM      5  C   UNL     1       1.161   4.645  -7.205  0.00  0.00    +0.157 C 
ATOM      6  C   UNL     1       0.144   5.440  -8.270  0.00  0.00    +0.057 C 
ATOM      7  C   UNL     1       0.922   5.643  -9.476  0.00  0.00    -0.003 A 
ATOM      8  C   UNL     1       2.180   5.338  -9.788  0.00  0.00    +0.077 A 
ATOM      9  C   UNL     1       3.130   4.711  -8.608  0.00  0.00    +0.138 C 
ATOM     10  N   UNL     1       2.250   5.071 -11.086  0.00  0.00    -0.248 NA
ATOM     11  C   UNL     1       1.353   5.934 -11.629  0.00  0.00    +0.081 A 
ATOM     12  C   UNL     1       1.090   6.402 -12.909  0.00  0.00    +0.019 A 
ATOM     13  C   UNL     1       0.039   7.279 -13.151  0.00  0.00    +0.002 A 
ATOM     14  C   UNL     1      -0.644   7.860 -12.106  0.00  0.00    +0.000 A 
ATOM     15  C   UNL     1      -0.528   7.225 -10.880  0.00  0.00    +0.001 A 
ATOM     16  C   UNL     1       0.472   6.299 -10.615  0.00  0.00    +0.015 A 
ATOM     17  N   UNL     1       2.391   5.635  -7.504  0.00  0.00    -0.264 N 
ATOM     18  C   UNL     1       3.314   5.683  -6.403  0.00  0.00    +0.247 C 
ATOM     19  O   UNL     1       4.142   6.584  -6.647  0.00  0.00    -0.273 OA
ATOM     20  C   UNL     1       3.037   5.223  -5.035  0.00  0.00    +0.179 C 
ENDROOT
BRANCH   9  21
ATOM     21  C   UNL     1       4.380   5.768  -8.838  0.00  0.00    +0.005 A 
ATOM     22  C   UNL     1       5.332   4.968  -9.499  0.00  0.00    +0.038 A 
ATOM     23  C   UNL     1       6.455   5.601 -10.013  0.00  0.00    +0.176 A 
ATOM     24  O   UNL     1       7.836   5.440  -9.937  0.00  0.00    -0.435 OA
ATOM     25  C   UNL     1       8.370   6.197 -11.009  0.00  0.00    +0.429 C 
ATOM     26  O   UNL     1       7.264   6.852 -11.627  0.00  0.00    -0.435 OA
ATOM     27  C   UNL     1       6.167   6.714 -10.796  0.00  0.00    +0.176 A 
ATOM     28  C   UNL     1       5.036   7.449 -10.481  0.00  0.00    +0.040 A 
ATOM     29  C   UNL     1       4.076   6.828  -9.690  0.00  0.00    +0.001 A 
ENDBRANCH   9  21
TORSDOF 1
ENDMDL
MODEL 3
REMARK VINA RESULT:      -9.4      2.374      6.865
REMARK  Name = 
REMARK  1 active torsions:
REMARK  status: ('A' for Active; 'I' for Inactive)
REMARK    1  A    between atoms: C_18  and  C_19
REMARK                            x       y       z     vdW  Elec       q    Type
REMARK                         _______ _______ _______ _____ _____    ______ ____
ROOT
ATOM      1  C   UNL     1       3.215   6.142 -12.047  0.00  0.00    +0.115 C 
ATOM      2  N   UNL     1       2.895   5.377 -10.844  0.00  0.00    -0.268 N 
ATOM      3  C   UNL     1       3.869   5.499  -9.793  0.00  0.00    +0.244 C 
ATOM      4  O   UNL     1       4.459   6.551  -9.582  0.00  0.00    -0.273 OA
ATOM      5  C   UNL     1       3.465   4.579  -8.495  0.00  0.00    +0.157 C 
ATOM      6  C   UNL     1       4.533   5.352  -7.464  0.00  0.00    +0.057 C 
ATOM      7  C   UNL     1       3.820   5.517  -6.214  0.00  0.00    -0.003 A 
ATOM      8  C   UNL     1       2.582   5.195  -5.844  0.00  0.00    +0.077 A 
ATOM      9  C   UNL     1       1.573   4.594  -6.989  0.00  0.00    +0.138 C 
ATOM     10  N   UNL     1       2.582   4.893  -4.552  0.00  0.00    -0.248 NA
ATOM     11  C   UNL     1       3.502   5.747  -4.035  0.00  0.00    +0.081 A 
ATOM     12  C   UNL     1       3.831   6.183  -2.758  0.00  0.00    +0.019 A 
ATOM     13  C   UNL     1       4.888   7.060  -2.548  0.00  0.00    +0.002 A 
ATOM     14  C   UNL     1       5.511   7.673  -3.613  0.00  0.00    +0.000 A 
ATOM     15  C   UNL     1       5.334   7.071  -4.847  0.00  0.00    +0.001 A 
ATOM     16  C   UNL     1       4.326   6.145  -5.083  0.00  0.00    +0.015 A 
ATOM     17  N   UNL     1       2.247   5.552  -8.105  0.00  0.00    -0.264 N 
ATOM     18  C   UNL     1       1.267   5.623  -9.154  0.00  0.00    +0.247 C 
ATOM     19  O   UNL     1       0.448   6.511  -8.842  0.00  0.00    -0.273 OA
ATOM     20  C   UNL     1       1.473   5.202 -10.547  0.00  0.00    +0.179 C 
ENDROOT
BRANCH   9  21
ATOM     21  C   UNL     1       0.332   5.636  -6.664  0.00  0.00    +0.005 A 
ATOM     22  C   UNL     1      -0.414   4.925  -5.705  0.00  0.00    +0.038 A 
ATOM     23  C   UNL     1      -1.447   5.598  -5.067  0.00  0.00    +0.176 A 
ATOM     24  O   UNL     1      -2.802   5.385  -4.826  0.00  0.00    -0.435 OA
ATOM     25  C   UNL     1      -3.154   6.288  -3.794  0.00  0.00    +0.429 C 
ATOM     26  O   UNL     1      -1.990   7.068  -3.528  0.00  0.00    -0.435 OA
ATOM     27  C   UNL     1      -1.077   6.831  -4.541  0.00  0.00    +0.176 A 
ATOM     28  C   UNL     1      -0.082   7.539  -5.194  0.00  0.00    +0.040 A 
ATOM     29  C   UNL     1       0.735   6.829  -6.065  0.00  0.00    +0.001 A 
ENDBRANCH   9  21
TORSDOF 1
ENDMDL
MODEL 4
REMARK VINA RESULT:      -9.0      3.841      8.869
REMARK  Name = 
REMARK  1 active torsions:
REMARK  status: ('A' for Active; 'I' for Inactive)
REMARK    1  A    between atoms: C_18  and  C_19
REMARK                            x       y       z     vdW  Elec       q    Type
REMARK                         _______ _______ _______ _____ _____    ______ ____
ROOT
ATOM      1  C   UNL     1       0.079   7.603 -15.430  0.00  0.00    +0.115 C 
ATOM      2  N   UNL     1       0.431   6.639 -14.390  0.00  0.00    -0.268 N 
ATOM      3  C   UNL     1       1.843   6.403 -14.260  0.00  0.00    +0.244 C 
ATOM      4  O   UNL     1       2.662   7.300 -14.417  0.00  0.00    -0.273 OA
ATOM      5  C   UNL     1       2.156   5.278 -13.106  0.00  0.00    +0.157 C 
ATOM      6  C   UNL     1       3.781   5.664 -13.002  0.00  0.00    +0.057 C 
ATOM      7  C   UNL     1       4.100   5.639 -11.589  0.00  0.00    -0.003 A 
ATOM      8  C   UNL     1       3.356   5.403 -10.511  0.00  0.00    +0.077 A 
ATOM      9  C   UNL     1       1.742   5.200 -10.725  0.00  0.00    +0.138 C 
ATOM     10  N   UNL     1       4.109   4.826  -9.583  0.00  0.00    -0.248 NA
ATOM     11  C   UNL     1       5.318   5.422  -9.752  0.00  0.00    +0.081 A 
ATOM     12  C   UNL     1       6.479   5.521  -8.998  0.00  0.00    +0.019 A 
ATOM     13  C   UNL     1       7.597   6.190  -9.483  0.00  0.00    +0.002 A 
ATOM     14  C   UNL     1       7.518   6.938 -10.637  0.00  0.00    +0.000 A 
ATOM     15  C   UNL     1       6.454   6.649 -11.475  0.00  0.00    +0.001 A 
ATOM     16  C   UNL     1       5.345   5.933 -11.046  0.00  0.00    +0.015 A 
ATOM     17  N   UNL     1       1.751   6.288 -11.923  0.00  0.00    -0.264 N 
ATOM     18  C   UNL     1       0.382   6.711 -12.031  0.00  0.00    +0.247 C 
ATOM     19  O   UNL     1       0.198   7.605 -11.181  0.00  0.00    -0.273 OA
ATOM     20  C   UNL     1      -0.460   6.584 -13.230  0.00  0.00    +0.179 C 
ENDROOT
BRANCH   9  21
ATOM     21  C   UNL     1       1.295   6.294  -9.568  0.00  0.00    +0.005 A 
ATOM     22  C   UNL     1       0.832   5.462  -8.531  0.00  0.00    +0.038 A 
ATOM     23  C   UNL     1       0.543   6.058  -7.311  0.00  0.00    +0.176 A 
ATOM     24  O   UNL     1      -0.529   6.087  -6.423  0.00  0.00    -0.435 OA
ATOM     25  C   UNL     1      -0.004   6.580  -5.204  0.00  0.00    +0.429 C 
ATOM     26  O   UNL     1       1.361   6.908  -5.458  0.00  0.00    -0.435 OA
ATOM     27  C   UNL     1       1.561   6.874  -6.827  0.00  0.00    +0.176 A 
ATOM     28  C   UNL     1       2.358   7.528  -7.751  0.00  0.00    +0.040 A 
ATOM     29  C   UNL     1       2.355   7.038  -9.052  0.00  0.00    +0.001 A 
ENDBRANCH   9  21
TORSDOF 1
ENDMDL
MODEL 5
REMARK VINA RESULT:      -8.6      1.845      2.474
REMARK  Name = 
REMARK  1 active torsions:
REMARK  status: ('A' for Active; 'I' for Inactive)
REMARK    1  A    between atoms: C_18  and  C_19
REMARK                            x       y       z     vdW  Elec       q    Type
REMARK                         _______ _______ _______ _____ _____    ______ ____
ROOT
ATOM      1  C   UNL     1       4.378   9.094   1.074  0.00  0.00    +0.115 C 
ATOM      2  N   UNL     1       3.981   7.892   0.345  0.00  0.00    -0.268 N 
ATOM      3  C   UNL     1       2.593   7.547   0.492  0.00  0.00    +0.244 C 
ATOM      4  O   UNL     1       1.721   8.404   0.568  0.00  0.00    -0.273 OA
ATOM      5  C   UNL     1       2.233   6.165  -0.318  0.00  0.00    +0.157 C 
ATOM      6  C   UNL     1       0.580   6.415  -0.253  0.00  0.00    +0.057 C 
ATOM      7  C   UNL     1       0.075   6.038  -1.558  0.00  0.00    -0.003 A 
ATOM      8  C   UNL     1       0.684   5.600  -2.658  0.00  0.00    +0.077 A 
ATOM      9  C   UNL     1       2.324   5.553  -2.656  0.00  0.00    +0.138 C 
ATOM     10  N   UNL     1      -0.130   4.777  -3.304  0.00  0.00    -0.248 NA
ATOM     11  C   UNL     1      -1.356   5.321  -3.088  0.00  0.00    +0.081 A 
ATOM     12  C   UNL     1      -2.613   5.168  -3.656  0.00  0.00    +0.019 A 
ATOM     13  C   UNL     1      -3.713   5.863  -3.166  0.00  0.00    +0.002 A 
ATOM     14  C   UNL     1      -3.549   6.866  -2.236  0.00  0.00    +0.000 A 
ATOM     15  C   UNL     1      -2.357   6.849  -1.530  0.00  0.00    +0.001 A 
ATOM     16  C   UNL     1      -1.254   6.120  -1.953  0.00  0.00    +0.015 A 
ATOM     17  N   UNL     1       2.375   6.889  -1.745  0.00  0.00    -0.264 N 
ATOM     18  C   UNL     1       3.700   7.409  -1.948  0.00  0.00    +0.247 C 
ATOM     19  O   UNL     1       3.681   8.086  -2.995  0.00  0.00    -0.273 OA
ATOM     20  C   UNL     1       4.705   7.619  -0.897  0.00  0.00    +0.179 C 
ENDROOT
BRANCH   9  21
ATOM     21  C   UNL     1       2.503   6.368  -4.083  0.00  0.00    +0.005 A 
ATOM     22  C   UNL     1       3.113   5.402  -4.906  0.00  0.00    +0.038 A 
ATOM     23  C   UNL     1       3.243   5.699  -6.256  0.00  0.00    +0.176 A 
ATOM     24  O   UNL     1       4.266   5.707  -7.200  0.00  0.00    -0.435 OA
ATOM     25  C   UNL     1       3.623   5.743  -8.462  0.00  0.00    +0.429 C 
ATOM     26  O   UNL     1       2.225   5.844  -8.197  0.00  0.00    -0.435 OA
ATOM     27  C   UNL     1       2.065   6.134  -6.853  0.00  0.00    +0.176 A 
ATOM     28  C   UNL     1       1.164   6.836  -6.069  0.00  0.00    +0.040 A 
ATOM     29  C   UNL     1       1.299   6.719  -4.690  0.00  0.00    +0.001 A 
ENDBRANCH   9  21
TORSDOF 1
ENDMDL
MODEL 6
REMARK VINA RESULT:      -8.5      3.171      7.790
REMARK  Name = 
REMARK  1 active torsions:
REMARK  status: ('A' for Active; 'I' for Inactive)
REMARK    1  A    between atoms: C_18  and  C_19
REMARK                            x       y       z     vdW  Elec       q    Type
REMARK                         _______ _______ _______ _____ _____    ______ ____
ROOT
ATOM      1  C   UNL     1      -1.293   7.186 -11.554  0.00  0.00    +0.115 C 
ATOM      2  N   UNL     1      -0.375   6.226 -10.947  0.00  0.00    -0.268 N 
ATOM      3  C   UNL     1       0.943   6.227 -11.523  0.00  0.00    +0.244 C 
ATOM      4  O   UNL     1       1.474   7.259 -11.912  0.00  0.00    -0.273 OA
ATOM      5  C   UNL     1       1.901   5.094 -10.820  0.00  0.00    +0.157 C 
ATOM      6  C   UNL     1       3.318   5.744 -11.429  0.00  0.00    +0.057 C 
ATOM      7  C   UNL     1       4.278   5.675 -10.345  0.00  0.00    -0.003 A 
ATOM      8  C   UNL     1       4.177   5.240  -9.091  0.00  0.00    +0.077 A 
ATOM      9  C   UNL     1       2.696   4.781  -8.558  0.00  0.00    +0.138 C 
ATOM     10  N   UNL     1       5.345   4.738  -8.713  0.00  0.00    -0.248 NA
ATOM     11  C   UNL     1       6.245   5.542  -9.336  0.00  0.00    +0.081 A 
ATOM     12  C   UNL     1       7.605   5.785  -9.202  0.00  0.00    +0.019 A 
ATOM     13  C   UNL     1       8.264   6.667 -10.050  0.00  0.00    +0.002 A 
ATOM     14  C   UNL     1       7.554   7.470 -10.915  0.00  0.00    +0.000 A 
ATOM     15  C   UNL     1       6.260   7.063 -11.195  0.00  0.00    +0.001 A 
ATOM     16  C   UNL     1       5.586   6.140 -10.407  0.00  0.00    +0.015 A 
ATOM     17  N   UNL     1       2.000   5.935  -9.454  0.00  0.00    -0.264 N 
ATOM     18  C   UNL     1       0.709   6.124  -8.852  0.00  0.00    +0.247 C 
ATOM     19  O   UNL     1       0.853   6.912  -7.896  0.00  0.00    -0.273 OA
ATOM     20  C   UNL     1      -0.584   5.939  -9.527  0.00  0.00    +0.179 C 
ENDROOT
BRANCH   9  21
ATOM     21  C   UNL     1       2.735   5.698  -7.183  0.00  0.00    +0.005 A 
ATOM     22  C   UNL     1       2.468   4.748  -6.180  0.00  0.00    +0.038 A 
ATOM     23  C   UNL     1       2.609   5.152  -4.859  0.00  0.00    +0.176 A 
ATOM     24  O   UNL     1       1.836   5.126  -3.701  0.00  0.00    -0.435 OA
ATOM     25  C   UNL     1       2.738   5.357  -2.634  0.00  0.00    +0.429 C 
ATOM     26  O   UNL     1       4.012   5.599  -3.229  0.00  0.00    -0.435 OA
ATOM     27  C   UNL     1       3.820   5.779  -4.588  0.00  0.00    +0.176 A 
ATOM     28  C   UNL     1       4.413   6.507  -5.606  0.00  0.00    +0.040 A 
ATOM     29  C   UNL     1       3.986   6.246  -6.903  0.00  0.00    +0.001 A 
ENDBRANCH   9  21
TORSDOF 1
ENDMDL
MODEL 7
REMARK VINA RESULT:      -8.2      2.259      6.395
REMARK  Name = 
REMARK  1 active torsions:
REMARK  status: ('A' for Active; 'I' for Inactive)
REMARK    1  A    between atoms: C_18  and  C_19
REMARK                            x       y       z     vdW  Elec       q    Type
REMARK                         _______ _______ _______ _____ _____    ______ ____
ROOT
ATOM      1  C   UNL     1      -2.749   6.009  -6.391  0.00  0.00    +0.115 C 
ATOM      2  N   UNL     1      -1.467   5.358  -6.132  0.00  0.00    -0.268 N 
ATOM      3  C   UNL     1      -0.643   5.197  -7.299  0.00  0.00    +0.244 C 
ATOM      4  O   UNL     1      -0.611   6.041  -8.186  0.00  0.00    -0.273 OA
ATOM      5  C   UNL     1       0.758   4.420  -6.937  0.00  0.00    +0.157 C 
ATOM      6  C   UNL     1       1.509   4.857  -8.367  0.00  0.00    +0.057 C 
ATOM      7  C   UNL     1       2.867   5.209  -8.004  0.00  0.00    -0.003 A 
ATOM      8  C   UNL     1       3.496   5.245  -6.831  0.00  0.00    +0.077 A 
ATOM      9  C   UNL     1       2.612   4.956  -5.480  0.00  0.00    +0.138 C 
ATOM     10  N   UNL     1       4.775   4.948  -7.018  0.00  0.00    -0.248 NA
ATOM     11  C   UNL     1       5.050   5.508  -8.224  0.00  0.00    +0.081 A 
ATOM     12  C   UNL     1       6.209   5.827  -8.919  0.00  0.00    +0.019 A 
ATOM     13  C   UNL     1       6.154   6.372 -10.196  0.00  0.00    +0.002 A 
ATOM     14  C   UNL     1       4.955   6.792 -10.727  0.00  0.00    +0.000 A 
ATOM     15  C   UNL     1       3.815   6.270 -10.137  0.00  0.00    +0.001 A 
ATOM     16  C   UNL     1       3.837   5.664  -8.888  0.00  0.00    +0.015 A 
ATOM     17  N   UNL     1       1.333   5.693  -6.143  0.00  0.00    -0.264 N 
ATOM     18  C   UNL     1       0.501   6.041  -5.024  0.00  0.00    +0.247 C 
ATOM     19  O   UNL     1       0.924   7.121  -4.564  0.00  0.00    -0.273 OA
ATOM     20  C   UNL     1      -0.880   5.586  -4.811  0.00  0.00    +0.179 C 
ENDROOT
BRANCH   9  21
ATOM     21  C   UNL     1       3.125   6.302  -4.669  0.00  0.00    +0.005 A 
ATOM     22  C   UNL     1       3.088   5.877  -3.328  0.00  0.00    +0.038 A 
ATOM     23  C   UNL     1       3.641   6.719  -2.372  0.00  0.00    +0.176 A 
ATOM     24  O   UNL     1       3.242   7.286  -1.165  0.00  0.00    -0.435 OA
ATOM     25  C   UNL     1       4.432   7.728  -0.537  0.00  0.00    +0.429 C 
ATOM     26  O   UNL     1       5.491   7.475  -1.460  0.00  0.00    -0.435 OA
ATOM     27  C   UNL     1       4.925   7.156  -2.682  0.00  0.00    +0.176 A 
ATOM     28  C   UNL     1       5.249   7.311  -4.019  0.00  0.00    +0.040 A 
ATOM     29  C   UNL     1       4.442   6.664  -4.947  0.00  0.00    +0.001 A 
ENDBRANCH   9  21
TORSDOF 1
ENDMDL
MODEL 8
REMARK VINA RESULT:      -8.1      3.579      5.702
REMARK  Name = 
REMARK  1 active torsions:
REMARK  status: ('A' for Active; 'I' for Inactive)
REMARK    1  A    between atoms: C_18  and  C_19
REMARK                            x       y       z     vdW  Elec       q    Type
REMARK                         _______ _______ _______ _____ _____    ______ ____
ROOT
ATOM      1  C   UNL     1       7.428   5.768  -9.000  0.00  0.00    +0.115 C 
ATOM      2  N   UNL     1       6.142   5.169  -9.351  0.00  0.00    -0.268 N 
ATOM      3  C   UNL     1       5.245   5.008  -8.238  0.00  0.00    +0.244 C 
ATOM      4  O   UNL     1       5.191   5.830  -7.332  0.00  0.00    -0.273 OA
ATOM      5  C   UNL     1       3.843   4.290  -8.701  0.00  0.00    +0.157 C 
ATOM      6  C   UNL     1       3.024   4.718  -7.305  0.00  0.00    +0.057 C 
ATOM      7  C   UNL     1       1.703   5.127  -7.737  0.00  0.00    -0.003 A 
ATOM      8  C   UNL     1       1.145   5.214  -8.943  0.00  0.00    +0.077 A 
ATOM      9  C   UNL     1       2.097   4.928 -10.248  0.00  0.00    +0.138 C 
ATOM     10  N   UNL     1      -0.152   4.958  -8.838  0.00  0.00    -0.248 NA
ATOM     11  C   UNL     1      -0.478   5.497  -7.635  0.00  0.00    +0.081 A 
ATOM     12  C   UNL     1      -1.664   5.840  -7.000  0.00  0.00    +0.019 A 
ATOM     13  C   UNL     1      -1.666   6.350  -5.707  0.00  0.00    +0.002 A 
ATOM     14  C   UNL     1      -0.486   6.713  -5.096  0.00  0.00    +0.000 A 
ATOM     15  C   UNL     1       0.668   6.166  -5.634  0.00  0.00    +0.001 A 
ATOM     16  C   UNL     1       0.698   5.594  -6.898  0.00  0.00    +0.015 A 
ATOM     17  N   UNL     1       3.359   5.603  -9.492  0.00  0.00    -0.264 N 
ATOM     18  C   UNL     1       4.266   5.950 -10.552  0.00  0.00    +0.247 C 
ATOM     19  O   UNL     1       3.908   7.055 -11.005  0.00  0.00    -0.273 OA
ATOM     20  C   UNL     1       5.641   5.451 -10.697  0.00  0.00    +0.179 C 
ENDROOT
BRANCH   9  21
ATOM     21  C   UNL     1       1.678   6.312 -11.050  0.00  0.00    +0.005 A 
ATOM     22  C   UNL     1       1.715   5.902 -12.396  0.00  0.00    +0.038 A 
ATOM     23  C   UNL     1       1.229   6.786 -13.350  0.00  0.00    +0.176 A 
ATOM     24  O   UNL     1       1.683   7.343 -14.543  0.00  0.00    -0.435 OA
ATOM     25  C   UNL     1       0.532   7.862 -15.185  0.00  0.00    +0.429 C 
ATOM     26  O   UNL     1      -0.556   7.660 -14.285  0.00  0.00    -0.435 OA
ATOM     27  C   UNL     1      -0.032   7.294 -13.057  0.00  0.00    +0.176 A 
ATOM     28  C   UNL     1      -0.372   7.452 -11.724  0.00  0.00    +0.040 A 
ATOM     29  C   UNL     1       0.380   6.747 -10.790  0.00  0.00    +0.001 A 
ENDBRANCH   9  21
TORSDOF 1
ENDMDL
MODEL 9
REMARK VINA RESULT:      -8.0      3.473      7.268
REMARK  Name = 
REMARK  1 active torsions:
REMARK  status: ('A' for Active; 'I' for Inactive)
REMARK    1  A    between atoms: C_18  and  C_19
REMARK                            x       y       z     vdW  Elec       q    Type
REMARK                         _______ _______ _______ _____ _____    ______ ____
ROOT
ATOM      1  C   UNL     1       0.582   4.250  -5.630  0.00  0.00    +0.115 C 
ATOM      2  N   UNL     1       1.019   5.322  -6.522  0.00  0.00    -0.268 N 
ATOM      3  C   UNL     1       2.447   5.469  -6.609  0.00  0.00    +0.244 C 
ATOM      4  O   UNL     1       3.196   4.502  -6.575  0.00  0.00    -0.273 OA
ATOM      5  C   UNL     1       2.858   6.718  -7.592  0.00  0.00    +0.157 C 
ATOM      6  C   UNL     1       4.453   6.233  -7.740  0.00  0.00    +0.057 C 
ATOM      7  C   UNL     1       4.795   6.431  -9.134  0.00  0.00    -0.003 A 
ATOM      8  C   UNL     1       4.086   6.870 -10.173  0.00  0.00    +0.077 A 
ATOM      9  C   UNL     1       2.489   7.158  -9.941  0.00  0.00    +0.138 C 
ATOM     10  N   UNL     1       4.894   7.513 -11.005  0.00  0.00    -0.248 NA
ATOM     11  C   UNL     1       6.054   6.812 -10.915  0.00  0.00    +0.081 A 
ATOM     12  C   UNL     1       7.217   6.735 -11.669  0.00  0.00    +0.019 A 
ATOM     13  C   UNL     1       8.276   5.925 -11.276  0.00  0.00    +0.002 A 
ATOM     14  C   UNL     1       8.126   5.031 -10.239  0.00  0.00    +0.000 A 
ATOM     15  C   UNL     1       7.071   5.277  -9.375  0.00  0.00    +0.001 A 
ATOM     16  C   UNL     1       6.024   6.125  -9.706  0.00  0.00    +0.015 A 
ATOM     17  N   UNL     1       2.401   5.916  -8.908  0.00  0.00    -0.264 N 
ATOM     18  C   UNL     1       1.003   5.583  -8.868  0.00  0.00    +0.247 C 
ATOM     19  O   UNL     1       0.768   4.833  -9.836  0.00  0.00    -0.273 OA
ATOM     20  C   UNL     1       0.154   5.604  -7.668  0.00  0.00    +0.179 C 
ENDROOT
BRANCH   9  21
ATOM     21  C   UNL     1       1.982   6.272 -11.243  0.00  0.00    +0.005 A 
ATOM     22  C   UNL     1       1.375   7.250 -12.054  0.00  0.00    +0.038 A 
ATOM     23  C   UNL     1       0.995   6.875 -13.335  0.00  0.00    +0.176 A 
ATOM     24  O   UNL     1      -0.159   6.939 -14.112  0.00  0.00    -0.435 OA
ATOM     25  C   UNL     1       0.265   6.720 -15.445  0.00  0.00    +0.429 C 
ATOM     26  O   UNL     1       1.664   6.446 -15.383  0.00  0.00    -0.435 OA
ATOM     27  C   UNL     1       1.998   6.236 -14.056  0.00  0.00    +0.176 A 
ATOM     28  C   UNL     1       2.917   5.477 -13.352  0.00  0.00    +0.040 A 
ATOM     29  C   UNL     1       3.020   5.713 -11.986  0.00  0.00    +0.001 A 
ENDBRANCH   9  21
TORSDOF 1
ENDMDL
