MODEL 1
REMARK VINA RESULT:      -6.8      0.000      0.000
REMARK  Name = 
REMARK  5 active torsions:
REMARK  status: ('A' for Active; 'I' for Inactive)
REMARK    1  A    between atoms: N_2  and  C_4
REMARK    2  A    between atoms: C_4  and  C_5
REMARK    3  A    between atoms: C_5  and  C_6
REMARK    4  A    between atoms: C_6  and  C_7
REMARK    5  A    between atoms: C_6  and  C_13
REMARK                            x       y       z     vdW  Elec       q    Type
REMARK                         _______ _______ _______ _____ _____    ______ ____
ROOT
ATOM      1  C   UNL     1       1.085   6.396  -7.794  0.00  0.00    +0.064 C 
ENDROOT
BRANCH   1   2
ATOM      2  C   UNL     1       2.246   5.302  -7.507  0.00  0.00    +0.063 A 
ATOM      3  N   UNL     1       2.531   4.576  -8.620  0.00  0.00    -0.248 NA
ATOM      4  C   UNL     1       3.768   4.326  -9.046  0.00  0.00    +0.098 A 
ATOM      5  C   UNL     1       4.886   4.833  -8.401  0.00  0.00    +0.021 A 
ATOM      6  C   UNL     1       4.655   5.604  -7.291  0.00  0.00    +0.003 A 
ATOM      7  C   UNL     1       3.368   5.941  -6.986  0.00  0.00    +0.015 A 
ENDBRANCH   1   2
BRANCH   1   8
ATOM      8  C   UNL     1       0.131   5.837  -6.609  0.00  0.00    -0.017 A 
ATOM      9  C   UNL     1       0.035   6.695  -5.519  0.00  0.00    -0.004 A 
ATOM     10  C   UNL     1      -1.165   7.189  -5.052  0.00  0.00    -0.000 A 
ATOM     11  C   UNL     1      -2.340   6.612  -5.469  0.00  0.00    -0.000 A 
ATOM     12  C   UNL     1      -2.214   5.478  -6.262  0.00  0.00    -0.000 A 
ATOM     13  C   UNL     1      -1.092   5.367  -7.077  0.00  0.00    -0.004 A 
ENDBRANCH   1   8
BRANCH   1  14
ATOM     14  C   UNL     1       0.377   5.495  -8.970  0.00  0.00    +0.028 C 
BRANCH  14  15
ATOM     15  C   UNL     1       0.191   6.331 -10.169  0.00  0.00    +0.073 C 
BRANCH  15  17
ATOM     16  C   UNL     1       0.189   4.743 -11.659  0.00  0.00    +0.090 C 
ATOM     17  N   UNL     1       0.679   5.591 -11.287  0.00  0.00    -0.270 NA
ATOM     18  C   UNL     1       1.822   6.162 -11.947  0.00  0.00    +0.090 C 
ENDBRANCH  15  17
ENDBRANCH  14  15
ENDBRANCH   1  14
TORSDOF 5
ENDMDL
MODEL 2
REMARK VINA RESULT:      -6.8      1.902      2.679
REMARK  Name = 
REMARK  5 active torsions:
REMARK  status: ('A' for Active; 'I' for Inactive)
REMARK    1  A    between atoms: N_2  and  C_4
REMARK    2  A    between atoms: C_4  and  C_5
REMARK    3  A    between atoms: C_5  and  C_6
REMARK    4  A    between atoms: C_6  and  C_7
REMARK    5  A    between atoms: C_6  and  C_13
REMARK                            x       y       z     vdW  Elec       q    Type
REMARK                         _______ _______ _______ _____ _____    ______ ____
ROOT
ATOM      1  C   UNL     1       1.155   6.929  -6.360  0.00  0.00    +0.064 C 
ENDROOT
BRANCH   1   2
ATOM      2  C   UNL     1       2.177   6.553  -5.160  0.00  0.00    +0.063 A 
ATOM      3  N   UNL     1       2.254   5.209  -4.975  0.00  0.00    -0.248 NA
ATOM      4  C   UNL     1       3.399   4.543  -4.837  0.00  0.00    +0.098 A 
ATOM      5  C   UNL     1       4.632   5.173  -4.916  0.00  0.00    +0.021 A 
ATOM      6  C   UNL     1       4.615   6.526  -5.139  0.00  0.00    +0.003 A 
ATOM      7  C   UNL     1       3.420   7.127  -5.412  0.00  0.00    +0.015 A 
ENDBRANCH   1   2
BRANCH   1   8
ATOM      8  C   UNL     1      -0.146   6.413  -5.543  0.00  0.00    -0.017 A 
ATOM      9  C   UNL     1      -0.669   7.361  -4.670  0.00  0.00    -0.004 A 
ATOM     10  C   UNL     1      -1.974   7.802  -4.729  0.00  0.00    -0.000 A 
ATOM     11  C   UNL     1      -2.890   7.097  -5.472  0.00  0.00    -0.000 A 
ATOM     12  C   UNL     1      -2.439   5.906  -6.026  0.00  0.00    -0.000 A 
ATOM     13  C   UNL     1      -1.093   5.806  -6.362  0.00  0.00    -0.004 A 
ENDBRANCH   1   8
BRANCH   1  14
ATOM     14  C   UNL     1       1.388   5.508  -7.149  0.00  0.00    +0.028 C 
BRANCH  14  15
ATOM     15  C   UNL     1       2.045   5.778  -8.440  0.00  0.00    +0.073 C 
BRANCH  15  17
ATOM     16  C   UNL     1       2.987   3.826  -8.653  0.00  0.00    +0.090 C 
ATOM     17  N   UNL     1       3.130   4.861  -8.569  0.00  0.00    -0.270 NA
ATOM     18  C   UNL     1       4.429   5.464  -8.699  0.00  0.00    +0.090 C 
ENDBRANCH  15  17
ENDBRANCH  14  15
ENDBRANCH   1  14
TORSDOF 5
ENDMDL
MODEL 3
REMARK VINA RESULT:      -6.7      2.176      5.733
REMARK  Name = 
REMARK  5 active torsions:
REMARK  status: ('A' for Active; 'I' for Inactive)
REMARK    1  A    between atoms: N_2  and  C_4
REMARK    2  A    between atoms: C_4  and  C_5
REMARK    3  A    between atoms: C_5  and  C_6
REMARK    4  A    between atoms: C_6  and  C_7
REMARK    5  A    between atoms: C_6  and  C_13
REMARK                            x       y       z     vdW  Elec       q    Type
REMARK                         _______ _______ _______ _____ _____    ______ ____
ROOT
ATOM      1  C   UNL     1       3.981   5.292  -9.872  0.00  0.00    +0.064 C 
ENDROOT
BRANCH   1   2
ATOM      2  C   UNL     1       3.473   5.564  -8.358  0.00  0.00    +0.063 A 
ATOM      3  N   UNL     1       3.112   6.862  -8.179  0.00  0.00    -0.248 NA
ATOM      4  C   UNL     1       1.987   7.243  -7.577  0.00  0.00    +0.098 A 
ATOM      5  C   UNL     1       1.052   6.329  -7.114  0.00  0.00    +0.021 A 
ATOM      6  C   UNL     1       1.348   5.003  -7.301  0.00  0.00    +0.003 A 
ATOM      7  C   UNL     1       2.445   4.678  -8.047  0.00  0.00    +0.015 A 
ENDBRANCH   1   2
BRANCH   1   8
ATOM      8  C   UNL     1       5.237   6.307  -9.735  0.00  0.00    -0.017 A 
ATOM      9  C   UNL     1       6.408   5.690  -9.306  0.00  0.00    -0.004 A 
ATOM     10  C   UNL     1       7.586   5.729 -10.020  0.00  0.00    -0.000 A 
ATOM     11  C   UNL     1       7.724   6.633 -11.046  0.00  0.00    -0.000 A 
ATOM     12  C   UNL     1       6.677   7.532 -11.209  0.00  0.00    -0.000 A 
ATOM     13  C   UNL     1       5.397   7.124 -10.850  0.00  0.00    -0.004 A 
ENDBRANCH   1   8
BRANCH   1  14
ATOM     14  C   UNL     1       2.976   6.415 -10.525  0.00  0.00    +0.028 C 
BRANCH  14  15
ATOM     15  C   UNL     1       2.095   5.758 -11.507  0.00  0.00    +0.073 C 
BRANCH  15  17
ATOM     16  C   UNL     1       0.290   6.765 -10.824  0.00  0.00    +0.090 C 
ATOM     17  N   UNL     1       0.760   5.848 -11.014  0.00  0.00    -0.270 NA
ATOM     18  C   UNL     1       0.060   4.596 -10.911  0.00  0.00    +0.090 C 
ENDBRANCH  15  17
ENDBRANCH  14  15
ENDBRANCH   1  14
TORSDOF 5
ENDMDL
MODEL 4
REMARK VINA RESULT:      -6.7      2.269      6.188
REMARK  Name = 
REMARK  5 active torsions:
REMARK  status: ('A' for Active; 'I' for Inactive)
REMARK    1  A    between atoms: N_2  and  C_4
REMARK    2  A    between atoms: C_4  and  C_5
REMARK    3  A    between atoms: C_5  and  C_6
REMARK    4  A    between atoms: C_6  and  C_7
REMARK    5  A    between atoms: C_6  and  C_13
REMARK                            x       y       z     vdW  Elec       q    Type
REMARK                         _______ _______ _______ _____ _____    ______ ____
ROOT
ATOM      1  C   UNL     1       3.676   6.805  -9.171  0.00  0.00    +0.064 C 
ENDROOT
BRANCH   1   2
ATOM      2  C   UNL     1       2.567   6.224 -10.200  0.00  0.00    +0.063 A 
ATOM      3  N   UNL     1       2.421   4.880 -10.066  0.00  0.00    -0.248 NA
ATOM      4  C   UNL     1       1.242   4.265  -9.990  0.00  0.00    +0.098 A 
ATOM      5  C   UNL     1       0.044   4.965  -9.997  0.00  0.00    +0.021 A 
ATOM      6  C   UNL     1       0.133   6.330 -10.093  0.00  0.00    +0.003 A 
ATOM      7  C   UNL     1       1.368   6.909 -10.026  0.00  0.00    +0.015 A 
ENDBRANCH   1   2
BRANCH   1   8
ATOM      8  C   UNL     1       4.921   6.289 -10.071  0.00  0.00    -0.017 A 
ATOM      9  C   UNL     1       5.360   7.224 -11.003  0.00  0.00    -0.004 A 
ATOM     10  C   UNL     1       6.659   7.686 -11.052  0.00  0.00    -0.000 A 
ATOM     11  C   UNL     1       7.640   7.015 -10.364  0.00  0.00    -0.000 A 
ATOM     12  C   UNL     1       7.252   5.831  -9.750  0.00  0.00    -0.000 A 
ATOM     13  C   UNL     1       5.937   5.718  -9.312  0.00  0.00    -0.004 A 
ENDBRANCH   1   8
BRANCH   1  14
ATOM     14  C   UNL     1       3.644   5.472  -8.214  0.00  0.00    +0.028 C 
BRANCH  14  15
ATOM     15  C   UNL     1       3.309   5.877  -6.837  0.00  0.00    +0.073 C 
BRANCH  15  17
ATOM     16  C   UNL     1       1.163   5.867  -6.471  0.00  0.00    +0.090 C 
ATOM     17  N   UNL     1       2.044   5.302  -6.516  0.00  0.00    -0.270 NA
ATOM     18  C   UNL     1       2.039   3.871  -6.378  0.00  0.00    +0.090 C 
ENDBRANCH  15  17
ENDBRANCH  14  15
ENDBRANCH   1  14
TORSDOF 5
ENDMDL
MODEL 5
REMARK VINA RESULT:      -6.6      2.803      4.459
REMARK  Name = 
REMARK  5 active torsions:
REMARK  status: ('A' for Active; 'I' for Inactive)
REMARK    1  A    between atoms: N_2  and  C_4
REMARK    2  A    between atoms: C_4  and  C_5
REMARK    3  A    between atoms: C_5  and  C_6
REMARK    4  A    between atoms: C_6  and  C_7
REMARK    5  A    between atoms: C_6  and  C_13
REMARK                            x       y       z     vdW  Elec       q    Type
REMARK                         _______ _______ _______ _____ _____    ______ ____
ROOT
ATOM      1  C   UNL     1       4.387   6.696 -10.827  0.00  0.00    +0.064 C 
ENDROOT
BRANCH   1   2
ATOM      2  C   UNL     1       5.673   5.735 -11.049  0.00  0.00    +0.063 A 
ATOM      3  N   UNL     1       5.795   5.359 -12.349  0.00  0.00    -0.248 NA
ATOM      4  C   UNL     1       6.940   5.397 -13.028  0.00  0.00    +0.098 A 
ATOM      5  C   UNL     1       8.115   5.873 -12.466  0.00  0.00    +0.021 A 
ATOM      6  C   UNL     1       8.042   6.301 -11.165  0.00  0.00    +0.003 A 
ATOM      7  C   UNL     1       6.815   6.369 -10.569  0.00  0.00    +0.015 A 
ENDBRANCH   1   2
BRANCH   1   8
ATOM      8  C   UNL     1       4.077   6.102  -9.352  0.00  0.00    -0.017 A 
ATOM      9  C   UNL     1       3.162   6.860  -8.628  0.00  0.00    -0.004 A 
ATOM     10  C   UNL     1       1.990   6.341  -8.119  0.00  0.00    -0.000 A 
ATOM     11  C   UNL     1       1.825   4.979  -8.058  0.00  0.00    -0.000 A 
ATOM     12  C   UNL     1       2.927   4.216  -8.421  0.00  0.00    -0.000 A 
ATOM     13  C   UNL     1       3.807   4.737  -9.363  0.00  0.00    -0.004 A 
ENDBRANCH   1   8
BRANCH   1  14
ATOM     14  C   UNL     1       3.357   5.676 -11.599  0.00  0.00    +0.028 C 
BRANCH  14  15
ATOM     15  C   UNL     1       2.281   6.463 -12.226  0.00  0.00    +0.073 C 
BRANCH  15  17
ATOM     16  C   UNL     1       0.836   4.942 -11.643  0.00  0.00    +0.090 C 
ATOM     17  N   UNL     1       1.039   5.966 -11.729  0.00  0.00    -0.270 NA
ATOM     18  C   UNL     1       0.131   6.968 -11.238  0.00  0.00    +0.090 C 
ENDBRANCH  15  17
ENDBRANCH  14  15
ENDBRANCH   1  14
TORSDOF 5
ENDMDL
MODEL 6
REMARK VINA RESULT:      -6.5      3.432      5.752
REMARK  Name = 
REMARK  5 active torsions:
REMARK  status: ('A' for Active; 'I' for Inactive)
REMARK    1  A    between atoms: N_2  and  C_4
REMARK    2  A    between atoms: C_4  and  C_5
REMARK    3  A    between atoms: C_5  and  C_6
REMARK    4  A    between atoms: C_6  and  C_7
REMARK    5  A    between atoms: C_6  and  C_13
REMARK                            x       y       z     vdW  Elec       q    Type
REMARK                         _______ _______ _______ _____ _____    ______ ____
ROOT
ATOM      1  C   UNL     1       1.066   5.137  -4.315  0.00  0.00    +0.064 C 
ENDROOT
BRANCH   1   2
ATOM      2  C   UNL     1       2.430   5.628  -5.039  0.00  0.00    +0.063 A 
ATOM      3  N   UNL     1       2.736   6.909  -4.706  0.00  0.00    -0.248 NA
ATOM      4  C   UNL     1       3.952   7.310  -4.337  0.00  0.00    +0.098 A 
ATOM      5  C   UNL     1       5.014   6.426  -4.218  0.00  0.00    +0.021 A 
ATOM      6  C   UNL     1       4.752   5.112  -4.508  0.00  0.00    +0.003 A 
ATOM      7  C   UNL     1       3.460   4.740  -4.743  0.00  0.00    +0.015 A 
ENDBRANCH   1   2
BRANCH   1   8
ATOM      8  C   UNL     1       0.121   6.063  -5.250  0.00  0.00    -0.017 A 
ATOM      9  C   UNL     1      -0.167   5.496  -6.486  0.00  0.00    -0.004 A 
ATOM     10  C   UNL     1      -1.453   5.270  -6.931  0.00  0.00    -0.000 A 
ATOM     11  C   UNL     1      -2.505   5.872  -6.285  0.00  0.00    -0.000 A 
ATOM     12  C   UNL     1      -2.169   6.771  -5.281  0.00  0.00    -0.000 A 
ATOM     13  C   UNL     1      -0.991   6.556  -4.574  0.00  0.00    -0.004 A 
ENDBRANCH   1   8
BRANCH   1  14
ATOM     14  C   UNL     1       1.182   6.243  -3.107  0.00  0.00    +0.028 C 
BRANCH  14  15
ATOM     15  C   UNL     1       1.166   5.543  -1.810  0.00  0.00    +0.073 C 
BRANCH  15  17
ATOM     16  C   UNL     1       2.502   6.756  -0.593  0.00  0.00    +0.090 C 
ATOM     17  N   UNL     1       2.378   5.866  -1.132  0.00  0.00    -0.270 NA
ATOM     18  C   UNL     1       3.378   4.832  -1.139  0.00  0.00    +0.090 C 
ENDBRANCH  15  17
ENDBRANCH  14  15
ENDBRANCH   1  14
TORSDOF 5
ENDMDL
MODEL 7
REMARK VINA RESULT:      -6.4      1.924      4.407
REMARK  Name = 
REMARK  5 active torsions:
REMARK  status: ('A' for Active; 'I' for Inactive)
REMARK    1  A    between atoms: N_2  and  C_4
REMARK    2  A    between atoms: C_4  and  C_5
REMARK    3  A    between atoms: C_5  and  C_6
REMARK    4  A    between atoms: C_6  and  C_7
REMARK    5  A    between atoms: C_6  and  C_13
REMARK                            x       y       z     vdW  Elec       q    Type
REMARK                         _______ _______ _______ _____ _____    ______ ____
ROOT
ATOM      1  C   UNL     1       0.206   5.295  -5.797  0.00  0.00    +0.064 C 
ENDROOT
BRANCH   1   2
ATOM      2  C   UNL     1       0.606   5.962  -7.218  0.00  0.00    +0.063 A 
ATOM      3  N   UNL     1       1.906   5.721  -7.532  0.00  0.00    -0.248 NA
ATOM      4  C   UNL     1       2.316   5.303  -8.729  0.00  0.00    +0.098 A 
ATOM      5  C   UNL     1       1.427   5.032  -9.759  0.00  0.00    +0.021 A 
ATOM      6  C   UNL     1       0.097   5.224  -9.486  0.00  0.00    +0.003 A 
ATOM      7  C   UNL     1      -0.270   5.516  -8.204  0.00  0.00    +0.015 A 
ENDBRANCH   1   2
BRANCH   1   8
ATOM      8  C   UNL     1      -1.119   6.213  -5.630  0.00  0.00    -0.017 A 
ATOM      9  C   UNL     1      -2.182   5.552  -5.024  0.00  0.00    -0.004 A 
ATOM     10  C   UNL     1      -2.797   6.005  -3.876  0.00  0.00    -0.000 A 
ATOM     11  C   UNL     1      -2.569   7.292  -3.452  0.00  0.00    -0.000 A 
ATOM     12  C   UNL     1      -1.805   8.086  -4.299  0.00  0.00    -0.000 A 
ATOM     13  C   UNL     1      -0.845   7.467  -5.092  0.00  0.00    -0.004 A 
ENDBRANCH   1   8
BRANCH   1  14
ATOM     14  C   UNL     1       1.173   6.301  -4.931  0.00  0.00    +0.028 C 
BRANCH  14  15
ATOM     15  C   UNL     1       1.952   5.506  -3.966  0.00  0.00    +0.073 C 
BRANCH  15  17
ATOM     16  C   UNL     1       3.935   4.825  -4.555  0.00  0.00    +0.090 C 
ATOM     17  N   UNL     1       3.330   5.645  -4.308  0.00  0.00    -0.270 NA
ATOM     18  C   UNL     1       3.801   6.999  -4.412  0.00  0.00    +0.090 C 
ENDBRANCH  15  17
ENDBRANCH  14  15
ENDBRANCH   1  14
TORSDOF 5
ENDMDL
MODEL 8
REMARK VINA RESULT:      -6.4      1.972      4.765
REMARK  Name = 
REMARK  5 active torsions:
REMARK  status: ('A' for Active; 'I' for Inactive)
REMARK    1  A    between atoms: N_2  and  C_4
REMARK    2  A    between atoms: C_4  and  C_5
REMARK    3  A    between atoms: C_5  and  C_6
REMARK    4  A    between atoms: C_6  and  C_7
REMARK    5  A    between atoms: C_6  and  C_13
REMARK                            x       y       z     vdW  Elec       q    Type
REMARK                         _______ _______ _______ _____ _____    ______ ____
ROOT
ATOM      1  C   UNL     1       1.239   6.602  -9.216  0.00  0.00    +0.064 C 
ENDROOT
BRANCH   1   2
ATOM      2  C   UNL     1       0.791   5.332  -8.315  0.00  0.00    +0.063 A 
ATOM      3  N   UNL     1       1.769   4.971  -7.443  0.00  0.00    -0.248 NA
ATOM      4  C   UNL     1       1.556   4.711  -6.155  0.00  0.00    +0.098 A 
ATOM      5  C   UNL     1       0.301   4.832  -5.576  0.00  0.00    +0.021 A 
ATOM      6  C   UNL     1      -0.718   5.230  -6.403  0.00  0.00    +0.003 A 
ATOM      7  C   UNL     1      -0.412   5.616  -7.676  0.00  0.00    +0.015 A 
ENDBRANCH   1   2
BRANCH   1   8
ATOM      8  C   UNL     1       0.308   6.165 -10.468  0.00  0.00    -0.017 A 
ATOM      9  C   UNL     1       0.095   7.186 -11.388  0.00  0.00    -0.004 A 
ATOM     10  C   UNL     1       0.416   7.077 -12.724  0.00  0.00    -0.000 A 
ATOM     11  C   UNL     1       0.689   5.839 -13.253  0.00  0.00    -0.000 A 
ATOM     12  C   UNL     1       0.506   4.758 -12.400  0.00  0.00    -0.000 A 
ATOM     13  C   UNL     1       0.699   4.956 -11.037  0.00  0.00    -0.004 A 
ENDBRANCH   1   8
BRANCH   1  14
ATOM     14  C   UNL     1       2.587   5.858  -9.788  0.00  0.00    +0.028 C 
BRANCH  14  15
ATOM     15  C   UNL     1       3.722   6.795  -9.710  0.00  0.00    +0.073 C 
BRANCH  15  17
ATOM     16  C   UNL     1       4.103   6.130 -11.748  0.00  0.00    +0.090 C 
ATOM     17  N   UNL     1       4.448   6.692 -10.934  0.00  0.00    -0.270 NA
ATOM     18  C   UNL     1       5.626   7.512 -11.017  0.00  0.00    +0.090 C 
ENDBRANCH  15  17
ENDBRANCH  14  15
ENDBRANCH   1  14
TORSDOF 5
ENDMDL
MODEL 9
REMARK VINA RESULT:      -6.4      2.431      5.899
REMARK  Name = 
REMARK  5 active torsions:
REMARK  status: ('A' for Active; 'I' for Inactive)
REMARK    1  A    between atoms: N_2  and  C_4
REMARK    2  A    between atoms: C_4  and  C_5
REMARK    3  A    between atoms: C_5  and  C_6
REMARK    4  A    between atoms: C_6  and  C_7
REMARK    5  A    between atoms: C_6  and  C_13
REMARK                            x       y       z     vdW  Elec       q    Type
REMARK                         _______ _______ _______ _____ _____    ______ ____
ROOT
ATOM      1  C   UNL     1       1.120   6.568  -6.868  0.00  0.00    +0.064 C 
ENDROOT
BRANCH   1   2
ATOM      2  C   UNL     1       0.075   5.505  -6.233  0.00  0.00    +0.063 A 
ATOM      3  N   UNL     1      -0.047   5.669  -4.890  0.00  0.00    -0.248 NA
ATOM      4  C   UNL     1      -1.214   5.707  -4.249  0.00  0.00    +0.098 A 
ATOM      5  C   UNL     1      -2.426   5.625  -4.920  0.00  0.00    +0.021 A 
ATOM      6  C   UNL     1      -2.363   5.495  -6.284  0.00  0.00    +0.003 A 
ATOM      7  C   UNL     1      -1.146   5.603  -6.894  0.00  0.00    +0.015 A 
ENDBRANCH   1   2
BRANCH   1   8
ATOM      8  C   UNL     1       1.459   5.622  -8.139  0.00  0.00    -0.017 A 
ATOM      9  C   UNL     1       2.016   6.309  -9.213  0.00  0.00    -0.004 A 
ATOM     10  C   UNL     1       3.237   5.985  -9.764  0.00  0.00    -0.000 A 
ATOM     11  C   UNL     1       3.817   4.778  -9.457  0.00  0.00    -0.000 A 
ATOM     12  C   UNL     1       3.051   3.914  -8.685  0.00  0.00    -0.000 A 
ATOM     13  C   UNL     1       2.146   4.465  -7.784  0.00  0.00    -0.004 A 
ENDBRANCH   1   8
BRANCH   1  14
ATOM     14  C   UNL     1       2.381   6.031  -5.964  0.00  0.00    +0.028 C 
BRANCH  14  15
ATOM     15  C   UNL     1       3.367   7.117  -5.822  0.00  0.00    +0.073 C 
BRANCH  15  17
ATOM     16  C   UNL     1       4.988   7.320  -4.382  0.00  0.00    +0.090 C 
ATOM     17  N   UNL     1       4.380   6.663  -4.925  0.00  0.00    -0.270 NA
ATOM     18  C   UNL     1       4.427   5.239  -4.726  0.00  0.00    +0.090 C 
ENDBRANCH  15  17
ENDBRANCH  14  15
ENDBRANCH   1  14
TORSDOF 5
ENDMDL
