MODEL 1
REMARK VINA RESULT:      -7.1      0.000      0.000
REMARK  Name = 
REMARK  3 active torsions:
REMARK  status: ('A' for Active; 'I' for Inactive)
REMARK    1  A    between atoms: O_2  and  C_3
REMARK    2  A    between atoms: C_6  and  C_7
REMARK    3  A    between atoms: C_7  and  C_9
REMARK                            x       y       z     vdW  Elec       q    Type
REMARK                         _______ _______ _______ _____ _____    ______ ____
ROOT
ATOM      1  C   UNL     1       2.467   6.360  -5.157  0.00  0.00    +0.142 A 
ATOM      2  C   UNL     1       1.916   6.939  -6.292  0.00  0.00    +0.079 A 
ATOM      3  C   UNL     1       2.601   6.874  -7.475  0.00  0.00    +0.202 A 
ATOM      4  O   UNL     1       2.174   7.703  -8.516  0.00  0.00    -0.286 OA
ATOM      5  C   UNL     1       3.826   6.242  -7.625  0.00  0.00    +0.078 A 
ATOM      6  C   UNL     1       4.384   5.750  -6.452  0.00  0.00    +0.010 A 
ATOM      7  C   UNL     1       3.769   5.907  -5.217  0.00  0.00    +0.037 A 
ENDROOT
BRANCH   1   9
ATOM      8  C   UNL     1       0.930   5.817  -3.357  0.00  0.00    +0.252 C 
ATOM      9  O   UNL     1       1.864   6.693  -3.940  0.00  0.00    -0.471 OA
ENDBRANCH   1   9
BRANCH   5  10
ATOM     10  C   UNL     1       4.058   5.586  -8.918  0.00  0.00    +0.199 C 
ATOM     11  O   UNL     1       3.399   4.518  -9.104  0.00  0.00    -0.286 OA
BRANCH  10  12
ATOM     12  C   UNL     1       5.164   5.973  -9.804  0.00  0.00    +0.039 A 
ATOM     13  C   UNL     1       4.975   7.125 -10.558  0.00  0.00    +0.003 A 
ATOM     14  C   UNL     1       5.995   7.745 -11.243  0.00  0.00    +0.000 A 
ATOM     15  C   UNL     1       7.279   7.464 -10.859  0.00  0.00    +0.000 A 
ATOM     16  C   UNL     1       7.539   6.305 -10.171  0.00  0.00    +0.000 A 
ATOM     17  C   UNL     1       6.490   5.725  -9.470  0.00  0.00    +0.003 A 
ENDBRANCH  10  12
ENDBRANCH   5  10
TORSDOF 3
ENDMDL
MODEL 2
REMARK VINA RESULT:      -7.0      2.330      6.591
REMARK  Name = 
REMARK  3 active torsions:
REMARK  status: ('A' for Active; 'I' for Inactive)
REMARK    1  A    between atoms: O_2  and  C_3
REMARK    2  A    between atoms: C_6  and  C_7
REMARK    3  A    between atoms: C_7  and  C_9
REMARK                            x       y       z     vdW  Elec       q    Type
REMARK                         _______ _______ _______ _____ _____    ______ ____
ROOT
ATOM      1  C   UNL     1       3.864   5.416  -9.374  0.00  0.00    +0.142 A 
ATOM      2  C   UNL     1       3.548   6.709  -8.981  0.00  0.00    +0.079 A 
ATOM      3  C   UNL     1       2.555   6.906  -8.060  0.00  0.00    +0.202 A 
ATOM      4  O   UNL     1       2.064   8.205  -7.904  0.00  0.00    -0.286 OA
ATOM      5  C   UNL     1       1.838   5.878  -7.467  0.00  0.00    +0.078 A 
ATOM      6  C   UNL     1       2.122   4.606  -7.947  0.00  0.00    +0.010 A 
ATOM      7  C   UNL     1       3.039   4.387  -8.967  0.00  0.00    +0.037 A 
ENDROOT
BRANCH   1   9
ATOM      8  C   UNL     1       4.720   6.330 -11.453  0.00  0.00    +0.252 C 
ATOM      9  O   UNL     1       4.680   5.295 -10.502  0.00  0.00    -0.471 OA
ENDBRANCH   1   9
BRANCH   5  10
ATOM     10  C   UNL     1       1.430   6.098  -6.073  0.00  0.00    +0.199 C 
ATOM     11  O   UNL     1       2.363   5.999  -5.219  0.00  0.00    -0.286 OA
BRANCH  10  12
ATOM     12  C   UNL     1       0.019   6.148  -5.670  0.00  0.00    +0.039 A 
ATOM     13  C   UNL     1      -0.380   7.275  -4.960  0.00  0.00    +0.003 A 
ATOM     14  C   UNL     1      -1.700   7.581  -4.725  0.00  0.00    +0.000 A 
ATOM     15  C   UNL     1      -2.640   6.999  -5.532  0.00  0.00    +0.000 A 
ATOM     16  C   UNL     1      -2.328   5.844  -6.206  0.00  0.00    +0.000 A 
ATOM     17  C   UNL     1      -0.985   5.585  -6.449  0.00  0.00    +0.003 A 
ENDBRANCH  10  12
ENDBRANCH   5  10
TORSDOF 3
ENDMDL
MODEL 3
REMARK VINA RESULT:      -6.9      2.096      3.335
REMARK  Name = 
REMARK  3 active torsions:
REMARK  status: ('A' for Active; 'I' for Inactive)
REMARK    1  A    between atoms: O_2  and  C_3
REMARK    2  A    between atoms: C_6  and  C_7
REMARK    3  A    between atoms: C_7  and  C_9
REMARK                            x       y       z     vdW  Elec       q    Type
REMARK                         _______ _______ _______ _____ _____    ______ ____
ROOT
ATOM      1  C   UNL     1      -1.331   6.180  -5.567  0.00  0.00    +0.142 A 
ATOM      2  C   UNL     1      -0.218   6.651  -4.885  0.00  0.00    +0.079 A 
ATOM      3  C   UNL     1       0.998   6.659  -5.513  0.00  0.00    +0.202 A 
ATOM      4  O   UNL     1       2.134   6.857  -4.724  0.00  0.00    -0.286 OA
ATOM      5  C   UNL     1       1.195   6.235  -6.819  0.00  0.00    +0.078 A 
ATOM      6  C   UNL     1       0.077   5.693  -7.439  0.00  0.00    +0.010 A 
ATOM      7  C   UNL     1      -1.141   5.560  -6.784  0.00  0.00    +0.037 A 
ENDROOT
BRANCH   1   9
ATOM      8  C   UNL     1      -2.342   5.422  -3.493  0.00  0.00    +0.252 C 
ATOM      9  O   UNL     1      -2.472   5.940  -4.795  0.00  0.00    -0.471 OA
ENDBRANCH   1   9
BRANCH   5  10
ATOM     10  C   UNL     1       2.220   6.958  -7.583  0.00  0.00    +0.199 C 
ATOM     11  O   UNL     1       1.980   8.191  -7.768  0.00  0.00    -0.286 OA
BRANCH  10  12
ATOM     12  C   UNL     1       3.287   6.263  -8.313  0.00  0.00    +0.039 A 
ATOM     13  C   UNL     1       3.679   6.829  -9.520  0.00  0.00    +0.003 A 
ATOM     14  C   UNL     1       4.814   6.441 -10.194  0.00  0.00    +0.000 A 
ATOM     15  C   UNL     1       5.779   5.780  -9.483  0.00  0.00    +0.000 A 
ATOM     16  C   UNL     1       5.438   5.140  -8.317  0.00  0.00    +0.000 A 
ATOM     17  C   UNL     1       4.301   5.581  -7.651  0.00  0.00    +0.003 A 
ENDBRANCH  10  12
ENDBRANCH   5  10
TORSDOF 3
ENDMDL
MODEL 4
REMARK VINA RESULT:      -6.9      1.590      1.856
REMARK  Name = 
REMARK  3 active torsions:
REMARK  status: ('A' for Active; 'I' for Inactive)
REMARK    1  A    between atoms: O_2  and  C_3
REMARK    2  A    between atoms: C_6  and  C_7
REMARK    3  A    between atoms: C_7  and  C_9
REMARK                            x       y       z     vdW  Elec       q    Type
REMARK                         _______ _______ _______ _____ _____    ______ ____
ROOT
ATOM      1  C   UNL     1       0.904   6.259  -6.805  0.00  0.00    +0.142 A 
ATOM      2  C   UNL     1       0.655   5.753  -8.074  0.00  0.00    +0.079 A 
ATOM      3  C   UNL     1       1.687   5.649  -8.966  0.00  0.00    +0.202 A 
ATOM      4  O   UNL     1       1.364   5.419 -10.306  0.00  0.00    -0.286 OA
ATOM      5  C   UNL     1       2.996   6.006  -8.679  0.00  0.00    +0.078 A 
ATOM      6  C   UNL     1       3.189   6.587  -7.432  0.00  0.00    +0.010 A 
ATOM      7  C   UNL     1       2.140   6.816  -6.551  0.00  0.00    +0.037 A 
ENDROOT
BRANCH   1   9
ATOM      8  C   UNL     1      -1.401   5.842  -6.165  0.00  0.00    +0.252 C 
ATOM      9  O   UNL     1      -0.220   6.596  -6.044  0.00  0.00    -0.471 OA
ENDBRANCH   1   9
BRANCH   5  10
ATOM     10  C   UNL     1       4.041   5.194  -9.316  0.00  0.00    +0.199 C 
ATOM     11  O   UNL     1       4.029   3.964  -9.004  0.00  0.00    -0.286 OA
BRANCH  10  12
ATOM     12  C   UNL     1       5.173   5.797 -10.030  0.00  0.00    +0.039 A 
ATOM     13  C   UNL     1       4.913   6.980 -10.712  0.00  0.00    +0.003 A 
ATOM     14  C   UNL     1       5.907   7.784 -11.220  0.00  0.00    +0.000 A 
ATOM     15  C   UNL     1       7.167   7.634 -10.707  0.00  0.00    +0.000 A 
ATOM     16  C   UNL     1       7.507   6.459 -10.083  0.00  0.00    +0.000 A 
ATOM     17  C   UNL     1       6.476   5.689  -9.559  0.00  0.00    +0.003 A 
ENDBRANCH  10  12
ENDBRANCH   5  10
TORSDOF 3
ENDMDL
MODEL 5
REMARK VINA RESULT:      -6.8      2.087      6.298
REMARK  Name = 
REMARK  3 active torsions:
REMARK  status: ('A' for Active; 'I' for Inactive)
REMARK    1  A    between atoms: O_2  and  C_3
REMARK    2  A    between atoms: C_6  and  C_7
REMARK    3  A    between atoms: C_7  and  C_9
REMARK                            x       y       z     vdW  Elec       q    Type
REMARK                         _______ _______ _______ _____ _____    ______ ____
ROOT
ATOM      1  C   UNL     1       5.381   5.924 -10.022  0.00  0.00    +0.142 A 
ATOM      2  C   UNL     1       4.200   6.265 -10.666  0.00  0.00    +0.079 A 
ATOM      3  C   UNL     1       3.041   6.341  -9.941  0.00  0.00    +0.202 A 
ATOM      4  O   UNL     1       1.837   6.396 -10.649  0.00  0.00    -0.286 OA
ATOM      5  C   UNL     1       2.967   6.112  -8.576  0.00  0.00    +0.078 A 
ATOM      6  C   UNL     1       4.151   5.691  -7.983  0.00  0.00    +0.010 A 
ATOM      7  C   UNL     1       5.314   5.488  -8.715  0.00  0.00    +0.037 A 
ENDROOT
BRANCH   1   9
ATOM      8  C   UNL     1       7.588   6.435 -10.896  0.00  0.00    +0.252 C 
ATOM      9  O   UNL     1       6.461   5.595 -10.847  0.00  0.00    -0.471 OA
ENDBRANCH   1   9
BRANCH   5  10
ATOM     10  C   UNL     1       1.987   6.919  -7.839  0.00  0.00    +0.199 C 
ATOM     11  O   UNL     1       2.273   8.152  -7.738  0.00  0.00    -0.286 OA
BRANCH  10  12
ATOM     12  C   UNL     1       0.912   6.311  -7.044  0.00  0.00    +0.039 A 
ATOM     13  C   UNL     1       0.504   7.015  -5.917  0.00  0.00    +0.003 A 
ATOM     14  C   UNL     1      -0.637   6.705  -5.216  0.00  0.00    +0.000 A 
ATOM     15  C   UNL     1      -1.592   5.961  -5.854  0.00  0.00    +0.000 A 
ATOM     16  C   UNL     1      -1.236   5.188  -6.932  0.00  0.00    +0.000 A 
ATOM     17  C   UNL     1      -0.092   5.551  -7.632  0.00  0.00    +0.003 A 
ENDBRANCH  10  12
ENDBRANCH   5  10
TORSDOF 3
ENDMDL
MODEL 6
REMARK VINA RESULT:      -6.7      2.429      6.439
REMARK  Name = 
REMARK  3 active torsions:
REMARK  status: ('A' for Active; 'I' for Inactive)
REMARK    1  A    between atoms: O_2  and  C_3
REMARK    2  A    between atoms: C_6  and  C_7
REMARK    3  A    between atoms: C_7  and  C_9
REMARK                            x       y       z     vdW  Elec       q    Type
REMARK                         _______ _______ _______ _____ _____    ______ ____
ROOT
ATOM      1  C   UNL     1       4.771   5.709  -9.273  0.00  0.00    +0.142 A 
ATOM      2  C   UNL     1       4.968   5.369  -7.941  0.00  0.00    +0.079 A 
ATOM      3  C   UNL     1       3.924   5.476  -7.062  0.00  0.00    +0.202 A 
ATOM      4  O   UNL     1       4.218   5.412  -5.698  0.00  0.00    -0.286 OA
ATOM      5  C   UNL     1       2.652   5.895  -7.421  0.00  0.00    +0.078 A 
ATOM      6  C   UNL     1       2.516   6.307  -8.741  0.00  0.00    +0.010 A 
ATOM      7  C   UNL     1       3.587   6.323  -9.625  0.00  0.00    +0.037 A 
ENDROOT
BRANCH   1   9
ATOM      8  C   UNL     1       7.193   5.750  -9.451  0.00  0.00    +0.252 C 
ATOM      9  O   UNL     1       5.924   5.843 -10.052  0.00  0.00    -0.471 OA
ENDBRANCH   1   9
BRANCH   5  10
ATOM     10  C   UNL     1       1.539   5.269  -6.696  0.00  0.00    +0.199 C 
ATOM     11  O   UNL     1       1.654   4.018  -6.514  0.00  0.00    -0.286 OA
BRANCH  10  12
ATOM     12  C   UNL     1       0.274   5.970  -6.449  0.00  0.00    +0.039 A 
ATOM     13  C   UNL     1      -0.887   5.293  -6.807  0.00  0.00    +0.003 A 
ATOM     14  C   UNL     1      -2.141   5.706  -6.423  0.00  0.00    +0.000 A 
ATOM     15  C   UNL     1      -2.230   6.554  -5.352  0.00  0.00    +0.000 A 
ATOM     16  C   UNL     1      -1.137   7.303  -4.992  0.00  0.00    +0.000 A 
ATOM     17  C   UNL     1       0.115   6.837  -5.375  0.00  0.00    +0.003 A 
ENDBRANCH  10  12
ENDBRANCH   5  10
TORSDOF 3
ENDMDL
MODEL 7
REMARK VINA RESULT:      -6.5      1.524      2.412
REMARK  Name = 
REMARK  3 active torsions:
REMARK  status: ('A' for Active; 'I' for Inactive)
REMARK    1  A    between atoms: O_2  and  C_3
REMARK    2  A    between atoms: C_6  and  C_7
REMARK    3  A    between atoms: C_7  and  C_9
REMARK                            x       y       z     vdW  Elec       q    Type
REMARK                         _______ _______ _______ _____ _____    ______ ____
ROOT
ATOM      1  C   UNL     1       3.132   6.817  -6.612  0.00  0.00    +0.142 A 
ATOM      2  C   UNL     1       3.673   5.630  -7.086  0.00  0.00    +0.079 A 
ATOM      3  C   UNL     1       3.537   5.315  -8.411  0.00  0.00    +0.202 A 
ATOM      4  O   UNL     1       3.827   4.004  -8.798  0.00  0.00    -0.286 OA
ATOM      5  C   UNL     1       2.895   6.125  -9.336  0.00  0.00    +0.078 A 
ATOM      6  C   UNL     1       2.293   7.260  -8.808  0.00  0.00    +0.010 A 
ATOM      7  C   UNL     1       2.311   7.545  -7.449  0.00  0.00    +0.037 A 
ENDROOT
BRANCH   1   9
ATOM      8  C   UNL     1       1.968   6.412  -4.520  0.00  0.00    +0.252 C 
ATOM      9  O   UNL     1       3.061   6.951  -5.222  0.00  0.00    -0.471 OA
ENDBRANCH   1   9
BRANCH   5  10
ATOM     10  C   UNL     1       3.447   6.112 -10.696  0.00  0.00    +0.199 C 
ATOM     11  O   UNL     1       2.651   5.698 -11.594  0.00  0.00    -0.286 OA
BRANCH  10  12
ATOM     12  C   UNL     1       4.880   6.291 -10.961  0.00  0.00    +0.039 A 
ATOM     13  C   UNL     1       5.457   5.401 -11.860  0.00  0.00    +0.003 A 
ATOM     14  C   UNL     1       6.713   5.584 -12.390  0.00  0.00    +0.000 A 
ATOM     15  C   UNL     1       7.240   6.846 -12.351  0.00  0.00    +0.000 A 
ATOM     16  C   UNL     1       6.759   7.751 -11.436  0.00  0.00    +0.000 A 
ATOM     17  C   UNL     1       5.475   7.546 -10.945  0.00  0.00    +0.003 A 
ENDBRANCH  10  12
ENDBRANCH   5  10
TORSDOF 3
ENDMDL
MODEL 8
REMARK VINA RESULT:      -6.4      3.895      5.766
REMARK  Name = 
REMARK  3 active torsions:
REMARK  status: ('A' for Active; 'I' for Inactive)
REMARK    1  A    between atoms: O_2  and  C_3
REMARK    2  A    between atoms: C_6  and  C_7
REMARK    3  A    between atoms: C_7  and  C_9
REMARK                            x       y       z     vdW  Elec       q    Type
REMARK                         _______ _______ _______ _____ _____    ______ ____
ROOT
ATOM      1  C   UNL     1       4.153   6.602  -3.354  0.00  0.00    +0.142 A 
ATOM      2  C   UNL     1       3.760   7.376  -4.437  0.00  0.00    +0.079 A 
ATOM      3  C   UNL     1       3.181   6.768  -5.519  0.00  0.00    +0.202 A 
ATOM      4  O   UNL     1       3.066   7.513  -6.695  0.00  0.00    -0.286 OA
ATOM      5  C   UNL     1       2.941   5.405  -5.602  0.00  0.00    +0.078 A 
ATOM      6  C   UNL     1       3.425   4.654  -4.538  0.00  0.00    +0.010 A 
ATOM      7  C   UNL     1       4.123   5.229  -3.483  0.00  0.00    +0.037 A 
ENDROOT
BRANCH   1   9
ATOM      8  C   UNL     1       4.731   7.056  -1.040  0.00  0.00    +0.252 C 
ATOM      9  O   UNL     1       4.976   7.229  -2.414  0.00  0.00    -0.471 OA
ENDBRANCH   1   9
BRANCH   5  10
ATOM     10  C   UNL     1       1.731   5.008  -6.333  0.00  0.00    +0.199 C 
ATOM     11  O   UNL     1       1.941   4.388  -7.420  0.00  0.00    -0.286 OA
BRANCH  10  12
ATOM     12  C   UNL     1       0.402   5.526  -5.985  0.00  0.00    +0.039 A 
ATOM     13  C   UNL     1      -0.581   5.406  -6.961  0.00  0.00    +0.003 A 
ATOM     14  C   UNL     1      -1.916   5.619  -6.706  0.00  0.00    +0.000 A 
ATOM     15  C   UNL     1      -2.331   5.553  -5.404  0.00  0.00    +0.000 A 
ATOM     16  C   UNL     1      -1.418   5.733  -4.394  0.00  0.00    +0.000 A 
ATOM     17  C   UNL     1      -0.083   5.481  -4.684  0.00  0.00    +0.003 A 
ENDBRANCH  10  12
ENDBRANCH   5  10
TORSDOF 3
ENDMDL
MODEL 9
REMARK VINA RESULT:      -6.3      1.585      2.086
REMARK  Name = 
REMARK  3 active torsions:
REMARK  status: ('A' for Active; 'I' for Inactive)
REMARK    1  A    between atoms: O_2  and  C_3
REMARK    2  A    between atoms: C_6  and  C_7
REMARK    3  A    between atoms: C_7  and  C_9
REMARK                            x       y       z     vdW  Elec       q    Type
REMARK                         _______ _______ _______ _____ _____    ______ ____
ROOT
ATOM      1  C   UNL     1       3.946   5.996  -4.601  0.00  0.00    +0.142 A 
ATOM      2  C   UNL     1       3.460   4.777  -5.054  0.00  0.00    +0.079 A 
ATOM      3  C   UNL     1       2.908   4.700  -6.304  0.00  0.00    +0.202 A 
ATOM      4  O   UNL     1       2.172   3.554  -6.618  0.00  0.00    -0.286 OA
ATOM      5  C   UNL     1       2.814   5.776  -7.175  0.00  0.00    +0.078 A 
ATOM      6  C   UNL     1       3.233   6.994  -6.655  0.00  0.00    +0.010 A 
ATOM      7  C   UNL     1       3.685   7.126  -5.348  0.00  0.00    +0.037 A 
ENDROOT
BRANCH   1   9
ATOM      8  C   UNL     1       4.021   4.959  -2.406  0.00  0.00    +0.252 C 
ATOM      9  O   UNL     1       4.240   6.074  -3.237  0.00  0.00    -0.471 OA
ENDBRANCH   1   9
BRANCH   5  10
ATOM     10  C   UNL     1       2.954   5.463  -8.603  0.00  0.00    +0.199 C 
ATOM     11  O   UNL     1       1.962   4.864  -9.120  0.00  0.00    -0.286 OA
BRANCH  10  12
ATOM     12  C   UNL     1       4.238   5.576  -9.306  0.00  0.00    +0.039 A 
ATOM     13  C   UNL     1       4.345   6.609 -10.231  0.00  0.00    +0.003 A 
ATOM     14  C   UNL     1       5.544   6.992 -10.786  0.00  0.00    +0.000 A 
ATOM     15  C   UNL     1       6.690   6.631 -10.132  0.00  0.00    +0.000 A 
ATOM     16  C   UNL     1       6.664   5.573  -9.257  0.00  0.00    +0.000 A 
ATOM     17  C   UNL     1       5.439   5.235  -8.696  0.00  0.00    +0.003 A 
ENDBRANCH  10  12
ENDBRANCH   5  10
TORSDOF 3
ENDMDL
