MODEL 1
REMARK VINA RESULT:      -6.0      0.000      0.000
REMARK  Name = 
REMARK  12 active torsions:
REMARK  status: ('A' for Active; 'I' for Inactive)
REMARK    1  A    between atoms: N_4  and  C_5
REMARK    2  A    between atoms: N_4  and  C_10
REMARK    3  A    between atoms: C_5  and  C_6
REMARK    4  A    between atoms: C_6  and  C_8
REMARK    5  A    between atoms: C_13  and  C_14
REMARK    6  A    between atoms: N_16  and  C_17
REMARK    7  A    between atoms: C_17  and  C_18
REMARK    8  A    between atoms: C_18  and  C_20
REMARK    9  A    between atoms: C_24  and  C_25
REMARK   10  A    between atoms: N_27  and  C_28
REMARK   11  A    between atoms: C_28  and  C_29
REMARK   12  A    between atoms: C_29  and  C_31
REMARK                            x       y       z     vdW  Elec       q    Type
REMARK                         _______ _______ _______ _____ _____    ______ ____
ROOT
ATOM      1  C   UNL     1       2.901   7.375  -2.621  0.00  0.00    +0.065 A 
ATOM      2  C   UNL     1       3.537   7.130  -3.829  0.00  0.00    +0.049 A 
ATOM      3  I   UNL     1       5.622   7.363  -4.069  0.00  0.00    -0.041 I 
ATOM      4  C   UNL     1       2.852   6.491  -4.826  0.00  0.00    +0.067 A 
ATOM      5  C   UNL     1       1.602   5.952  -4.535  0.00  0.00    +0.040 A 
ATOM      6  I   UNL     1       0.795   4.658  -5.999  0.00  0.00    -0.042 I 
ATOM      7  C   UNL     1       1.214   5.763  -3.215  0.00  0.00    +0.067 A 
ATOM      8  C   UNL     1       1.735   6.692  -2.324  0.00  0.00    +0.049 A 
ATOM      9  I   UNL     1       0.993   6.537  -0.349  0.00  0.00    -0.041 I 
ENDROOT
BRANCH   1  12
ATOM     10  C   UNL     1       4.426   5.752  -0.324  0.00  0.00    +0.095 C 
ATOM     11  C   UNL     1       4.691   7.084  -0.933  0.00  0.00    +0.230 C 
ATOM     12  N   UNL     1       3.656   7.876  -1.512  0.00  0.00    -0.255 N 
ATOM     13  O   UNL     1       5.838   7.610  -0.804  0.00  0.00    -0.275 OA
BRANCH  12  14
ATOM     14  C   UNL     1       3.583   9.281  -1.131  0.00  0.00    +0.134 C 
BRANCH  14  15
ATOM     15  C   UNL     1       3.261   9.246   0.505  0.00  0.00    +0.205 C 
ATOM     16  O   UNL     1       4.491  10.112   0.807  0.00  0.00    -0.218 OA
BRANCH  15  17
ATOM     17  C   UNL     1       2.289  10.597   0.396  0.00  0.00    +0.217 C 
ATOM     18  O   UNL     1       1.040  10.141   0.793  0.00  0.00    -0.218 OA
ENDBRANCH  15  17
ENDBRANCH  14  15
ENDBRANCH  12  14
ENDBRANCH   1  12
BRANCH   4  19
ATOM     19  C   UNL     1       3.170   6.907  -6.197  0.00  0.00    +0.266 C 
ATOM     20  N   UNL     1       3.950   6.166  -7.121  0.00  0.00    -0.199 NA
ATOM     21  O   UNL     1       2.428   7.784  -6.706  0.00  0.00    -0.268 OA
BRANCH  20  22
ATOM     22  C   UNL     1       3.330   5.515  -8.197  0.00  0.00    +0.151 C 
BRANCH  22  23
ATOM     23  C   UNL     1       4.468   5.035  -9.309  0.00  0.00    +0.206 C 
ATOM     24  O   UNL     1       5.659   5.458  -8.436  0.00  0.00    -0.218 OA
BRANCH  23  25
ATOM     25  C   UNL     1       4.381   6.524 -10.058  0.00  0.00    +0.217 C 
ATOM     26  O   UNL     1       5.662   6.881 -10.365  0.00  0.00    -0.218 OA
ENDBRANCH  23  25
ENDBRANCH  22  23
ENDBRANCH  20  22
ENDBRANCH   4  19
BRANCH   7  27
ATOM     27  C   UNL     1      -0.023   5.031  -2.914  0.00  0.00    +0.266 C 
ATOM     28  N   UNL     1      -1.235   5.648  -3.346  0.00  0.00    -0.199 NA
ATOM     29  O   UNL     1      -0.060   4.278  -1.896  0.00  0.00    -0.268 OA
BRANCH  28  30
ATOM     30  C   UNL     1      -2.441   5.604  -2.522  0.00  0.00    +0.151 C 
BRANCH  30  31
ATOM     31  C   UNL     1      -3.132   7.048  -2.991  0.00  0.00    +0.206 C 
ATOM     32  O   UNL     1      -2.005   7.865  -2.344  0.00  0.00    -0.218 OA
BRANCH  31  33
ATOM     33  C   UNL     1      -2.347   7.033  -4.463  0.00  0.00    +0.217 C 
ATOM     34  O   UNL     1      -2.119   8.346  -4.782  0.00  0.00    -0.218 OA
ENDBRANCH  31  33
ENDBRANCH  30  31
ENDBRANCH  28  30
ENDBRANCH   7  27
TORSDOF 12
ENDMDL
MODEL 2
REMARK VINA RESULT:      -5.3      4.632      9.340
REMARK  Name = 
REMARK  12 active torsions:
REMARK  status: ('A' for Active; 'I' for Inactive)
REMARK    1  A    between atoms: N_4  and  C_5
REMARK    2  A    between atoms: N_4  and  C_10
REMARK    3  A    between atoms: C_5  and  C_6
REMARK    4  A    between atoms: C_6  and  C_8
REMARK    5  A    between atoms: C_13  and  C_14
REMARK    6  A    between atoms: N_16  and  C_17
REMARK    7  A    between atoms: C_17  and  C_18
REMARK    8  A    between atoms: C_18  and  C_20
REMARK    9  A    between atoms: C_24  and  C_25
REMARK   10  A    between atoms: N_27  and  C_28
REMARK   11  A    between atoms: C_28  and  C_29
REMARK   12  A    between atoms: C_29  and  C_31
REMARK                            x       y       z     vdW  Elec       q    Type
REMARK                         _______ _______ _______ _____ _____    ______ ____
ROOT
ATOM      1  C   UNL     1       4.289   6.223 -11.385  0.00  0.00    +0.065 A 
ATOM      2  C   UNL     1       3.399   6.040 -12.433  0.00  0.00    +0.049 A 
ATOM      3  I   UNL     1       4.042   5.861 -14.436  0.00  0.00    -0.041 I 
ATOM      4  C   UNL     1       2.097   5.725 -12.155  0.00  0.00    +0.067 A 
ATOM      5  C   UNL     1       1.752   5.424 -10.840  0.00  0.00    +0.040 A 
ATOM      6  I   UNL     1      -0.164   4.575 -10.565  0.00  0.00    -0.042 I 
ATOM      7  C   UNL     1       2.738   5.118  -9.913  0.00  0.00    +0.067 A 
ATOM      8  C   UNL     1       3.949   5.765 -10.125  0.00  0.00    +0.049 A 
ATOM      9  I   UNL     1       5.392   5.466  -8.608  0.00  0.00    -0.041 I 
ENDROOT
BRANCH   1  12
ATOM     10  C   UNL     1       6.090   8.866 -11.283  0.00  0.00    +0.095 C 
ATOM     11  C   UNL     1       6.427   7.434 -11.059  0.00  0.00    +0.230 C 
ATOM     12  N   UNL     1       5.687   6.374 -11.662  0.00  0.00    -0.255 N 
ATOM     13  O   UNL     1       7.492   7.135 -10.439  0.00  0.00    -0.275 OA
BRANCH  12  14
ATOM     14  C   UNL     1       6.437   5.315 -12.325  0.00  0.00    +0.134 C 
BRANCH  14  15
ATOM     15  C   UNL     1       7.746   6.098 -12.998  0.00  0.00    +0.205 C 
ATOM     16  O   UNL     1       8.670   4.916 -12.675  0.00  0.00    -0.218 OA
BRANCH  15  17
ATOM     17  C   UNL     1       7.412   5.474 -14.508  0.00  0.00    +0.217 C 
ATOM     18  O   UNL     1       7.435   6.586 -15.339  0.00  0.00    -0.218 OA
ENDBRANCH  15  17
ENDBRANCH  14  15
ENDBRANCH  12  14
ENDBRANCH   1  12
BRANCH   4  19
ATOM     19  C   UNL     1       1.090   6.272 -13.071  0.00  0.00    +0.266 C 
ATOM     20  N   UNL     1       0.908   7.647 -13.366  0.00  0.00    -0.199 NA
ATOM     21  O   UNL     1       0.601   5.475 -13.911  0.00  0.00    -0.268 OA
BRANCH  20  22
ATOM     22  C   UNL     1       1.314   8.158 -14.607  0.00  0.00    +0.151 C 
BRANCH  22  23
ATOM     23  C   UNL     1       0.092   7.996 -15.721  0.00  0.00    +0.206 C 
ATOM     24  O   UNL     1       0.907   7.081 -16.647  0.00  0.00    -0.218 OA
BRANCH  23  25
ATOM     25  C   UNL     1       0.603   9.380 -16.501  0.00  0.00    +0.217 C 
ATOM     26  O   UNL     1       0.669  10.359 -15.553  0.00  0.00    -0.218 OA
ENDBRANCH  23  25
ENDBRANCH  22  23
ENDBRANCH  20  22
ENDBRANCH   4  19
BRANCH   7  27
ATOM     27  C   UNL     1       2.363   4.628  -8.580  0.00  0.00    +0.266 C 
ATOM     28  N   UNL     1       2.211   5.622  -7.568  0.00  0.00    -0.199 NA
ATOM     29  O   UNL     1       2.715   3.462  -8.232  0.00  0.00    -0.268 OA
BRANCH  28  30
ATOM     30  C   UNL     1       2.662   5.382  -6.199  0.00  0.00    +0.151 C 
BRANCH  30  31
ATOM     31  C   UNL     1       2.363   6.891  -5.555  0.00  0.00    +0.206 C 
ATOM     32  O   UNL     1       2.795   7.594  -6.850  0.00  0.00    -0.218 OA
BRANCH  31  33
ATOM     33  C   UNL     1       0.767   6.865  -6.040  0.00  0.00    +0.217 C 
ATOM     34  O   UNL     1       0.024   6.964  -4.892  0.00  0.00    -0.218 OA
ENDBRANCH  31  33
ENDBRANCH  30  31
ENDBRANCH  28  30
ENDBRANCH   7  27
TORSDOF 12
ENDMDL
MODEL 3
REMARK VINA RESULT:      -5.3      4.620     11.260
REMARK  Name = 
REMARK  12 active torsions:
REMARK  status: ('A' for Active; 'I' for Inactive)
REMARK    1  A    between atoms: N_4  and  C_5
REMARK    2  A    between atoms: N_4  and  C_10
REMARK    3  A    between atoms: C_5  and  C_6
REMARK    4  A    between atoms: C_6  and  C_8
REMARK    5  A    between atoms: C_13  and  C_14
REMARK    6  A    between atoms: N_16  and  C_17
REMARK    7  A    between atoms: C_17  and  C_18
REMARK    8  A    between atoms: C_18  and  C_20
REMARK    9  A    between atoms: C_24  and  C_25
REMARK   10  A    between atoms: N_27  and  C_28
REMARK   11  A    between atoms: C_28  and  C_29
REMARK   12  A    between atoms: C_29  and  C_31
REMARK                            x       y       z     vdW  Elec       q    Type
REMARK                         _______ _______ _______ _____ _____    ______ ____
ROOT
ATOM      1  C   UNL     1       2.079   6.179 -12.350  0.00  0.00    +0.065 A 
ATOM      2  C   UNL     1       1.512   5.748 -11.159  0.00  0.00    +0.049 A 
ATOM      3  I   UNL     1      -0.206   4.522 -11.112  0.00  0.00    -0.041 I 
ATOM      4  C   UNL     1       2.207   5.910  -9.992  0.00  0.00    +0.067 A 
ATOM      5  C   UNL     1       3.530   6.339 -10.060  0.00  0.00    +0.040 A 
ATOM      6  I   UNL     1       4.638   6.187  -8.266  0.00  0.00    -0.042 I 
ATOM      7  C   UNL     1       4.224   6.273 -11.260  0.00  0.00    +0.067 A 
ATOM      8  C   UNL     1       3.436   6.446 -12.390  0.00  0.00    +0.049 A 
ATOM      9  I   UNL     1       4.508   6.550 -14.211  0.00  0.00    -0.041 I 
ENDROOT
BRANCH   1  12
ATOM     10  C   UNL     1       2.606   3.687 -14.287  0.00  0.00    +0.095 C 
ATOM     11  C   UNL     1       1.384   4.498 -14.033  0.00  0.00    +0.230 C 
ATOM     12  N   UNL     1       1.447   5.854 -13.593  0.00  0.00    -0.255 N 
ATOM     13  O   UNL     1       0.250   4.033 -14.358  0.00  0.00    -0.275 OA
BRANCH  12  14
ATOM     14  C   UNL     1       0.626   6.833 -14.294  0.00  0.00    +0.134 C 
BRANCH  14  15
ATOM     15  C   UNL     1       1.449   7.118 -15.715  0.00  0.00    +0.205 C 
ATOM     16  O   UNL     1       0.220   6.732 -16.551  0.00  0.00    -0.218 OA
BRANCH  15  17
ATOM     17  C   UNL     1       0.996   8.722 -15.719  0.00  0.00    +0.217 C 
ATOM     18  O   UNL     1       0.742   8.999 -14.383  0.00  0.00    -0.218 OA
ENDBRANCH  15  17
ENDBRANCH  14  15
ENDBRANCH  12  14
ENDBRANCH   1  12
BRANCH   4  19
ATOM     19  C   UNL     1       1.404   6.193  -8.796  0.00  0.00    +0.266 C 
ATOM     20  N   UNL     1       1.008   5.236  -7.828  0.00  0.00    -0.199 NA
ATOM     21  O   UNL     1       1.365   7.390  -8.414  0.00  0.00    -0.268 OA
BRANCH  20  22
ATOM     22  C   UNL     1       1.624   5.219  -6.567  0.00  0.00    +0.151 C 
BRANCH  22  23
ATOM     23  C   UNL     1       0.490   4.964  -5.380  0.00  0.00    +0.206 C 
ATOM     24  O   UNL     1      -0.698   5.326  -6.282  0.00  0.00    -0.218 OA
BRANCH  23  25
ATOM     25  C   UNL     1       0.674   6.536  -4.851  0.00  0.00    +0.217 C 
ATOM     26  O   UNL     1      -0.398   7.235  -5.326  0.00  0.00    -0.218 OA
ENDBRANCH  23  25
ENDBRANCH  22  23
ENDBRANCH  20  22
ENDBRANCH   4  19
BRANCH   7  27
ATOM     27  C   UNL     1       5.665   6.554 -11.288  0.00  0.00    +0.266 C 
ATOM     28  N   UNL     1       6.524   5.432 -11.097  0.00  0.00    -0.199 NA
ATOM     29  O   UNL     1       6.076   7.697 -10.927  0.00  0.00    -0.268 OA
BRANCH  28  30
ATOM     30  C   UNL     1       7.748   5.543 -10.306  0.00  0.00    +0.151 C 
BRANCH  30  31
ATOM     31  C   UNL     1       8.812   4.814 -11.363  0.00  0.00    +0.206 C 
ATOM     32  O   UNL     1       7.689   4.476 -12.352  0.00  0.00    -0.218 OA
BRANCH  31  33
ATOM     33  C   UNL     1       9.139   6.251 -12.144  0.00  0.00    +0.217 C 
ATOM     34  O   UNL     1       8.470   6.191 -13.339  0.00  0.00    -0.218 OA
ENDBRANCH  31  33
ENDBRANCH  30  31
ENDBRANCH  28  30
ENDBRANCH   7  27
TORSDOF 12
ENDMDL
MODEL 4
REMARK VINA RESULT:      -4.9      2.623      7.003
REMARK  Name = 
REMARK  12 active torsions:
REMARK  status: ('A' for Active; 'I' for Inactive)
REMARK    1  A    between atoms: N_4  and  C_5
REMARK    2  A    between atoms: N_4  and  C_10
REMARK    3  A    between atoms: C_5  and  C_6
REMARK    4  A    between atoms: C_6  and  C_8
REMARK    5  A    between atoms: C_13  and  C_14
REMARK    6  A    between atoms: N_16  and  C_17
REMARK    7  A    between atoms: C_17  and  C_18
REMARK    8  A    between atoms: C_18  and  C_20
REMARK    9  A    between atoms: C_24  and  C_25
REMARK   10  A    between atoms: N_27  and  C_28
REMARK   11  A    between atoms: C_28  and  C_29
REMARK   12  A    between atoms: C_29  and  C_31
REMARK                            x       y       z     vdW  Elec       q    Type
REMARK                         _______ _______ _______ _____ _____    ______ ____
ROOT
ATOM      1  C   UNL     1       1.437   6.025  -3.858  0.00  0.00    +0.065 A 
ATOM      2  C   UNL     1       2.596   6.324  -3.158  0.00  0.00    +0.049 A 
ATOM      3  I   UNL     1       4.347   7.005  -4.121  0.00  0.00    -0.041 I 
ATOM      4  C   UNL     1       2.545   6.420  -1.794  0.00  0.00    +0.067 A 
ATOM      5  C   UNL     1       1.301   6.387  -1.170  0.00  0.00    +0.040 A 
ATOM      6  I   UNL     1       1.283   6.930   0.873  0.00  0.00    -0.042 I 
ATOM      7  C   UNL     1       0.145   6.598  -1.909  0.00  0.00    +0.067 A 
ATOM      8  C   UNL     1       0.214   6.157  -3.224  0.00  0.00    +0.049 A 
ATOM      9  I   UNL     1      -1.603   6.288  -4.299  0.00  0.00    -0.041 I 
ENDROOT
BRANCH   1  12
ATOM     10  C   UNL     1       2.071   3.732  -5.997  0.00  0.00    +0.095 C 
ATOM     11  C   UNL     1       1.191   4.930  -6.067  0.00  0.00    +0.230 C 
ATOM     12  N   UNL     1       1.434   6.100  -5.288  0.00  0.00    -0.255 N 
ATOM     13  O   UNL     1       0.285   4.986  -6.952  0.00  0.00    -0.275 OA
BRANCH  12  14
ATOM     14  C   UNL     1       1.402   7.388  -5.970  0.00  0.00    +0.134 C 
BRANCH  14  15
ATOM     15  C   UNL     1       1.794   7.027  -7.549  0.00  0.00    +0.205 C 
ATOM     16  O   UNL     1       1.976   8.514  -7.886  0.00  0.00    -0.218 OA
BRANCH  15  17
ATOM     17  C   UNL     1       3.411   6.877  -7.169  0.00  0.00    +0.217 C 
ATOM     18  O   UNL     1       3.896   5.993  -8.123  0.00  0.00    -0.218 OA
ENDBRANCH  15  17
ENDBRANCH  14  15
ENDBRANCH  12  14
ENDBRANCH   1  12
BRANCH   4  19
ATOM     19  C   UNL     1       3.740   5.970  -1.070  0.00  0.00    +0.266 C 
ATOM     20  N   UNL     1       4.698   6.818  -0.458  0.00  0.00    -0.199 NA
ATOM     21  O   UNL     1       3.736   4.783  -0.659  0.00  0.00    -0.268 OA
BRANCH  20  22
ATOM     22  C   UNL     1       4.740   6.934   0.939  0.00  0.00    +0.151 C 
BRANCH  22  23
ATOM     23  C   UNL     1       5.049   8.507   1.374  0.00  0.00    +0.206 C 
ATOM     24  O   UNL     1       6.480   8.212   1.845  0.00  0.00    -0.218 OA
BRANCH  23  25
ATOM     25  C   UNL     1       4.405   8.227   2.888  0.00  0.00    +0.217 C 
ATOM     26  O   UNL     1       4.421   6.875   3.074  0.00  0.00    -0.218 OA
ENDBRANCH  23  25
ENDBRANCH  22  23
ENDBRANCH  20  22
ENDBRANCH   4  19
BRANCH   7  27
ATOM     27  C   UNL     1      -1.145   6.743  -1.223  0.00  0.00    +0.266 C 
ATOM     28  N   UNL     1      -1.408   8.022  -0.650  0.00  0.00    -0.199 NA
ATOM     29  O   UNL     1      -1.677   5.723  -0.692  0.00  0.00    -0.268 OA
BRANCH  28  30
ATOM     30  C   UNL     1      -2.081   8.148   0.641  0.00  0.00    +0.151 C 
BRANCH  30  31
ATOM     31  C   UNL     1      -1.013   9.184   1.396  0.00  0.00    +0.206 C 
ATOM     32  O   UNL     1      -2.083  10.274   1.542  0.00  0.00    -0.218 OA
BRANCH  31  33
ATOM     33  C   UNL     1      -1.361   8.565   2.905  0.00  0.00    +0.217 C 
ATOM     34  O   UNL     1      -2.108   7.436   2.686  0.00  0.00    -0.218 OA
ENDBRANCH  31  33
ENDBRANCH  30  31
ENDBRANCH  28  30
ENDBRANCH   7  27
TORSDOF 12
ENDMDL
MODEL 5
REMARK VINA RESULT:      -4.8      2.530      3.098
REMARK  Name = 
REMARK  12 active torsions:
REMARK  status: ('A' for Active; 'I' for Inactive)
REMARK    1  A    between atoms: N_4  and  C_5
REMARK    2  A    between atoms: N_4  and  C_10
REMARK    3  A    between atoms: C_5  and  C_6
REMARK    4  A    between atoms: C_6  and  C_8
REMARK    5  A    between atoms: C_13  and  C_14
REMARK    6  A    between atoms: N_16  and  C_17
REMARK    7  A    between atoms: C_17  and  C_18
REMARK    8  A    between atoms: C_18  and  C_20
REMARK    9  A    between atoms: C_24  and  C_25
REMARK   10  A    between atoms: N_27  and  C_28
REMARK   11  A    between atoms: C_28  and  C_29
REMARK   12  A    between atoms: C_29  and  C_31
REMARK                            x       y       z     vdW  Elec       q    Type
REMARK                         _______ _______ _______ _____ _____    ______ ____
ROOT
ATOM      1  C   UNL     1       2.297   6.322  -2.870  0.00  0.00    +0.065 A 
ATOM      2  C   UNL     1       2.499   6.035  -4.212  0.00  0.00    +0.049 A 
ATOM      3  I   UNL     1       4.311   5.219  -4.925  0.00  0.00    -0.041 I 
ATOM      4  C   UNL     1       1.430   6.047  -5.065  0.00  0.00    +0.067 A 
ATOM      5  C   UNL     1       0.152   6.173  -4.528  0.00  0.00    +0.040 A 
ATOM      6  I   UNL     1      -1.445   5.790  -5.859  0.00  0.00    -0.042 I 
ATOM      7  C   UNL     1      -0.062   5.948  -3.175  0.00  0.00    +0.067 A 
ATOM      8  C   UNL     1       1.011   6.284  -2.360  0.00  0.00    +0.049 A 
ATOM      9  I   UNL     1       0.627   6.137  -0.285  0.00  0.00    -0.041 I 
ENDROOT
BRANCH   1  12
ATOM     10  C   UNL     1       2.958   3.783  -1.040  0.00  0.00    +0.095 C 
ATOM     11  C   UNL     1       3.837   4.825  -1.635  0.00  0.00    +0.230 C 
ATOM     12  N   UNL     1       3.367   6.137  -1.936  0.00  0.00    -0.255 N 
ATOM     13  O   UNL     1       5.081   4.602  -1.743  0.00  0.00    -0.275 OA
BRANCH  12  14
ATOM     14  C   UNL     1       4.174   7.266  -1.490  0.00  0.00    +0.134 C 
BRANCH  14  15
ATOM     15  C   UNL     1       3.943   7.309   0.160  0.00  0.00    +0.205 C 
ATOM     16  O   UNL     1       5.457   7.294   0.414  0.00  0.00    -0.218 OA
BRANCH  15  17
ATOM     17  C   UNL     1       3.919   8.976   0.167  0.00  0.00    +0.217 C 
ATOM     18  O   UNL     1       3.655   9.311  -1.154  0.00  0.00    -0.218 OA
ENDBRANCH  15  17
ENDBRANCH  14  15
ENDBRANCH  12  14
ENDBRANCH   1  12
BRANCH   4  19
ATOM     19  C   UNL     1       1.701   6.507  -6.432  0.00  0.00    +0.266 C 
ATOM     20  N   UNL     1       1.909   5.667  -7.556  0.00  0.00    -0.199 NA
ATOM     21  O   UNL     1       1.379   7.692  -6.701  0.00  0.00    -0.268 OA
BRANCH  20  22
ATOM     22  C   UNL     1       0.910   5.544  -8.533  0.00  0.00    +0.151 C 
BRANCH  22  23
ATOM     23  C   UNL     1       1.530   5.890 -10.034  0.00  0.00    +0.206 C 
ATOM     24  O   UNL     1       0.410   6.878 -10.391  0.00  0.00    -0.218 OA
BRANCH  23  25
ATOM     25  C   UNL     1       0.707   4.593 -10.686  0.00  0.00    +0.217 C 
ATOM     26  O   UNL     1      -0.370   5.107 -11.348  0.00  0.00    -0.218 OA
ENDBRANCH  23  25
ENDBRANCH  22  23
ENDBRANCH  20  22
ENDBRANCH   4  19
BRANCH   7  27
ATOM     27  C   UNL     1      -1.431   5.904  -2.648  0.00  0.00    +0.266 C 
ATOM     28  N   UNL     1      -1.928   7.122  -2.096  0.00  0.00    -0.199 NA
ATOM     29  O   UNL     1      -1.882   4.809  -2.196  0.00  0.00    -0.268 OA
BRANCH  28  30
ATOM     30  C   UNL     1      -2.760   7.123  -0.894  0.00  0.00    +0.151 C 
BRANCH  30  31
ATOM     31  C   UNL     1      -1.572   7.390   0.247  0.00  0.00    +0.206 C 
ATOM     32  O   UNL     1      -1.609   8.907   0.014  0.00  0.00    -0.218 OA
BRANCH  31  33
ATOM     33  C   UNL     1      -2.683   7.500   1.487  0.00  0.00    +0.217 C 
ATOM     34  O   UNL     1      -2.462   6.409   2.287  0.00  0.00    -0.218 OA
ENDBRANCH  31  33
ENDBRANCH  30  31
ENDBRANCH  28  30
ENDBRANCH   7  27
TORSDOF 12
ENDMDL
MODEL 6
REMARK VINA RESULT:      -4.7      2.228      7.043
REMARK  Name = 
REMARK  12 active torsions:
REMARK  status: ('A' for Active; 'I' for Inactive)
REMARK    1  A    between atoms: N_4  and  C_5
REMARK    2  A    between atoms: N_4  and  C_10
REMARK    3  A    between atoms: C_5  and  C_6
REMARK    4  A    between atoms: C_6  and  C_8
REMARK    5  A    between atoms: C_13  and  C_14
REMARK    6  A    between atoms: N_16  and  C_17
REMARK    7  A    between atoms: C_17  and  C_18
REMARK    8  A    between atoms: C_18  and  C_20
REMARK    9  A    between atoms: C_24  and  C_25
REMARK   10  A    between atoms: N_27  and  C_28
REMARK   11  A    between atoms: C_28  and  C_29
REMARK   12  A    between atoms: C_29  and  C_31
REMARK                            x       y       z     vdW  Elec       q    Type
REMARK                         _______ _______ _______ _____ _____    ______ ____
ROOT
ATOM      1  C   UNL     1       1.993   5.367  -5.167  0.00  0.00    +0.065 A 
ATOM      2  C   UNL     1       2.971   5.738  -4.257  0.00  0.00    +0.049 A 
ATOM      3  I   UNL     1       4.804   6.594  -4.862  0.00  0.00    -0.041 I 
ATOM      4  C   UNL     1       2.660   5.783  -2.925  0.00  0.00    +0.067 A 
ATOM      5  C   UNL     1       1.329   5.626  -2.547  0.00  0.00    +0.040 A 
ATOM      6  I   UNL     1       0.884   6.095  -0.534  0.00  0.00    -0.042 I 
ATOM      7  C   UNL     1       0.316   5.765  -3.486  0.00  0.00    +0.067 A 
ATOM      8  C   UNL     1       0.667   5.376  -4.772  0.00  0.00    +0.049 A 
ATOM      9  I   UNL     1      -0.923   5.391  -6.167  0.00  0.00    -0.041 I 
ENDROOT
BRANCH   1  12
ATOM     10  C   UNL     1       1.529   7.884  -7.087  0.00  0.00    +0.095 C 
ATOM     11  C   UNL     1       2.514   6.770  -7.142  0.00  0.00    +0.230 C 
ATOM     12  N   UNL     1       2.249   5.490  -6.571  0.00  0.00    -0.255 N 
ATOM     13  O   UNL     1       3.561   6.899  -7.846  0.00  0.00    -0.275 OA
BRANCH  12  14
ATOM     14  C   UNL     1       2.517   4.314  -7.389  0.00  0.00    +0.134 C 
BRANCH  14  15
ATOM     15  C   UNL     1       2.810   4.929  -8.910  0.00  0.00    +0.205 C 
ATOM     16  O   UNL     1       3.764   3.773  -9.239  0.00  0.00    -0.218 OA
BRANCH  15  17
ATOM     17  C   UNL     1       1.517   4.096  -9.554  0.00  0.00    +0.217 C 
ATOM     18  O   UNL     1       0.569   5.082  -9.789  0.00  0.00    -0.218 OA
ENDBRANCH  15  17
ENDBRANCH  14  15
ENDBRANCH  12  14
ENDBRANCH   1  12
BRANCH   4  19
ATOM     19  C   UNL     1       3.735   5.409  -1.998  0.00  0.00    +0.266 C 
ATOM     20  N   UNL     1       4.488   6.313  -1.207  0.00  0.00    -0.199 NA
ATOM     21  O   UNL     1       3.755   4.214  -1.611  0.00  0.00    -0.268 OA
BRANCH  20  22
ATOM     22  C   UNL     1       4.262   6.391   0.175  0.00  0.00    +0.151 C 
BRANCH  22  23
ATOM     23  C   UNL     1       5.190   7.598   0.841  0.00  0.00    +0.206 C 
ATOM     24  O   UNL     1       5.382   6.865   2.176  0.00  0.00    -0.218 OA
BRANCH  23  25
ATOM     25  C   UNL     1       3.815   8.379   1.372  0.00  0.00    +0.217 C 
ATOM     26  O   UNL     1       3.239   7.564   2.303  0.00  0.00    -0.218 OA
ENDBRANCH  23  25
ENDBRANCH  22  23
ENDBRANCH  20  22
ENDBRANCH   4  19
BRANCH   7  27
ATOM     27  C   UNL     1      -1.086   5.779  -3.052  0.00  0.00    +0.266 C 
ATOM     28  N   UNL     1      -1.608   7.049  -2.665  0.00  0.00    -0.199 NA
ATOM     29  O   UNL     1      -1.576   4.738  -2.521  0.00  0.00    -0.268 OA
BRANCH  28  30
ATOM     30  C   UNL     1      -2.519   7.177  -1.529  0.00  0.00    +0.151 C 
BRANCH  30  31
ATOM     31  C   UNL     1      -1.396   7.243  -0.297  0.00  0.00    +0.206 C 
ATOM     32  O   UNL     1      -1.466   8.775  -0.237  0.00  0.00    -0.218 OA
BRANCH  31  33
ATOM     33  C   UNL     1      -2.568   7.090   0.880  0.00  0.00    +0.217 C 
ATOM     34  O   UNL     1      -1.912   6.682   2.013  0.00  0.00    -0.218 OA
ENDBRANCH  31  33
ENDBRANCH  30  31
ENDBRANCH  28  30
ENDBRANCH   7  27
TORSDOF 12
ENDMDL
MODEL 7
REMARK VINA RESULT:      -4.6      2.714      6.709
REMARK  Name = 
REMARK  12 active torsions:
REMARK  status: ('A' for Active; 'I' for Inactive)
REMARK    1  A    between atoms: N_4  and  C_5
REMARK    2  A    between atoms: N_4  and  C_10
REMARK    3  A    between atoms: C_5  and  C_6
REMARK    4  A    between atoms: C_6  and  C_8
REMARK    5  A    between atoms: C_13  and  C_14
REMARK    6  A    between atoms: N_16  and  C_17
REMARK    7  A    between atoms: C_17  and  C_18
REMARK    8  A    between atoms: C_18  and  C_20
REMARK    9  A    between atoms: C_24  and  C_25
REMARK   10  A    between atoms: N_27  and  C_28
REMARK   11  A    between atoms: C_28  and  C_29
REMARK   12  A    between atoms: C_29  and  C_31
REMARK                            x       y       z     vdW  Elec       q    Type
REMARK                         _______ _______ _______ _____ _____    ______ ____
ROOT
ATOM      1  C   UNL     1       2.051   5.766  -2.711  0.00  0.00    +0.065 A 
ATOM      2  C   UNL     1       0.927   6.042  -1.945  0.00  0.00    +0.049 A 
ATOM      3  I   UNL     1       1.063   6.663   0.068  0.00  0.00    -0.041 I 
ATOM      4  C   UNL     1      -0.289   6.154  -2.562  0.00  0.00    +0.067 A 
ATOM      5  C   UNL     1      -0.331   6.163  -3.954  0.00  0.00    +0.040 A 
ATOM      6  I   UNL     1      -2.177   6.728  -4.814  0.00  0.00    -0.042 I 
ATOM      7  C   UNL     1       0.826   6.398  -4.685  0.00  0.00    +0.067 A 
ATOM      8  C   UNL     1       1.990   5.940  -4.082  0.00  0.00    +0.049 A 
ATOM      9  I   UNL     1       3.730   6.109  -5.273  0.00  0.00    -0.041 I 
ENDROOT
BRANCH   1  12
ATOM     10  C   UNL     1       3.556   3.562  -0.947  0.00  0.00    +0.095 C 
ATOM     11  C   UNL     1       4.075   4.625  -1.850  0.00  0.00    +0.230 C 
ATOM     12  N   UNL     1       3.349   5.826  -2.109  0.00  0.00    -0.255 N 
ATOM     13  O   UNL     1       5.262   4.545  -2.289  0.00  0.00    -0.275 OA
BRANCH  12  14
ATOM     14  C   UNL     1       4.068   7.089  -2.002  0.00  0.00    +0.134 C 
BRANCH  14  15
ATOM     15  C   UNL     1       4.293   7.296  -0.364  0.00  0.00    +0.205 C 
ATOM     16  O   UNL     1       5.803   7.499  -0.556  0.00  0.00    -0.218 OA
BRANCH  15  17
ATOM     17  C   UNL     1       4.020   8.937  -0.479  0.00  0.00    +0.217 C 
ATOM     18  O   UNL     1       3.695   9.127  -1.815  0.00  0.00    -0.218 OA
ENDBRANCH  15  17
ENDBRANCH  14  15
ENDBRANCH  12  14
ENDBRANCH   1  12
BRANCH   4  19
ATOM     19  C   UNL     1      -1.448   5.679  -1.796  0.00  0.00    +0.266 C 
ATOM     20  N   UNL     1      -1.861   6.181  -0.536  0.00  0.00    -0.199 NA
ATOM     21  O   UNL     1      -2.327   5.051  -2.438  0.00  0.00    -0.268 OA
BRANCH  20  22
ATOM     22  C   UNL     1      -3.002   6.991  -0.444  0.00  0.00    +0.151 C 
BRANCH  22  23
ATOM     23  C   UNL     1      -2.946   7.906   0.941  0.00  0.00    +0.206 C 
ATOM     24  O   UNL     1      -1.694   8.684   0.507  0.00  0.00    -0.218 OA
BRANCH  23  25
ATOM     25  C   UNL     1      -2.048   6.722   1.701  0.00  0.00    +0.217 C 
ATOM     26  O   UNL     1      -1.656   7.240   2.900  0.00  0.00    -0.218 OA
ENDBRANCH  23  25
ENDBRANCH  22  23
ENDBRANCH  20  22
ENDBRANCH   4  19
BRANCH   7  27
ATOM     27  C   UNL     1       0.747   6.586  -6.139  0.00  0.00    +0.266 C 
ATOM     28  N   UNL     1       0.650   5.395  -6.919  0.00  0.00    -0.199 NA
ATOM     29  O   UNL     1       1.294   7.604  -6.658  0.00  0.00    -0.268 OA
BRANCH  28  30
ATOM     30  C   UNL     1       1.355   5.266  -8.192  0.00  0.00    +0.151 C 
BRANCH  30  31
ATOM     31  C   UNL     1       0.103   5.650  -9.226  0.00  0.00    +0.206 C 
ATOM     32  O   UNL     1       0.891   6.814  -9.842  0.00  0.00    -0.218 OA
BRANCH  31  33
ATOM     33  C   UNL     1       0.646   4.593 -10.396  0.00  0.00    +0.217 C 
ATOM     34  O   UNL     1      -0.342   4.542 -11.345  0.00  0.00    -0.218 OA
ENDBRANCH  31  33
ENDBRANCH  30  31
ENDBRANCH  28  30
ENDBRANCH   7  27
TORSDOF 12
ENDMDL
MODEL 8
REMARK VINA RESULT:      -4.5      5.089      8.798
REMARK  Name = 
REMARK  12 active torsions:
REMARK  status: ('A' for Active; 'I' for Inactive)
REMARK    1  A    between atoms: N_4  and  C_5
REMARK    2  A    between atoms: N_4  and  C_10
REMARK    3  A    between atoms: C_5  and  C_6
REMARK    4  A    between atoms: C_6  and  C_8
REMARK    5  A    between atoms: C_13  and  C_14
REMARK    6  A    between atoms: N_16  and  C_17
REMARK    7  A    between atoms: C_17  and  C_18
REMARK    8  A    between atoms: C_18  and  C_20
REMARK    9  A    between atoms: C_24  and  C_25
REMARK   10  A    between atoms: N_27  and  C_28
REMARK   11  A    between atoms: C_28  and  C_29
REMARK   12  A    between atoms: C_29  and  C_31
REMARK                            x       y       z     vdW  Elec       q    Type
REMARK                         _______ _______ _______ _____ _____    ______ ____
ROOT
ATOM      1  C   UNL     1       2.716   6.032  -9.990  0.00  0.00    +0.065 A 
ATOM      2  C   UNL     1       4.093   6.190  -9.968  0.00  0.00    +0.049 A 
ATOM      3  I   UNL     1       5.255   5.692  -8.276  0.00  0.00    -0.041 I 
ATOM      4  C   UNL     1       4.755   6.442 -11.139  0.00  0.00    +0.067 A 
ATOM      5  C   UNL     1       4.047   6.356 -12.335  0.00  0.00    +0.040 A 
ATOM      6  I   UNL     1       5.215   6.371 -14.097  0.00  0.00    -0.042 I 
ATOM      7  C   UNL     1       2.820   5.709 -12.374  0.00  0.00    +0.067 A 
ATOM      8  C   UNL     1       2.084   5.799 -11.199  0.00  0.00    +0.049 A 
ATOM      9  I   UNL     1       0.132   4.992 -11.313  0.00  0.00    -0.041 I 
ENDROOT
BRANCH   1  12
ATOM     10  C   UNL     1       2.341   3.057  -8.874  0.00  0.00    +0.095 C 
ATOM     11  C   UNL     1       2.414   4.370  -8.177  0.00  0.00    +0.230 C 
ATOM     12  N   UNL     1       2.034   5.591  -8.810  0.00  0.00    -0.255 N 
ATOM     13  O   UNL     1       2.675   4.403  -6.937  0.00  0.00    -0.275 OA
BRANCH  12  14
ATOM     14  C   UNL     1       1.146   6.486  -8.080  0.00  0.00    +0.134 C 
BRANCH  14  15
ATOM     15  C   UNL     1       2.145   7.254  -6.988  0.00  0.00    +0.205 C 
ATOM     16  O   UNL     1       1.900   8.613  -7.659  0.00  0.00    -0.218 OA
BRANCH  15  17
ATOM     17  C   UNL     1       0.882   7.507  -5.929  0.00  0.00    +0.217 C 
ATOM     18  O   UNL     1       0.036   6.431  -6.157  0.00  0.00    -0.218 OA
ENDBRANCH  15  17
ENDBRANCH  14  15
ENDBRANCH  12  14
ENDBRANCH   1  12
BRANCH   4  19
ATOM     19  C   UNL     1       5.928   7.318 -11.042  0.00  0.00    +0.266 C 
ATOM     20  N   UNL     1       7.255   6.890 -10.785  0.00  0.00    -0.199 NA
ATOM     21  O   UNL     1       5.825   8.457 -11.563  0.00  0.00    -0.268 OA
BRANCH  20  22
ATOM     22  C   UNL     1       8.203   6.886 -11.819  0.00  0.00    +0.151 C 
BRANCH  22  23
ATOM     23  C   UNL     1       9.030   5.446 -11.832  0.00  0.00    +0.206 C 
ATOM     24  O   UNL     1       8.088   4.787 -12.851  0.00  0.00    -0.218 OA
BRANCH  23  25
ATOM     25  C   UNL     1       8.136   4.906 -10.531  0.00  0.00    +0.217 C 
ATOM     26  O   UNL     1       9.032   4.515  -9.578  0.00  0.00    -0.218 OA
ENDBRANCH  23  25
ENDBRANCH  22  23
ENDBRANCH  20  22
ENDBRANCH   4  19
BRANCH   7  27
ATOM     27  C   UNL     1       2.164   5.462 -13.664  0.00  0.00    +0.266 C 
ATOM     28  N   UNL     1       1.584   6.602 -14.298  0.00  0.00    -0.199 NA
ATOM     29  O   UNL     1       1.655   4.324 -13.888  0.00  0.00    -0.268 OA
BRANCH  28  30
ATOM     30  C   UNL     1       0.309   6.506 -15.004  0.00  0.00    +0.151 C 
BRANCH  30  31
ATOM     31  C   UNL     1       0.247   8.046 -15.645  0.00  0.00    +0.206 C 
ATOM     32  O   UNL     1       0.806   8.666 -14.357  0.00  0.00    -0.218 OA
BRANCH  31  33
ATOM     33  C   UNL     1       1.772   7.913 -16.306  0.00  0.00    +0.217 C 
ATOM     34  O   UNL     1       1.586   7.522 -17.607  0.00  0.00    -0.218 OA
ENDBRANCH  31  33
ENDBRANCH  30  31
ENDBRANCH  28  30
ENDBRANCH   7  27
TORSDOF 12
ENDMDL
MODEL 9
REMARK VINA RESULT:      -4.3      5.688      9.981
REMARK  Name = 
REMARK  12 active torsions:
REMARK  status: ('A' for Active; 'I' for Inactive)
REMARK    1  A    between atoms: N_4  and  C_5
REMARK    2  A    between atoms: N_4  and  C_10
REMARK    3  A    between atoms: C_5  and  C_6
REMARK    4  A    between atoms: C_6  and  C_8
REMARK    5  A    between atoms: C_13  and  C_14
REMARK    6  A    between atoms: N_16  and  C_17
REMARK    7  A    between atoms: C_17  and  C_18
REMARK    8  A    between atoms: C_18  and  C_20
REMARK    9  A    between atoms: C_24  and  C_25
REMARK   10  A    between atoms: N_27  and  C_28
REMARK   11  A    between atoms: C_28  and  C_29
REMARK   12  A    between atoms: C_29  and  C_31
REMARK                            x       y       z     vdW  Elec       q    Type
REMARK                         _______ _______ _______ _____ _____    ______ ____
ROOT
ATOM      1  C   UNL     1       2.072   5.602 -10.481  0.00  0.00    +0.065 A 
ATOM      2  C   UNL     1       1.344   6.123 -11.540  0.00  0.00    +0.049 A 
ATOM      3  I   UNL     1      -0.398   7.280 -11.246  0.00  0.00    -0.041 I 
ATOM      4  C   UNL     1       1.886   6.103 -12.796  0.00  0.00    +0.067 A 
ATOM      5  C   UNL     1       3.217   5.722 -12.940  0.00  0.00    +0.040 A 
ATOM      6  I   UNL     1       4.079   6.091 -14.835  0.00  0.00    -0.042 I 
ATOM      7  C   UNL     1       4.059   5.698 -11.836  0.00  0.00    +0.067 A 
ATOM      8  C   UNL     1       3.429   5.385 -10.639  0.00  0.00    +0.049 A 
ATOM      9  I   UNL     1       4.730   5.146  -8.989  0.00  0.00    -0.041 I 
ENDROOT
BRANCH   1  12
ATOM     10  C   UNL     1       2.770   7.919  -8.387  0.00  0.00    +0.095 C 
ATOM     11  C   UNL     1       1.551   7.083  -8.564  0.00  0.00    +0.230 C 
ATOM     12  N   UNL     1       1.598   5.780  -9.141  0.00  0.00    -0.255 N 
ATOM     13  O   UNL     1       0.455   7.465  -8.052  0.00  0.00    -0.275 OA
BRANCH  12  14
ATOM     14  C   UNL     1       0.906   4.703  -8.443  0.00  0.00    +0.134 C 
BRANCH  14  15
ATOM     15  C   UNL     1       1.058   5.095  -6.830  0.00  0.00    +0.205 C 
ATOM     16  O   UNL     1      -0.276   4.412  -6.496  0.00  0.00    -0.218 OA
BRANCH  15  17
ATOM     17  C   UNL     1       1.900   3.691  -6.513  0.00  0.00    +0.217 C 
ATOM     18  O   UNL     1       2.848   4.076  -5.575  0.00  0.00    -0.218 OA
ENDBRANCH  15  17
ENDBRANCH  14  15
ENDBRANCH  12  14
ENDBRANCH   1  12
BRANCH   4  19
ATOM     19  C   UNL     1       0.943   5.907 -13.903  0.00  0.00    +0.266 C 
ATOM     20  N   UNL     1       0.298   6.942 -14.627  0.00  0.00    -0.199 NA
ATOM     21  O   UNL     1       0.976   4.791 -14.480  0.00  0.00    -0.268 OA
BRANCH  20  22
ATOM     22  C   UNL     1       0.704   7.239 -15.936  0.00  0.00    +0.151 C 
BRANCH  22  23
ATOM     23  C   UNL     1       1.482   8.706 -15.976  0.00  0.00    +0.206 C 
ATOM     24  O   UNL     1       0.235   9.480 -16.429  0.00  0.00    -0.218 OA
BRANCH  23  25
ATOM     25  C   UNL     1       1.974   8.417 -17.544  0.00  0.00    +0.217 C 
ATOM     26  O   UNL     1       1.473   7.196 -17.890  0.00  0.00    -0.218 OA
ENDBRANCH  23  25
ENDBRANCH  22  23
ENDBRANCH  20  22
ENDBRANCH   4  19
BRANCH   7  27
ATOM     27  C   UNL     1       5.498   5.472 -12.019  0.00  0.00    +0.266 C 
ATOM     28  N   UNL     1       6.337   6.613 -11.847  0.00  0.00    -0.199 NA
ATOM     29  O   UNL     1       5.882   4.555 -12.804  0.00  0.00    -0.268 OA
BRANCH  28  30
ATOM     30  C   UNL     1       7.493   6.838 -12.712  0.00  0.00    +0.151 C 
BRANCH  30  31
ATOM     31  C   UNL     1       8.449   5.567 -12.208  0.00  0.00    +0.206 C 
ATOM     32  O   UNL     1       9.739   6.343 -12.506  0.00  0.00    -0.218 OA
BRANCH  31  33
ATOM     33  C   UNL     1       8.439   6.089 -10.623  0.00  0.00    +0.217 C 
ATOM     34  O   UNL     1       8.326   4.960  -9.855  0.00  0.00    -0.218 OA
ENDBRANCH  31  33
ENDBRANCH  30  31
ENDBRANCH  28  30
ENDBRANCH   7  27
TORSDOF 12
ENDMDL
