MODEL 1
REMARK VINA RESULT:      -7.8      0.000      0.000
REMARK  Name = 
REMARK  5 active torsions:
REMARK  status: ('A' for Active; 'I' for Inactive)
REMARK    1  A    between atoms: C_2  and  C_3
REMARK    2  A    between atoms: C_4  and  C_5
REMARK    3  A    between atoms: C_6  and  C_8
REMARK    4  A    between atoms: C_9  and  C_10
REMARK    5  A    between atoms: C_19  and  C_20
REMARK                            x       y       z     vdW  Elec       q    Type
REMARK                         _______ _______ _______ _____ _____    ______ ____
ROOT
ATOM      1  C   UNL     1       2.132   6.107  -7.026  0.00  0.00    -0.004 C 
ATOM      2  C   UNL     1       1.032   5.405  -6.745  0.00  0.00    -0.022 C 
ATOM      3  C   UNL     1      -0.076   5.402  -7.753  0.00  0.00    +0.031 C 
ENDROOT
BRANCH   1   5
ATOM      4  C   UNL     1       4.262   6.394  -5.847  0.00  0.00    -0.004 C 
ATOM      5  C   UNL     1       3.366   5.611  -6.400  0.00  0.00    -0.001 C 
BRANCH   4   7
ATOM      6  C   UNL     1       5.720   7.351  -4.044  0.00  0.00    +0.031 C 
ATOM      7  C   UNL     1       4.768   6.288  -4.499  0.00  0.00    -0.015 C 
ATOM      8  C   UNL     1       4.208   5.565  -3.538  0.00  0.00    +0.082 C 
BRANCH   8   9
ATOM      9  C   UNL     1       3.908   6.117  -2.210  0.00  0.00    +0.388 C 
ATOM     10  O   UNL     1       3.036   7.174  -2.018  0.00  0.00    -0.241 OA
ATOM     11  O   UNL     1       4.205   5.424  -1.189  0.00  0.00    -0.241 OA
ENDBRANCH   8   9
ENDBRANCH   4   7
ENDBRANCH   1   5
BRANCH   2  12
ATOM     12  C   UNL     1       0.757   5.310  -5.303  0.00  0.00    -0.005 C 
ATOM     13  C   UNL     1       0.401   6.343  -4.575  0.00  0.00    -0.005 C 
BRANCH  13  14
ATOM     14  C   UNL     1      -0.764   6.353  -3.682  0.00  0.00    -0.031 C 
ATOM     15  C   UNL     1      -2.014   6.923  -4.269  0.00  0.00    +0.018 C 
ATOM     16  C   UNL     1      -2.317   6.146  -5.532  0.00  0.00    +0.004 C 
ATOM     17  C   UNL     1      -1.793   8.398  -4.579  0.00  0.00    +0.004 C 
ATOM     18  C   UNL     1      -3.179   6.843  -3.321  0.00  0.00    +0.004 C 
ATOM     19  C   UNL     1      -3.122   5.531  -2.563  0.00  0.00    +0.005 C 
ATOM     20  C   UNL     1      -1.940   5.625  -1.628  0.00  0.00    +0.022 C 
ATOM     21  C   UNL     1      -0.730   5.780  -2.489  0.00  0.00    -0.048 C 
ATOM     22  C   UNL     1       0.440   4.939  -2.086  0.00  0.00    +0.026 C 
ENDBRANCH  13  14
ENDBRANCH   2  12
TORSDOF 5
ENDMDL
MODEL 2
REMARK VINA RESULT:      -7.8      6.179     10.179
REMARK  Name = 
REMARK  5 active torsions:
REMARK  status: ('A' for Active; 'I' for Inactive)
REMARK    1  A    between atoms: C_2  and  C_3
REMARK    2  A    between atoms: C_4  and  C_5
REMARK    3  A    between atoms: C_6  and  C_8
REMARK    4  A    between atoms: C_9  and  C_10
REMARK    5  A    between atoms: C_19  and  C_20
REMARK                            x       y       z     vdW  Elec       q    Type
REMARK                         _______ _______ _______ _____ _____    ______ ____
ROOT
ATOM      1  C   UNL     1       2.531   5.923  -8.494  0.00  0.00    -0.004 C 
ATOM      2  C   UNL     1       3.663   5.293  -8.816  0.00  0.00    -0.022 C 
ATOM      3  C   UNL     1       4.760   5.254  -7.798  0.00  0.00    +0.031 C 
ENDROOT
BRANCH   1   5
ATOM      4  C   UNL     1       0.420   6.216  -9.705  0.00  0.00    -0.004 C 
ATOM      5  C   UNL     1       1.325   5.428  -9.175  0.00  0.00    -0.001 C 
BRANCH   4   7
ATOM      6  C   UNL     1      -0.788   7.375 -11.573  0.00  0.00    +0.031 C 
ATOM      7  C   UNL     1      -0.054   6.171 -11.069  0.00  0.00    -0.015 C 
ATOM      8  C   UNL     1       0.401   5.340 -11.997  0.00  0.00    +0.082 C 
BRANCH   8   9
ATOM      9  C   UNL     1       0.836   5.801 -13.322  0.00  0.00    +0.388 C 
ATOM     10  O   UNL     1       1.722   6.850 -13.496  0.00  0.00    -0.241 OA
ATOM     11  O   UNL     1       0.648   5.036 -14.317  0.00  0.00    -0.241 OA
ENDBRANCH   8   9
ENDBRANCH   4   7
ENDBRANCH   1   5
BRANCH   2  12
ATOM     12  C   UNL     1       3.956   5.330 -10.258  0.00  0.00    -0.005 C 
ATOM     13  C   UNL     1       4.535   6.352 -10.843  0.00  0.00    -0.005 C 
BRANCH  13  14
ATOM     14  C   UNL     1       5.703   6.238 -11.724  0.00  0.00    -0.031 C 
ATOM     15  C   UNL     1       6.988   6.740 -11.148  0.00  0.00    +0.018 C 
ATOM     16  C   UNL     1       7.224   5.999  -9.851  0.00  0.00    +0.004 C 
ATOM     17  C   UNL     1       6.874   8.240 -10.904  0.00  0.00    +0.004 C 
ATOM     18  C   UNL     1       8.151   6.536 -12.080  0.00  0.00    +0.004 C 
ATOM     19  C   UNL     1       8.003   5.199 -12.782  0.00  0.00    +0.005 C 
ATOM     20  C   UNL     1       6.838   5.339 -13.733  0.00  0.00    +0.022 C 
ATOM     21  C   UNL     1       5.637   5.619 -12.891  0.00  0.00    -0.048 C 
ATOM     22  C   UNL     1       4.411   4.848 -13.271  0.00  0.00    +0.026 C 
ENDBRANCH  13  14
ENDBRANCH   2  12
TORSDOF 5
ENDMDL
MODEL 3
REMARK VINA RESULT:      -7.8      4.618      6.017
REMARK  Name = 
REMARK  5 active torsions:
REMARK  status: ('A' for Active; 'I' for Inactive)
REMARK    1  A    between atoms: C_2  and  C_3
REMARK    2  A    between atoms: C_4  and  C_5
REMARK    3  A    between atoms: C_6  and  C_8
REMARK    4  A    between atoms: C_9  and  C_10
REMARK    5  A    between atoms: C_19  and  C_20
REMARK                            x       y       z     vdW  Elec       q    Type
REMARK                         _______ _______ _______ _____ _____    ______ ____
ROOT
ATOM      1  C   UNL     1       2.187   5.775 -10.795  0.00  0.00    -0.004 C 
ATOM      2  C   UNL     1       1.194   5.170 -10.139  0.00  0.00    -0.022 C 
ATOM      3  C   UNL     1       0.261   4.301 -10.924  0.00  0.00    +0.031 C 
ENDROOT
BRANCH   1   5
ATOM      4  C   UNL     1       4.477   5.338 -10.039  0.00  0.00    -0.004 C 
ATOM      5  C   UNL     1       3.384   6.061  -9.990  0.00  0.00    -0.001 C 
BRANCH   4   7
ATOM      6  C   UNL     1       6.840   5.603  -9.240  0.00  0.00    +0.031 C 
ATOM      7  C   UNL     1       5.810   5.828 -10.303  0.00  0.00    -0.015 C 
ATOM      8  C   UNL     1       6.279   6.125 -11.508  0.00  0.00    +0.082 C 
BRANCH   8   9
ATOM      9  C   UNL     1       7.557   5.602 -12.007  0.00  0.00    +0.388 C 
ATOM     10  O   UNL     1       7.641   4.498 -12.838  0.00  0.00    -0.241 OA
ATOM     11  O   UNL     1       8.582   6.347 -11.936  0.00  0.00    -0.241 OA
ENDBRANCH   8   9
ENDBRANCH   4   7
ENDBRANCH   1   5
BRANCH   2  12
ATOM     12  C   UNL     1       0.733   5.925  -8.963  0.00  0.00    -0.005 C 
ATOM     13  C   UNL     1      -0.195   5.479  -8.149  0.00  0.00    -0.005 C 
BRANCH  13  14
ATOM     14  C   UNL     1      -0.047   5.425  -6.689  0.00  0.00    -0.031 C 
ATOM     15  C   UNL     1       1.362   5.398  -6.191  0.00  0.00    +0.018 C 
ATOM     16  C   UNL     1       2.065   6.613  -6.755  0.00  0.00    +0.004 C 
ATOM     17  C   UNL     1       2.033   4.114  -6.662  0.00  0.00    +0.004 C 
ATOM     18  C   UNL     1       1.438   5.407  -4.689  0.00  0.00    +0.004 C 
ATOM     19  C   UNL     1       0.362   6.322  -4.136  0.00  0.00    +0.005 C 
ATOM     20  C   UNL     1      -0.960   5.641  -4.398  0.00  0.00    +0.022 C 
ATOM     21  C   UNL     1      -1.090   5.523  -5.880  0.00  0.00    -0.048 C 
ATOM     22  C   UNL     1      -2.439   5.879  -6.423  0.00  0.00    +0.026 C 
ENDBRANCH  13  14
ENDBRANCH   2  12
TORSDOF 5
ENDMDL
MODEL 4
REMARK VINA RESULT:      -7.7      6.331      8.630
REMARK  Name = 
REMARK  5 active torsions:
REMARK  status: ('A' for Active; 'I' for Inactive)
REMARK    1  A    between atoms: C_2  and  C_3
REMARK    2  A    between atoms: C_4  and  C_5
REMARK    3  A    between atoms: C_6  and  C_8
REMARK    4  A    between atoms: C_9  and  C_10
REMARK    5  A    between atoms: C_19  and  C_20
REMARK                            x       y       z     vdW  Elec       q    Type
REMARK                         _______ _______ _______ _____ _____    ______ ____
ROOT
ATOM      1  C   UNL     1       5.734   5.233  -8.743  0.00  0.00    -0.004 C 
ATOM      2  C   UNL     1       4.440   5.557  -8.794  0.00  0.00    -0.022 C 
ATOM      3  C   UNL     1       3.542   5.035  -7.715  0.00  0.00    +0.031 C 
ENDROOT
BRANCH   1   5
ATOM      4  C   UNL     1       7.638   5.862 -10.153  0.00  0.00    -0.004 C 
ATOM      5  C   UNL     1       6.646   6.204  -9.366  0.00  0.00    -0.001 C 
BRANCH   4   7
ATOM      6  C   UNL     1       9.120   5.889 -12.177  0.00  0.00    +0.031 C 
ATOM      7  C   UNL     1       7.871   6.351 -11.491  0.00  0.00    -0.015 C 
ATOM      8  C   UNL     1       6.936   6.864 -12.280  0.00  0.00    +0.082 C 
BRANCH   8   9
ATOM      9  C   UNL     1       6.733   6.409 -13.661  0.00  0.00    +0.388 C 
ATOM     10  O   UNL     1       6.479   5.088 -13.985  0.00  0.00    -0.241 OA
ATOM     11  O   UNL     1       6.476   7.278 -14.549  0.00  0.00    -0.241 OA
ENDBRANCH   8   9
ENDBRANCH   4   7
ENDBRANCH   1   5
BRANCH   2  12
ATOM     12  C   UNL     1       3.949   5.766 -10.165  0.00  0.00    -0.005 C 
ATOM     13  C   UNL     1       2.967   5.069 -10.686  0.00  0.00    -0.005 C 
BRANCH  13  14
ATOM     14  C   UNL     1       1.802   5.664 -11.350  0.00  0.00    -0.031 C 
ATOM     15  C   UNL     1       0.687   6.071 -10.441  0.00  0.00    +0.018 C 
ATOM     16  C   UNL     1       1.264   7.026  -9.417  0.00  0.00    +0.004 C 
ATOM     17  C   UNL     1       0.115   4.832  -9.765  0.00  0.00    +0.004 C 
ATOM     18  C   UNL     1      -0.444   6.729 -11.181  0.00  0.00    +0.004 C 
ATOM     19  C   UNL     1       0.119   7.612 -12.279  0.00  0.00    +0.005 C 
ATOM     20  C   UNL     1       0.703   6.687 -13.320  0.00  0.00    +0.022 C 
ATOM     21  C   UNL     1       1.801   5.932 -12.646  0.00  0.00    -0.048 C 
ATOM     22  C   UNL     1       3.060   5.808 -13.446  0.00  0.00    +0.026 C 
ENDBRANCH  13  14
ENDBRANCH   2  12
TORSDOF 5
ENDMDL
MODEL 5
REMARK VINA RESULT:      -7.7      3.340      4.347
REMARK  Name = 
REMARK  5 active torsions:
REMARK  status: ('A' for Active; 'I' for Inactive)
REMARK    1  A    between atoms: C_2  and  C_3
REMARK    2  A    between atoms: C_4  and  C_5
REMARK    3  A    between atoms: C_6  and  C_8
REMARK    4  A    between atoms: C_9  and  C_10
REMARK    5  A    between atoms: C_19  and  C_20
REMARK                            x       y       z     vdW  Elec       q    Type
REMARK                         _______ _______ _______ _____ _____    ______ ____
ROOT
ATOM      1  C   UNL     1       3.464   4.926  -4.948  0.00  0.00    -0.004 C 
ATOM      2  C   UNL     1       3.119   5.811  -4.010  0.00  0.00    -0.022 C 
ATOM      3  C   UNL     1       3.663   5.618  -2.628  0.00  0.00    +0.031 C 
ENDROOT
BRANCH   1   5
ATOM      4  C   UNL     1       4.570   5.689  -6.999  0.00  0.00    -0.004 C 
ATOM      5  C   UNL     1       3.472   5.446  -6.324  0.00  0.00    -0.001 C 
BRANCH   4   7
ATOM      6  C   UNL     1       3.843   4.374  -9.007  0.00  0.00    +0.031 C 
ATOM      7  C   UNL     1       4.903   5.163  -8.302  0.00  0.00    -0.015 C 
ATOM      8  C   UNL     1       5.896   5.605  -9.062  0.00  0.00    +0.082 C 
BRANCH   8   9
ATOM      9  C   UNL     1       5.706   5.974 -10.471  0.00  0.00    +0.388 C 
ATOM     10  O   UNL     1       5.079   7.146 -10.860  0.00  0.00    -0.241 OA
ATOM     11  O   UNL     1       6.395   5.372 -11.349  0.00  0.00    -0.241 OA
ENDBRANCH   8   9
ENDBRANCH   4   7
ENDBRANCH   1   5
BRANCH   2  12
ATOM     12  C   UNL     1       1.793   6.408  -4.236  0.00  0.00    -0.005 C 
ATOM     13  C   UNL     1       0.693   5.696  -4.304  0.00  0.00    -0.005 C 
BRANCH  13  14
ATOM     14  C   UNL     1      -0.520   5.987  -3.532  0.00  0.00    -0.031 C 
ATOM     15  C   UNL     1      -1.651   6.572  -4.315  0.00  0.00    +0.018 C 
ATOM     16  C   UNL     1      -1.957   5.619  -5.450  0.00  0.00    +0.004 C 
ATOM     17  C   UNL     1      -1.235   7.937  -4.850  0.00  0.00    +0.004 C 
ATOM     18  C   UNL     1      -2.880   6.786  -3.474  0.00  0.00    +0.004 C 
ATOM     19  C   UNL     1      -3.031   5.631  -2.503  0.00  0.00    +0.005 C 
ATOM     20  C   UNL     1      -1.913   5.765  -1.496  0.00  0.00    +0.022 C 
ATOM     21  C   UNL     1      -0.637   5.636  -2.261  0.00  0.00    -0.048 C 
ATOM     22  C   UNL     1       0.394   4.762  -1.619  0.00  0.00    +0.026 C 
ENDBRANCH  13  14
ENDBRANCH   2  12
TORSDOF 5
ENDMDL
MODEL 6
REMARK VINA RESULT:      -7.7      4.743      6.494
REMARK  Name = 
REMARK  5 active torsions:
REMARK  status: ('A' for Active; 'I' for Inactive)
REMARK    1  A    between atoms: C_2  and  C_3
REMARK    2  A    between atoms: C_4  and  C_5
REMARK    3  A    between atoms: C_6  and  C_8
REMARK    4  A    between atoms: C_9  and  C_10
REMARK    5  A    between atoms: C_19  and  C_20
REMARK                            x       y       z     vdW  Elec       q    Type
REMARK                         _______ _______ _______ _____ _____    ______ ____
ROOT
ATOM      1  C   UNL     1       3.343   6.881  -8.790  0.00  0.00    -0.004 C 
ATOM      2  C   UNL     1       2.605   6.427  -7.774  0.00  0.00    -0.022 C 
ATOM      3  C   UNL     1       1.169   6.844  -7.707  0.00  0.00    +0.031 C 
ENDROOT
BRANCH   1   5
ATOM      4  C   UNL     1       5.031   6.061 -10.366  0.00  0.00    -0.004 C 
ATOM      5  C   UNL     1       4.463   6.014  -9.185  0.00  0.00    -0.001 C 
BRANCH   4   7
ATOM      6  C   UNL     1       7.395   5.686  -9.617  0.00  0.00    +0.031 C 
ATOM      7  C   UNL     1       6.440   6.243 -10.627  0.00  0.00    -0.015 C 
ATOM      8  C   UNL     1       6.956   6.527 -11.815  0.00  0.00    +0.082 C 
BRANCH   8   9
ATOM      9  C   UNL     1       8.068   5.763 -12.395  0.00  0.00    +0.388 C 
ATOM     10  O   UNL     1       9.395   6.066 -12.144  0.00  0.00    -0.241 OA
ATOM     11  O   UNL     1       7.822   4.619 -12.884  0.00  0.00    -0.241 OA
ENDBRANCH   8   9
ENDBRANCH   4   7
ENDBRANCH   1   5
BRANCH   2  12
ATOM     12  C   UNL     1       3.389   6.179  -6.554  0.00  0.00    -0.005 C 
ATOM     13  C   UNL     1       3.193   6.835  -5.434  0.00  0.00    -0.005 C 
BRANCH  13  14
ATOM     14  C   UNL     1       3.008   6.191  -4.129  0.00  0.00    -0.031 C 
ATOM     15  C   UNL     1       4.268   5.881  -3.386  0.00  0.00    +0.018 C 
ATOM     16  C   UNL     1       5.037   7.176  -3.238  0.00  0.00    +0.004 C 
ATOM     17  C   UNL     1       5.075   4.857  -4.175  0.00  0.00    +0.004 C 
ATOM     18  C   UNL     1       4.001   5.281  -2.033  0.00  0.00    +0.004 C 
ATOM     19  C   UNL     1       2.796   5.960  -1.410  0.00  0.00    +0.005 C 
ATOM     20  C   UNL     1       1.593   5.521  -2.210  0.00  0.00    +0.022 C 
ATOM     21  C   UNL     1       1.807   6.017  -3.603  0.00  0.00    -0.048 C 
ATOM     22  C   UNL     1       0.604   6.641  -4.238  0.00  0.00    +0.026 C 
ENDBRANCH  13  14
ENDBRANCH   2  12
TORSDOF 5
ENDMDL
MODEL 7
REMARK VINA RESULT:      -7.7      6.872     10.458
REMARK  Name = 
REMARK  5 active torsions:
REMARK  status: ('A' for Active; 'I' for Inactive)
REMARK    1  A    between atoms: C_2  and  C_3
REMARK    2  A    between atoms: C_4  and  C_5
REMARK    3  A    between atoms: C_6  and  C_8
REMARK    4  A    between atoms: C_9  and  C_10
REMARK    5  A    between atoms: C_19  and  C_20
REMARK                            x       y       z     vdW  Elec       q    Type
REMARK                         _______ _______ _______ _____ _____    ______ ____
ROOT
ATOM      1  C   UNL     1       0.765   6.678 -10.318  0.00  0.00    -0.004 C 
ATOM      2  C   UNL     1       1.825   6.001  -9.869  0.00  0.00    -0.022 C 
ATOM      3  C   UNL     1       1.932   5.761  -8.395  0.00  0.00    +0.031 C 
ENDROOT
BRANCH   1   5
ATOM      4  C   UNL     1       0.237   7.263 -12.639  0.00  0.00    -0.004 C 
ATOM      5  C   UNL     1       0.359   6.361 -11.695  0.00  0.00    -0.001 C 
BRANCH   4   7
ATOM      6  C   UNL     1       1.859   6.128 -14.181  0.00  0.00    +0.031 C 
ATOM      7  C   UNL     1       0.885   7.238 -13.930  0.00  0.00    -0.015 C 
ATOM      8  C   UNL     1       0.443   7.872 -15.008  0.00  0.00    +0.082 C 
BRANCH   8   9
ATOM      9  C   UNL     1       0.273   7.201 -16.303  0.00  0.00    +0.388 C 
ATOM     10  O   UNL     1       1.260   7.185 -17.273  0.00  0.00    -0.241 OA
ATOM     11  O   UNL     1      -0.668   6.359 -16.426  0.00  0.00    -0.241 OA
ENDBRANCH   8   9
ENDBRANCH   4   7
ENDBRANCH   1   5
BRANCH   2  12
ATOM     12  C   UNL     1       3.022   6.177 -10.707  0.00  0.00    -0.005 C 
ATOM     13  C   UNL     1       4.074   6.857 -10.314  0.00  0.00    -0.005 C 
BRANCH  13  14
ATOM     14  C   UNL     1       5.448   6.347 -10.376  0.00  0.00    -0.031 C 
ATOM     15  C   UNL     1       6.258   6.832 -11.535  0.00  0.00    +0.018 C 
ATOM     16  C   UNL     1       6.251   8.345 -11.490  0.00  0.00    +0.004 C 
ATOM     17  C   UNL     1       5.633   6.325 -12.828  0.00  0.00    +0.004 C 
ATOM     18  C   UNL     1       7.672   6.321 -11.500  0.00  0.00    +0.004 C 
ATOM     19  C   UNL     1       8.167   6.310 -10.067  0.00  0.00    +0.005 C 
ATOM     20  C   UNL     1       7.403   5.220  -9.354  0.00  0.00    +0.022 C 
ATOM     21  C   UNL     1       5.963   5.612  -9.403  0.00  0.00    -0.048 C 
ATOM     22  C   UNL     1       5.219   5.432  -8.116  0.00  0.00    +0.026 C 
ENDBRANCH  13  14
ENDBRANCH   2  12
TORSDOF 5
ENDMDL
MODEL 8
REMARK VINA RESULT:      -7.6      3.048      7.028
REMARK  Name = 
REMARK  5 active torsions:
REMARK  status: ('A' for Active; 'I' for Inactive)
REMARK    1  A    between atoms: C_2  and  C_3
REMARK    2  A    between atoms: C_4  and  C_5
REMARK    3  A    between atoms: C_6  and  C_8
REMARK    4  A    between atoms: C_9  and  C_10
REMARK    5  A    between atoms: C_19  and  C_20
REMARK                            x       y       z     vdW  Elec       q    Type
REMARK                         _______ _______ _______ _____ _____    ______ ____
ROOT
ATOM      1  C   UNL     1       2.326   6.442  -4.392  0.00  0.00    -0.004 C 
ATOM      2  C   UNL     1       3.227   5.707  -5.046  0.00  0.00    -0.022 C 
ATOM      3  C   UNL     1       4.119   4.810  -4.244  0.00  0.00    +0.031 C 
ENDROOT
BRANCH   1   5
ATOM      4  C   UNL     1       0.105   5.963  -5.313  0.00  0.00    -0.004 C 
ATOM      5  C   UNL     1       1.119   6.781  -5.161  0.00  0.00    -0.001 C 
BRANCH   4   7
ATOM      6  C   UNL     1      -2.307   5.775  -5.976  0.00  0.00    +0.031 C 
ATOM      7  C   UNL     1      -1.275   6.251  -5.001  0.00  0.00    -0.015 C 
ATOM      8  C   UNL     1      -1.724   6.569  -3.794  0.00  0.00    +0.082 C 
BRANCH   8   9
ATOM      9  C   UNL     1      -2.871   5.889  -3.175  0.00  0.00    +0.388 C 
ATOM     10  O   UNL     1      -2.802   4.594  -2.692  0.00  0.00    -0.241 OA
ATOM     11  O   UNL     1      -3.853   6.595  -2.792  0.00  0.00    -0.241 OA
ENDBRANCH   8   9
ENDBRANCH   4   7
ENDBRANCH   1   5
BRANCH   2  12
ATOM     12  C   UNL     1       3.693   6.337  -6.292  0.00  0.00    -0.005 C 
ATOM     13  C   UNL     1       4.472   5.725  -7.153  0.00  0.00    -0.005 C 
BRANCH  13  14
ATOM     14  C   UNL     1       4.195   5.638  -8.591  0.00  0.00    -0.031 C 
ATOM     15  C   UNL     1       2.775   5.888  -8.984  0.00  0.00    +0.018 C 
ATOM     16  C   UNL     1       2.390   7.250  -8.448  0.00  0.00    +0.004 C 
ATOM     17  C   UNL     1       1.892   4.800  -8.386  0.00  0.00    +0.004 C 
ATOM     18  C   UNL     1       2.576   5.845 -10.474  0.00  0.00    +0.004 C 
ATOM     19  C   UNL     1       3.770   6.484 -11.159  0.00  0.00    +0.005 C 
ATOM     20  C   UNL     1       4.938   5.549 -10.952  0.00  0.00    +0.022 C 
ATOM     21  C   UNL     1       5.163   5.474  -9.478  0.00  0.00    -0.048 C 
ATOM     22  C   UNL     1       6.598   5.559  -9.058  0.00  0.00    +0.026 C 
ENDBRANCH  13  14
ENDBRANCH   2  12
TORSDOF 5
ENDMDL
MODEL 9
REMARK VINA RESULT:      -7.5      3.617      7.246
REMARK  Name = 
REMARK  5 active torsions:
REMARK  status: ('A' for Active; 'I' for Inactive)
REMARK    1  A    between atoms: C_2  and  C_3
REMARK    2  A    between atoms: C_4  and  C_5
REMARK    3  A    between atoms: C_6  and  C_8
REMARK    4  A    between atoms: C_9  and  C_10
REMARK    5  A    between atoms: C_19  and  C_20
REMARK                            x       y       z     vdW  Elec       q    Type
REMARK                         _______ _______ _______ _____ _____    ______ ____
ROOT
ATOM      1  C   UNL     1       2.448   6.141  -6.074  0.00  0.00    -0.004 C 
ATOM      2  C   UNL     1       2.972   5.538  -7.143  0.00  0.00    -0.022 C 
ATOM      3  C   UNL     1       4.443   5.685  -7.382  0.00  0.00    +0.031 C 
ENDROOT
BRANCH   1   5
ATOM      4  C   UNL     1       0.543   6.007  -4.537  0.00  0.00    -0.004 C 
ATOM      5  C   UNL     1       1.243   5.501  -5.524  0.00  0.00    -0.001 C 
BRANCH   4   7
ATOM      6  C   UNL     1      -1.651   5.784  -5.731  0.00  0.00    +0.031 C 
ATOM      7  C   UNL     1      -0.874   6.283  -4.553  0.00  0.00    -0.015 C 
ATOM      8  C   UNL     1      -1.591   6.608  -3.485  0.00  0.00    +0.082 C 
BRANCH   8   9
ATOM      9  C   UNL     1      -2.842   5.923  -3.136  0.00  0.00    +0.388 C 
ATOM     10  O   UNL     1      -2.891   4.584  -2.789  0.00  0.00    -0.241 OA
ATOM     11  O   UNL     1      -3.854   6.630  -2.844  0.00  0.00    -0.241 OA
ENDBRANCH   8   9
ENDBRANCH   4   7
ENDBRANCH   1   5
BRANCH   2  12
ATOM     12  C   UNL     1       2.023   5.413  -8.260  0.00  0.00    -0.005 C 
ATOM     13  C   UNL     1       1.935   6.299  -9.225  0.00  0.00    -0.005 C 
BRANCH  13  14
ATOM     14  C   UNL     1       1.966   5.961 -10.653  0.00  0.00    -0.031 C 
ATOM     15  C   UNL     1       0.635   5.677 -11.271  0.00  0.00    +0.018 C 
ATOM     16  C   UNL     1      -0.245   6.884 -11.027  0.00  0.00    +0.004 C 
ATOM     17  C   UNL     1       0.040   4.432 -10.626  0.00  0.00    +0.004 C 
ATOM     18  C   UNL     1       0.737   5.401 -12.746  0.00  0.00    +0.004 C 
ATOM     19  C   UNL     1       1.776   6.320 -13.359  0.00  0.00    +0.005 C 
ATOM     20  C   UNL     1       3.118   5.858 -12.842  0.00  0.00    +0.022 C 
ATOM     21  C   UNL     1       3.083   6.030 -11.360  0.00  0.00    -0.048 C 
ATOM     22  C   UNL     1       4.317   6.637 -10.768  0.00  0.00    +0.026 C 
ENDBRANCH  13  14
ENDBRANCH   2  12
TORSDOF 5
ENDMDL
