MODEL 1
REMARK VINA RESULT:      -7.2      0.000      0.000
REMARK  Name = 
REMARK  5 active torsions:
REMARK  status: ('A' for Active; 'I' for Inactive)
REMARK    1  A    between atoms: C_2  and  C_4
REMARK    2  A    between atoms: C_4  and  C_5
REMARK    3  A    between atoms: C_5  and  C_6
REMARK    4  A    between atoms: C_6  and  C_7
REMARK    5  A    between atoms: C_7  and  N_8
REMARK                            x       y       z     vdW  Elec       q    Type
REMARK                         _______ _______ _______ _____ _____    ______ ____
ROOT
ATOM      1  N   UNL     1       3.165   5.560 -10.559  0.00  0.00    -0.247 N 
ATOM      2  C   UNL     1       2.074   6.011 -11.169  0.00  0.00    +0.335 A 
ATOM      3  O   UNL     1       2.214   6.489 -12.335  0.00  0.00    -0.246 OA
ATOM      4  N   UNL     1       0.967   6.260 -10.428  0.00  0.00    -0.263 N 
ATOM      5  C   UNL     1      -0.258   6.666 -11.108  0.00  0.00    +0.137 C 
ATOM      6  C   UNL     1       0.821   5.821  -9.164  0.00  0.00    +0.170 A 
ATOM      7  N   UNL     1      -0.209   5.639  -8.317  0.00  0.00    -0.206 NA
ATOM      8  C   UNL     1       0.298   5.210  -7.136  0.00  0.00    +0.180 A 
ATOM      9  N   UNL     1       1.546   4.768  -7.345  0.00  0.00    -0.302 N 
ATOM     10  C   UNL     1       2.516   4.228  -6.412  0.00  0.00    +0.132 C 
ATOM     11  C   UNL     1       1.893   5.206  -8.573  0.00  0.00    +0.153 A 
ATOM     12  C   UNL     1       2.979   4.909  -9.387  0.00  0.00    +0.283 A 
ATOM     13  O   UNL     1       3.909   4.166  -8.950  0.00  0.00    -0.265 OA
ENDROOT
BRANCH   1  14
ATOM     14  C   UNL     1       4.517   5.744 -11.001  0.00  0.00    +0.114 C 
BRANCH  14  15
ATOM     15  C   UNL     1       5.084   7.096 -10.680  0.00  0.00    +0.025 C 
BRANCH  15  16
ATOM     16  C   UNL     1       6.549   7.059 -11.100  0.00  0.00    +0.010 C 
BRANCH  16  17
ATOM     17  C   UNL     1       7.135   5.706 -10.721  0.00  0.00    +0.065 C 
BRANCH  17  19
ATOM     18  C   UNL     1       9.268   5.952 -12.221  0.00  0.00    +0.072 C 
ATOM     19  C   UNL     1       7.994   5.285 -11.873  0.00  0.00    +0.151 C 
ATOM     20  O   UNL     1       7.452   4.599 -12.727  0.00  0.00    -0.296 OA
ENDBRANCH  17  19
ENDBRANCH  16  17
ENDBRANCH  15  16
ENDBRANCH  14  15
ENDBRANCH   1  14
TORSDOF 5
ENDMDL
MODEL 2
REMARK VINA RESULT:      -6.8      4.216      8.484
REMARK  Name = 
REMARK  5 active torsions:
REMARK  status: ('A' for Active; 'I' for Inactive)
REMARK    1  A    between atoms: C_2  and  C_4
REMARK    2  A    between atoms: C_4  and  C_5
REMARK    3  A    between atoms: C_5  and  C_6
REMARK    4  A    between atoms: C_6  and  C_7
REMARK    5  A    between atoms: C_7  and  N_8
REMARK                            x       y       z     vdW  Elec       q    Type
REMARK                         _______ _______ _______ _____ _____    ______ ____
ROOT
ATOM      1  N   UNL     1       1.743   5.515  -4.662  0.00  0.00    -0.247 N 
ATOM      2  C   UNL     1       2.743   6.262  -4.204  0.00  0.00    +0.335 A 
ATOM      3  O   UNL     1       2.559   6.873  -3.108  0.00  0.00    -0.246 OA
ATOM      4  N   UNL     1       3.737   6.613  -5.054  0.00  0.00    -0.263 N 
ATOM      5  C   UNL     1       4.880   7.355  -4.532  0.00  0.00    +0.137 C 
ATOM      6  C   UNL     1       3.914   6.027  -6.253  0.00  0.00    +0.170 A 
ATOM      7  N   UNL     1       4.920   5.929  -7.142  0.00  0.00    -0.206 NA
ATOM      8  C   UNL     1       4.460   5.234  -8.211  0.00  0.00    +0.180 A 
ATOM      9  N   UNL     1       3.343   4.588  -7.848  0.00  0.00    -0.302 N 
ATOM     10  C   UNL     1       2.466   3.730  -8.621  0.00  0.00    +0.132 C 
ATOM     11  C   UNL     1       2.969   5.127  -6.670  0.00  0.00    +0.153 A 
ATOM     12  C   UNL     1       2.007   4.745  -5.743  0.00  0.00    +0.283 A 
ATOM     13  O   UNL     1       1.235   3.773  -6.001  0.00  0.00    -0.265 OA
ENDROOT
BRANCH   1  14
ATOM     14  C   UNL     1       0.404   5.489  -4.148  0.00  0.00    +0.114 C 
BRANCH  14  15
ATOM     15  C   UNL     1      -0.505   6.510  -4.765  0.00  0.00    +0.025 C 
BRANCH  15  16
ATOM     16  C   UNL     1      -1.886   5.868  -4.842  0.00  0.00    +0.010 C 
BRANCH  16  17
ATOM     17  C   UNL     1      -2.839   6.643  -3.943  0.00  0.00    +0.065 C 
BRANCH  17  19
ATOM     18  C   UNL     1      -2.377   6.589  -1.365  0.00  0.00    +0.072 C 
ATOM     19  C   UNL     1      -2.825   5.943  -2.619  0.00  0.00    +0.151 C 
ATOM     20  O   UNL     1      -2.869   4.723  -2.653  0.00  0.00    -0.296 OA
ENDBRANCH  17  19
ENDBRANCH  16  17
ENDBRANCH  15  16
ENDBRANCH  14  15
ENDBRANCH   1  14
TORSDOF 5
ENDMDL
MODEL 3
REMARK VINA RESULT:      -6.6      3.749      8.225
REMARK  Name = 
REMARK  5 active torsions:
REMARK  status: ('A' for Active; 'I' for Inactive)
REMARK    1  A    between atoms: C_2  and  C_4
REMARK    2  A    between atoms: C_4  and  C_5
REMARK    3  A    between atoms: C_5  and  C_6
REMARK    4  A    between atoms: C_6  and  C_7
REMARK    5  A    between atoms: C_7  and  N_8
REMARK                            x       y       z     vdW  Elec       q    Type
REMARK                         _______ _______ _______ _____ _____    ______ ____
ROOT
ATOM      1  N   UNL     1       0.897   5.441  -6.044  0.00  0.00    -0.247 N 
ATOM      2  C   UNL     1       1.848   5.135  -5.167  0.00  0.00    +0.335 A 
ATOM      3  O   UNL     1       1.504   5.019  -3.952  0.00  0.00    -0.246 OA
ATOM      4  N   UNL     1       3.143   5.299  -5.526  0.00  0.00    -0.263 N 
ATOM      5  C   UNL     1       4.189   4.877  -4.600  0.00  0.00    +0.137 C 
ATOM      6  C   UNL     1       3.529   5.491  -6.801  0.00  0.00    +0.170 A 
ATOM      7  N   UNL     1       4.681   5.383  -7.489  0.00  0.00    -0.206 NA
ATOM      8  C   UNL     1       4.439   5.773  -8.764  0.00  0.00    +0.180 A 
ATOM      9  N   UNL     1       3.115   5.754  -8.969  0.00  0.00    -0.302 N 
ATOM     10  C   UNL     1       2.345   6.098 -10.149  0.00  0.00    +0.132 C 
ATOM     11  C   UNL     1       2.552   5.648  -7.748  0.00  0.00    +0.153 A 
ATOM     12  C   UNL     1       1.243   5.404  -7.351  0.00  0.00    +0.283 A 
ATOM     13  O   UNL     1       0.324   5.335  -8.222  0.00  0.00    -0.265 OA
ENDROOT
BRANCH   1  14
ATOM     14  C   UNL     1      -0.441   5.855  -5.729  0.00  0.00    +0.114 C 
BRANCH  14  15
ATOM     15  C   UNL     1      -0.537   7.258  -5.207  0.00  0.00    +0.025 C 
BRANCH  15  16
ATOM     16  C   UNL     1      -1.920   7.390  -4.579  0.00  0.00    +0.010 C 
BRANCH  16  17
ATOM     17  C   UNL     1      -2.566   6.012  -4.519  0.00  0.00    +0.065 C 
BRANCH  17  19
ATOM     18  C   UNL     1      -2.953   6.858  -2.071  0.00  0.00    +0.072 C 
ATOM     19  C   UNL     1      -2.921   5.780  -3.083  0.00  0.00    +0.151 C 
ATOM     20  O   UNL     1      -2.852   4.625  -2.691  0.00  0.00    -0.296 OA
ENDBRANCH  17  19
ENDBRANCH  16  17
ENDBRANCH  15  16
ENDBRANCH  14  15
ENDBRANCH   1  14
TORSDOF 5
ENDMDL
MODEL 4
REMARK VINA RESULT:      -6.4      4.463      8.534
REMARK  Name = 
REMARK  5 active torsions:
REMARK  status: ('A' for Active; 'I' for Inactive)
REMARK    1  A    between atoms: C_2  and  C_4
REMARK    2  A    between atoms: C_4  and  C_5
REMARK    3  A    between atoms: C_5  and  C_6
REMARK    4  A    between atoms: C_6  and  C_7
REMARK    5  A    between atoms: C_7  and  N_8
REMARK                            x       y       z     vdW  Elec       q    Type
REMARK                         _______ _______ _______ _____ _____    ______ ____
ROOT
ATOM      1  N   UNL     1       0.405   5.733  -5.314  0.00  0.00    -0.247 N 
ATOM      2  C   UNL     1       0.979   5.738  -6.513  0.00  0.00    +0.335 A 
ATOM      3  O   UNL     1       0.215   5.798  -7.524  0.00  0.00    -0.246 OA
ATOM      4  N   UNL     1       2.269   5.342  -6.621  0.00  0.00    -0.263 N 
ATOM      5  C   UNL     1       2.928   5.435  -7.920  0.00  0.00    +0.137 C 
ATOM      6  C   UNL     1       3.082   5.206  -5.557  0.00  0.00    +0.170 A 
ATOM      7  N   UNL     1       4.412   5.138  -5.359  0.00  0.00    -0.206 NA
ATOM      8  C   UNL     1       4.624   4.944  -4.035  0.00  0.00    +0.180 A 
ATOM      9  N   UNL     1       3.502   5.264  -3.375  0.00  0.00    -0.302 N 
ATOM     10  C   UNL     1       3.204   5.214  -1.956  0.00  0.00    +0.132 C 
ATOM     11  C   UNL     1       2.535   5.359  -4.310  0.00  0.00    +0.153 A 
ATOM     12  C   UNL     1       1.231   5.832  -4.247  0.00  0.00    +0.283 A 
ATOM     13  O   UNL     1       0.743   6.184  -3.131  0.00  0.00    -0.265 OA
ENDROOT
BRANCH   1  14
ATOM     14  C   UNL     1      -0.997   5.582  -5.049  0.00  0.00    +0.114 C 
BRANCH  14  15
ATOM     15  C   UNL     1      -1.808   6.809  -5.346  0.00  0.00    +0.025 C 
BRANCH  15  16
ATOM     16  C   UNL     1      -2.228   7.384  -3.997  0.00  0.00    +0.010 C 
BRANCH  16  17
ATOM     17  C   UNL     1      -3.203   6.420  -3.335  0.00  0.00    +0.065 C 
BRANCH  17  19
ATOM     18  C   UNL     1      -2.081   7.214  -1.106  0.00  0.00    +0.072 C 
ATOM     19  C   UNL     1      -2.664   6.158  -1.963  0.00  0.00    +0.151 C 
ATOM     20  O   UNL     1      -2.403   4.994  -1.699  0.00  0.00    -0.296 OA
ENDBRANCH  17  19
ENDBRANCH  16  17
ENDBRANCH  15  16
ENDBRANCH  14  15
ENDBRANCH   1  14
TORSDOF 5
ENDMDL
MODEL 5
REMARK VINA RESULT:      -6.4      1.524      3.142
REMARK  Name = 
REMARK  5 active torsions:
REMARK  status: ('A' for Active; 'I' for Inactive)
REMARK    1  A    between atoms: C_2  and  C_4
REMARK    2  A    between atoms: C_4  and  C_5
REMARK    3  A    between atoms: C_5  and  C_6
REMARK    4  A    between atoms: C_6  and  C_7
REMARK    5  A    between atoms: C_7  and  N_8
REMARK                            x       y       z     vdW  Elec       q    Type
REMARK                         _______ _______ _______ _____ _____    ______ ____
ROOT
ATOM      1  N   UNL     1       4.320   5.685  -9.613  0.00  0.00    -0.247 N 
ATOM      2  C   UNL     1       3.743   5.824  -8.424  0.00  0.00    +0.335 A 
ATOM      3  O   UNL     1       4.495   5.787  -7.404  0.00  0.00    -0.246 OA
ATOM      4  N   UNL     1       2.403   5.653  -8.325  0.00  0.00    -0.263 N 
ATOM      5  C   UNL     1       1.756   5.896  -7.040  0.00  0.00    +0.137 C 
ATOM      6  C   UNL     1       1.590   5.622  -9.397  0.00  0.00    +0.170 A 
ATOM      7  N   UNL     1       0.269   5.772  -9.613  0.00  0.00    -0.206 NA
ATOM      8  C   UNL     1       0.042   5.574 -10.934  0.00  0.00    +0.180 A 
ATOM      9  N   UNL     1       1.208   5.681 -11.586  0.00  0.00    -0.302 N 
ATOM     10  C   UNL     1       1.508   5.537 -12.998  0.00  0.00    +0.132 C 
ATOM     11  C   UNL     1       2.168   5.641 -10.639  0.00  0.00    +0.153 A 
ATOM     12  C   UNL     1       3.534   5.888 -10.696  0.00  0.00    +0.283 A 
ATOM     13  O   UNL     1       4.085   6.117 -11.814  0.00  0.00    -0.265 OA
ENDROOT
BRANCH   1  14
ATOM     14  C   UNL     1       5.679   5.293  -9.852  0.00  0.00    +0.114 C 
BRANCH  14  15
ATOM     15  C   UNL     1       6.662   6.424  -9.772  0.00  0.00    +0.025 C 
BRANCH  15  16
ATOM     16  C   UNL     1       7.797   6.077 -10.729  0.00  0.00    +0.010 C 
BRANCH  16  17
ATOM     17  C   UNL     1       7.526   6.741 -12.073  0.00  0.00    +0.065 C 
BRANCH  17  19
ATOM     18  C   UNL     1       6.858   5.754 -14.405  0.00  0.00    +0.072 C 
ATOM     19  C   UNL     1       7.525   5.642 -13.089  0.00  0.00    +0.151 C 
ATOM     20  O   UNL     1       7.795   4.525 -12.675  0.00  0.00    -0.296 OA
ENDBRANCH  17  19
ENDBRANCH  16  17
ENDBRANCH  15  16
ENDBRANCH  14  15
ENDBRANCH   1  14
TORSDOF 5
ENDMDL
MODEL 6
REMARK VINA RESULT:      -6.4      4.232      6.295
REMARK  Name = 
REMARK  5 active torsions:
REMARK  status: ('A' for Active; 'I' for Inactive)
REMARK    1  A    between atoms: C_2  and  C_4
REMARK    2  A    between atoms: C_4  and  C_5
REMARK    3  A    between atoms: C_5  and  C_6
REMARK    4  A    between atoms: C_6  and  C_7
REMARK    5  A    between atoms: C_7  and  N_8
REMARK                            x       y       z     vdW  Elec       q    Type
REMARK                         _______ _______ _______ _____ _____    ______ ____
ROOT
ATOM      1  N   UNL     1       0.944   5.257  -4.263  0.00  0.00    -0.247 N 
ATOM      2  C   UNL     1       0.187   5.171  -5.353  0.00  0.00    +0.335 A 
ATOM      3  O   UNL     1       0.779   5.022  -6.464  0.00  0.00    -0.246 OA
ATOM      4  N   UNL     1      -1.103   5.579  -5.285  0.00  0.00    -0.263 N 
ATOM      5  C   UNL     1      -1.960   5.400  -6.452  0.00  0.00    +0.137 C 
ATOM      6  C   UNL     1      -1.736   5.809  -4.119  0.00  0.00    +0.170 A 
ATOM      7  N   UNL     1      -3.017   5.913  -3.719  0.00  0.00    -0.206 NA
ATOM      8  C   UNL     1      -3.014   6.211  -2.397  0.00  0.00    +0.180 A 
ATOM      9  N   UNL     1      -1.803   5.923  -1.900  0.00  0.00    -0.302 N 
ATOM     10  C   UNL     1      -1.284   6.075  -0.555  0.00  0.00    +0.132 C 
ATOM     11  C   UNL     1      -0.998   5.742  -2.967  0.00  0.00    +0.153 A 
ATOM     12  C   UNL     1       0.298   5.253  -3.074  0.00  0.00    +0.283 A 
ATOM     13  O   UNL     1       0.956   4.978  -2.026  0.00  0.00    -0.265 OA
ENDROOT
BRANCH   1  14
ATOM     14  C   UNL     1       2.371   5.404  -4.236  0.00  0.00    +0.114 C 
BRANCH  14  15
ATOM     15  C   UNL     1       2.834   6.830  -4.185  0.00  0.00    +0.025 C 
BRANCH  15  16
ATOM     16  C   UNL     1       3.582   7.087  -5.489  0.00  0.00    +0.010 C 
BRANCH  16  17
ATOM     17  C   UNL     1       4.295   5.808  -5.906  0.00  0.00    +0.065 C 
BRANCH  17  19
ATOM     18  C   UNL     1       5.257   5.140  -8.249  0.00  0.00    +0.072 C 
ATOM     19  C   UNL     1       4.211   5.751  -7.400  0.00  0.00    +0.151 C 
ATOM     20  O   UNL     1       3.422   6.523  -7.925  0.00  0.00    -0.296 OA
ENDBRANCH  17  19
ENDBRANCH  16  17
ENDBRANCH  15  16
ENDBRANCH  14  15
ENDBRANCH   1  14
TORSDOF 5
ENDMDL
MODEL 7
REMARK VINA RESULT:      -6.3      2.096      2.581
REMARK  Name = 
REMARK  5 active torsions:
REMARK  status: ('A' for Active; 'I' for Inactive)
REMARK    1  A    between atoms: C_2  and  C_4
REMARK    2  A    between atoms: C_4  and  C_5
REMARK    3  A    between atoms: C_5  and  C_6
REMARK    4  A    between atoms: C_6  and  C_7
REMARK    5  A    between atoms: C_7  and  N_8
REMARK                            x       y       z     vdW  Elec       q    Type
REMARK                         _______ _______ _______ _____ _____    ______ ____
ROOT
ATOM      1  N   UNL     1       3.222   5.430  -8.708  0.00  0.00    -0.247 N 
ATOM      2  C   UNL     1       1.906   5.250  -8.760  0.00  0.00    +0.335 A 
ATOM      3  O   UNL     1       1.406   4.923  -9.879  0.00  0.00    -0.246 OA
ATOM      4  N   UNL     1       1.140   5.742  -7.757  0.00  0.00    -0.263 N 
ATOM      5  C   UNL     1      -0.293   5.466  -7.765  0.00  0.00    +0.137 C 
ATOM      6  C   UNL     1       1.653   6.159  -6.584  0.00  0.00    +0.170 A 
ATOM      7  N   UNL     1       1.173   6.392  -5.348  0.00  0.00    -0.206 NA
ATOM      8  C   UNL     1       2.195   6.857  -4.589  0.00  0.00    +0.180 A 
ATOM      9  N   UNL     1       3.349   6.562  -5.205  0.00  0.00    -0.302 N 
ATOM     10  C   UNL     1       4.716   6.855  -4.820  0.00  0.00    +0.132 C 
ATOM     11  C   UNL     1       3.017   6.196  -6.459  0.00  0.00    +0.153 A 
ATOM     12  C   UNL     1       3.760   5.619  -7.481  0.00  0.00    +0.283 A 
ATOM     13  O   UNL     1       5.007   5.442  -7.330  0.00  0.00    -0.265 OA
ENDROOT
BRANCH   1  14
ATOM     14  C   UNL     1       4.111   5.492  -9.833  0.00  0.00    +0.114 C 
BRANCH  14  15
ATOM     15  C   UNL     1       4.399   6.886 -10.304  0.00  0.00    +0.025 C 
BRANCH  15  16
ATOM     16  C   UNL     1       5.443   6.760 -11.408  0.00  0.00    +0.010 C 
BRANCH  16  17
ATOM     17  C   UNL     1       6.722   7.452 -10.956  0.00  0.00    +0.065 C 
BRANCH  17  19
ATOM     18  C   UNL     1       8.571   5.818 -11.834  0.00  0.00    +0.072 C 
ATOM     19  C   UNL     1       7.732   6.367 -10.746  0.00  0.00    +0.151 C 
ATOM     20  O   UNL     1       7.609   5.706  -9.726  0.00  0.00    -0.296 OA
ENDBRANCH  17  19
ENDBRANCH  16  17
ENDBRANCH  15  16
ENDBRANCH  14  15
ENDBRANCH   1  14
TORSDOF 5
ENDMDL
MODEL 8
REMARK VINA RESULT:      -6.2      4.606      6.934
REMARK  Name = 
REMARK  5 active torsions:
REMARK  status: ('A' for Active; 'I' for Inactive)
REMARK    1  A    between atoms: C_2  and  C_4
REMARK    2  A    between atoms: C_4  and  C_5
REMARK    3  A    between atoms: C_5  and  C_6
REMARK    4  A    between atoms: C_6  and  C_7
REMARK    5  A    between atoms: C_7  and  N_8
REMARK                            x       y       z     vdW  Elec       q    Type
REMARK                         _______ _______ _______ _____ _____    ______ ____
ROOT
ATOM      1  N   UNL     1       1.417   6.413  -4.070  0.00  0.00    -0.247 N 
ATOM      2  C   UNL     1       1.439   6.220  -2.755  0.00  0.00    +0.335 A 
ATOM      3  O   UNL     1       2.561   6.312  -2.171  0.00  0.00    -0.246 OA
ATOM      4  N   UNL     1       0.381   5.613  -2.167  0.00  0.00    -0.263 N 
ATOM      5  C   UNL     1       0.362   5.484  -0.713  0.00  0.00    +0.137 C 
ATOM      6  C   UNL     1      -0.801   5.442  -2.788  0.00  0.00    +0.170 A 
ATOM      7  N   UNL     1      -2.065   5.179  -2.406  0.00  0.00    -0.206 NA
ATOM      8  C   UNL     1      -2.821   5.071  -3.525  0.00  0.00    +0.180 A 
ATOM      9  N   UNL     1      -2.150   5.624  -4.545  0.00  0.00    -0.302 N 
ATOM     10  C   UNL     1      -2.511   5.749  -5.944  0.00  0.00    +0.132 C 
ATOM     11  C   UNL     1      -0.885   5.790  -4.110  0.00  0.00    +0.153 A 
ATOM     12  C   UNL     1       0.197   6.472  -4.654  0.00  0.00    +0.283 A 
ATOM     13  O   UNL     1       0.098   6.995  -5.804  0.00  0.00    -0.265 OA
ENDROOT
BRANCH   1  14
ATOM     14  C   UNL     1       2.562   6.514  -4.928  0.00  0.00    +0.114 C 
BRANCH  14  15
ATOM     15  C   UNL     1       3.051   5.194  -5.448  0.00  0.00    +0.025 C 
BRANCH  15  16
ATOM     16  C   UNL     1       2.861   5.230  -6.960  0.00  0.00    +0.010 C 
BRANCH  16  17
ATOM     17  C   UNL     1       3.440   6.531  -7.498  0.00  0.00    +0.065 C 
BRANCH  17  19
ATOM     18  C   UNL     1       1.720   6.665  -9.468  0.00  0.00    +0.072 C 
ATOM     19  C   UNL     1       2.328   7.210  -8.234  0.00  0.00    +0.151 C 
ATOM     20  O   UNL     1       2.162   8.396  -7.987  0.00  0.00    -0.296 OA
ENDBRANCH  17  19
ENDBRANCH  16  17
ENDBRANCH  15  16
ENDBRANCH  14  15
ENDBRANCH   1  14
TORSDOF 5
ENDMDL
MODEL 9
REMARK VINA RESULT:      -6.2      2.143      2.861
REMARK  Name = 
REMARK  5 active torsions:
REMARK  status: ('A' for Active; 'I' for Inactive)
REMARK    1  A    between atoms: C_2  and  C_4
REMARK    2  A    between atoms: C_4  and  C_5
REMARK    3  A    between atoms: C_5  and  C_6
REMARK    4  A    between atoms: C_6  and  C_7
REMARK    5  A    between atoms: C_7  and  N_8
REMARK                            x       y       z     vdW  Elec       q    Type
REMARK                         _______ _______ _______ _____ _____    ______ ____
ROOT
ATOM      1  N   UNL     1       3.709   5.803 -12.678  0.00  0.00    -0.247 N 
ATOM      2  C   UNL     1       2.880   5.157 -13.491  0.00  0.00    +0.335 A 
ATOM      3  O   UNL     1       3.311   4.858 -14.646  0.00  0.00    -0.246 OA
ATOM      4  N   UNL     1       1.556   5.154 -13.205  0.00  0.00    -0.263 N 
ATOM      5  C   UNL     1       0.657   4.368 -14.044  0.00  0.00    +0.137 C 
ATOM      6  C   UNL     1       1.066   5.530 -12.009  0.00  0.00    +0.170 A 
ATOM      7  N   UNL     1      -0.089   5.358 -11.340  0.00  0.00    -0.206 NA
ATOM      8  C   UNL     1       0.004   6.038 -10.172  0.00  0.00    +0.180 A 
ATOM      9  N   UNL     1       1.298   6.302  -9.937  0.00  0.00    -0.302 N 
ATOM     10  C   UNL     1       1.923   7.015  -8.840  0.00  0.00    +0.132 C 
ATOM     11  C   UNL     1       1.943   6.052 -11.095  0.00  0.00    +0.153 A 
ATOM     12  C   UNL     1       3.296   5.973 -11.400  0.00  0.00    +0.283 A 
ATOM     13  O   UNL     1       4.159   6.252 -10.514  0.00  0.00    -0.265 OA
ENDROOT
BRANCH   1  14
ATOM     14  C   UNL     1       4.972   6.379 -13.042  0.00  0.00    +0.114 C 
BRANCH  14  15
ATOM     15  C   UNL     1       6.117   5.411 -12.998  0.00  0.00    +0.025 C 
BRANCH  15  16
ATOM     16  C   UNL     1       7.390   6.250 -12.991  0.00  0.00    +0.010 C 
BRANCH  16  17
ATOM     17  C   UNL     1       8.287   5.772 -11.858  0.00  0.00    +0.065 C 
BRANCH  17  19
ATOM     18  C   UNL     1       7.391   5.699  -9.398  0.00  0.00    +0.072 C 
ATOM     19  C   UNL     1       7.784   6.440 -10.616  0.00  0.00    +0.151 C 
ATOM     20  O   UNL     1       7.381   7.587 -10.747  0.00  0.00    -0.296 OA
ENDBRANCH  17  19
ENDBRANCH  16  17
ENDBRANCH  15  16
ENDBRANCH  14  15
ENDBRANCH   1  14
TORSDOF 5
ENDMDL
