MODEL 1
REMARK VINA RESULT:      -4.0      0.000      0.000
REMARK  Name = 
REMARK  4 active torsions:
REMARK  status: ('A' for Active; 'I' for Inactive)
REMARK    1  A    between atoms: SD_2  and  CG_3
REMARK    2  A    between atoms: CG_3  and  CB_4
REMARK    3  A    between atoms: CB_4  and  CA_5
REMARK    4  A    between atoms: CA_5  and  C_7
REMARK                            x       y       z     vdW  Elec       q    Type
REMARK                         _______ _______ _______ _____ _____    ______ ____
ROOT
ATOM      1  CA  MET A   1       7.244   6.759 -11.868  0.00  0.00    +0.195 C 
ATOM      2  N   MET A   1       6.024   5.768 -12.193  0.00  0.00    -0.121 NA
ENDROOT
BRANCH   1   3
ATOM      3  C   MET A   1       8.329   5.529 -11.994  0.00  0.00    +0.382 C 
ATOM      4  OXT MET A   1       7.766   4.583 -12.860  0.00  0.00    -0.244 OA
ATOM      5  O   MET A   1       9.463   5.942 -12.380  0.00  0.00    -0.244 OA
ENDBRANCH   1   3
BRANCH   1   6
ATOM      6  CB  MET A   1       7.062   6.500 -10.222  0.00  0.00    +0.042 C 
BRANCH   6   7
ATOM      7  CG  MET A   1       5.615   6.021 -10.244  0.00  0.00    +0.060 C 
BRANCH   7   9
ATOM      8  CE  MET A   1       3.670   4.263  -8.930  0.00  0.00    +0.069 C 
ATOM      9  SD  MET A   1       5.147   5.257  -8.686  0.00  0.00    -0.139 S 
ENDBRANCH   7   9
ENDBRANCH   6   7
ENDBRANCH   1   6
TORSDOF 4
ENDMDL
MODEL 2
REMARK VINA RESULT:      -4.0      1.895      1.998
REMARK  Name = 
REMARK  4 active torsions:
REMARK  status: ('A' for Active; 'I' for Inactive)
REMARK    1  A    between atoms: SD_2  and  CG_3
REMARK    2  A    between atoms: CG_3  and  CB_4
REMARK    3  A    between atoms: CB_4  and  CA_5
REMARK    4  A    between atoms: CA_5  and  C_7
REMARK                            x       y       z     vdW  Elec       q    Type
REMARK                         _______ _______ _______ _____ _____    ______ ____
ROOT
ATOM      1  CA  MET A   1       6.806   5.601 -10.803  0.00  0.00    +0.195 C 
ATOM      2  N   MET A   1       7.717   5.437  -9.492  0.00  0.00    -0.121 NA
ENDROOT
BRANCH   1   3
ATOM      3  C   MET A   1       8.062   5.182 -11.779  0.00  0.00    +0.382 C 
ATOM      4  OXT MET A   1       7.504   4.665 -12.954  0.00  0.00    -0.244 OA
ATOM      5  O   MET A   1       8.839   6.161 -11.988  0.00  0.00    -0.244 OA
ENDBRANCH   1   3
BRANCH   1   6
ATOM      6  CB  MET A   1       7.194   7.228 -10.912  0.00  0.00    +0.042 C 
BRANCH   6   7
ATOM      7  CG  MET A   1       5.795   7.760 -11.196  0.00  0.00    +0.060 C 
BRANCH   7   9
ATOM      8  CE  MET A   1       3.311   6.266 -11.641  0.00  0.00    +0.069 C 
ATOM      9  SD  MET A   1       4.531   6.749 -10.414  0.00  0.00    -0.139 S 
ENDBRANCH   7   9
ENDBRANCH   6   7
ENDBRANCH   1   6
TORSDOF 4
ENDMDL
MODEL 3
REMARK VINA RESULT:      -3.8      1.604      2.029
REMARK  Name = 
REMARK  4 active torsions:
REMARK  status: ('A' for Active; 'I' for Inactive)
REMARK    1  A    between atoms: SD_2  and  CG_3
REMARK    2  A    between atoms: CG_3  and  CB_4
REMARK    3  A    between atoms: CB_4  and  CA_5
REMARK    4  A    between atoms: CA_5  and  C_7
REMARK                            x       y       z     vdW  Elec       q    Type
REMARK                         _______ _______ _______ _____ _____    ______ ____
ROOT
ATOM      1  CA  MET A   1       6.473   5.698 -10.963  0.00  0.00    +0.195 C 
ATOM      2  N   MET A   1       7.823   6.558 -10.846  0.00  0.00    -0.121 NA
ENDROOT
BRANCH   1   3
ATOM      3  C   MET A   1       6.743   5.415 -12.560  0.00  0.00    +0.382 C 
ATOM      4  OXT MET A   1       7.858   4.570 -12.637  0.00  0.00    -0.244 OA
ATOM      5  O   MET A   1       5.718   4.936 -13.131  0.00  0.00    -0.244 OA
ENDBRANCH   1   3
BRANCH   1   6
ATOM      6  CB  MET A   1       5.583   7.077 -11.303  0.00  0.00    +0.042 C 
BRANCH   6   7
ATOM      7  CG  MET A   1       4.461   6.858 -10.294  0.00  0.00    +0.060 C 
BRANCH   7   9
ATOM      8  CE  MET A   1       4.540   5.446  -7.726  0.00  0.00    +0.069 C 
ATOM      9  SD  MET A   1       4.583   5.245  -9.510  0.00  0.00    -0.139 S 
ENDBRANCH   7   9
ENDBRANCH   6   7
ENDBRANCH   1   6
TORSDOF 4
ENDMDL
MODEL 4
REMARK VINA RESULT:      -3.8     10.524     11.748
REMARK  Name = 
REMARK  4 active torsions:
REMARK  status: ('A' for Active; 'I' for Inactive)
REMARK    1  A    between atoms: SD_2  and  CG_3
REMARK    2  A    between atoms: CG_3  and  CB_4
REMARK    3  A    between atoms: CB_4  and  CA_5
REMARK    4  A    between atoms: CA_5  and  C_7
REMARK                            x       y       z     vdW  Elec       q    Type
REMARK                         _______ _______ _______ _____ _____    ______ ____
ROOT
ATOM      1  CA  MET A   1      -0.994   6.262  -2.347  0.00  0.00    +0.195 C 
ATOM      2  N   MET A   1      -0.312   4.898  -1.844  0.00  0.00    -0.121 NA
ENDROOT
BRANCH   1   3
ATOM      3  C   MET A   1      -2.491   5.706  -1.952  0.00  0.00    +0.382 C 
ATOM      4  OXT MET A   1      -3.381   6.768  -2.156  0.00  0.00    -0.244 OA
ATOM      5  O   MET A   1      -2.795   4.669  -2.613  0.00  0.00    -0.244 OA
ENDBRANCH   1   3
BRANCH   1   6
ATOM      6  CB  MET A   1      -1.125   5.661  -3.907  0.00  0.00    +0.042 C 
BRANCH   6   7
ATOM      7  CG  MET A   1       0.354   5.382  -4.149  0.00  0.00    +0.060 C 
BRANCH   7   9
ATOM      8  CE  MET A   1      -0.803   5.166  -6.834  0.00  0.00    +0.069 C 
ATOM      9  SD  MET A   1       0.660   4.854  -5.839  0.00  0.00    -0.139 S 
ENDBRANCH   7   9
ENDBRANCH   6   7
ENDBRANCH   1   6
TORSDOF 4
ENDMDL
MODEL 5
REMARK VINA RESULT:      -3.6      9.339     10.678
REMARK  Name = 
REMARK  4 active torsions:
REMARK  status: ('A' for Active; 'I' for Inactive)
REMARK    1  A    between atoms: SD_2  and  CG_3
REMARK    2  A    between atoms: CG_3  and  CB_4
REMARK    3  A    between atoms: CB_4  and  CA_5
REMARK    4  A    between atoms: CA_5  and  C_7
REMARK                            x       y       z     vdW  Elec       q    Type
REMARK                         _______ _______ _______ _____ _____    ______ ____
ROOT
ATOM      1  CA  MET A   1      -1.397   5.616  -4.559  0.00  0.00    +0.195 C 
ATOM      2  N   MET A   1      -2.609   6.664  -4.656  0.00  0.00    -0.121 NA
ENDROOT
BRANCH   1   3
ATOM      3  C   MET A   1      -1.603   5.466  -2.934  0.00  0.00    +0.382 C 
ATOM      4  OXT MET A   1      -2.746   4.679  -2.744  0.00  0.00    -0.244 OA
ATOM      5  O   MET A   1      -0.572   4.987  -2.374  0.00  0.00    -0.244 OA
ENDBRANCH   1   3
BRANCH   1   6
ATOM      6  CB  MET A   1      -0.292   6.861  -4.358  0.00  0.00    +0.042 C 
BRANCH   6   7
ATOM      7  CG  MET A   1       0.504   6.645  -5.640  0.00  0.00    +0.060 C 
BRANCH   7   9
ATOM      8  CE  MET A   1       1.685   4.017  -6.182  0.00  0.00    +0.069 C 
ATOM      9  SD  MET A   1       1.936   5.595  -5.361  0.00  0.00    -0.139 S 
ENDBRANCH   7   9
ENDBRANCH   6   7
ENDBRANCH   1   6
TORSDOF 4
ENDMDL
MODEL 6
REMARK VINA RESULT:      -3.6      9.525     11.147
REMARK  Name = 
REMARK  4 active torsions:
REMARK  status: ('A' for Active; 'I' for Inactive)
REMARK    1  A    between atoms: SD_2  and  CG_3
REMARK    2  A    between atoms: CG_3  and  CB_4
REMARK    3  A    between atoms: CB_4  and  CA_5
REMARK    4  A    between atoms: CA_5  and  C_7
REMARK                            x       y       z     vdW  Elec       q    Type
REMARK                         _______ _______ _______ _____ _____    ______ ____
ROOT
ATOM      1  CA  MET A   1      -0.719   6.196  -2.720  0.00  0.00    +0.195 C 
ATOM      2  N   MET A   1      -0.637   5.038  -1.611  0.00  0.00    -0.121 NA
ENDROOT
BRANCH   1   3
ATOM      3  C   MET A   1      -2.018   5.479  -3.431  0.00  0.00    +0.382 C 
ATOM      4  OXT MET A   1      -2.654   4.724  -2.437  0.00  0.00    -0.244 OA
ATOM      5  O   MET A   1      -2.784   6.330  -3.973  0.00  0.00    -0.244 OA
ENDBRANCH   1   3
BRANCH   1   6
ATOM      6  CB  MET A   1       0.348   5.368  -3.713  0.00  0.00    +0.042 C 
BRANCH   6   7
ATOM      7  CG  MET A   1       0.960   6.574  -4.416  0.00  0.00    +0.060 C 
BRANCH   7   9
ATOM      8  CE  MET A   1       3.661   7.070  -5.443  0.00  0.00    +0.069 C 
ATOM      9  SD  MET A   1       2.684   6.802  -3.960  0.00  0.00    -0.139 S 
ENDBRANCH   7   9
ENDBRANCH   6   7
ENDBRANCH   1   6
TORSDOF 4
ENDMDL
MODEL 7
REMARK VINA RESULT:      -3.6      2.161      2.407
REMARK  Name = 
REMARK  4 active torsions:
REMARK  status: ('A' for Active; 'I' for Inactive)
REMARK    1  A    between atoms: SD_2  and  CG_3
REMARK    2  A    between atoms: CG_3  and  CB_4
REMARK    3  A    between atoms: CB_4  and  CA_5
REMARK    4  A    between atoms: CA_5  and  C_7
REMARK                            x       y       z     vdW  Elec       q    Type
REMARK                         _______ _______ _______ _____ _____    ______ ____
ROOT
ATOM      1  CA  MET A   1       6.334   5.363 -12.460  0.00  0.00    +0.195 C 
ATOM      2  N   MET A   1       7.802   4.734 -12.626  0.00  0.00    -0.121 NA
ENDROOT
BRANCH   1   3
ATOM      3  C   MET A   1       6.283   5.766 -14.054  0.00  0.00    +0.382 C 
ATOM      4  OXT MET A   1       4.955   6.110 -14.340  0.00  0.00    -0.244 OA
ATOM      5  O   MET A   1       7.105   6.689 -14.330  0.00  0.00    -0.244 OA
ENDBRANCH   1   3
BRANCH   1   6
ATOM      6  CB  MET A   1       6.982   6.854 -12.050  0.00  0.00    +0.042 C 
BRANCH   6   7
ATOM      7  CG  MET A   1       5.947   7.252 -11.004  0.00  0.00    +0.060 C 
BRANCH   7   9
ATOM      8  CE  MET A   1       5.506   5.385  -8.787  0.00  0.00    +0.069 C 
ATOM      9  SD  MET A   1       4.990   5.836 -10.447  0.00  0.00    -0.139 S 
ENDBRANCH   7   9
ENDBRANCH   6   7
ENDBRANCH   1   6
TORSDOF 4
ENDMDL
MODEL 8
REMARK VINA RESULT:      -3.5      2.146      2.554
REMARK  Name = 
REMARK  4 active torsions:
REMARK  status: ('A' for Active; 'I' for Inactive)
REMARK    1  A    between atoms: SD_2  and  CG_3
REMARK    2  A    between atoms: CG_3  and  CB_4
REMARK    3  A    between atoms: CB_4  and  CA_5
REMARK    4  A    between atoms: CA_5  and  C_7
REMARK                            x       y       z     vdW  Elec       q    Type
REMARK                         _______ _______ _______ _____ _____    ______ ____
ROOT
ATOM      1  CA  MET A   1       6.205   5.687 -11.254  0.00  0.00    +0.195 C 
ATOM      2  N   MET A   1       6.706   7.211 -11.310  0.00  0.00    -0.121 NA
ENDROOT
BRANCH   1   3
ATOM      3  C   MET A   1       6.783   5.398 -12.767  0.00  0.00    +0.382 C 
ATOM      4  OXT MET A   1       7.887   4.550 -12.621  0.00  0.00    -0.244 OA
ATOM      5  O   MET A   1       5.888   4.921 -13.527  0.00  0.00    -0.244 OA
ENDBRANCH   1   3
BRANCH   1   6
ATOM      6  CB  MET A   1       4.701   6.123 -11.855  0.00  0.00    +0.042 C 
BRANCH   6   7
ATOM      7  CG  MET A   1       3.851   5.562 -10.721  0.00  0.00    +0.060 C 
BRANCH   7   9
ATOM      8  CE  MET A   1       1.133   4.820  -9.911  0.00  0.00    +0.069 C 
ATOM      9  SD  MET A   1       2.103   5.892 -10.977  0.00  0.00    -0.139 S 
ENDBRANCH   7   9
ENDBRANCH   6   7
ENDBRANCH   1   6
TORSDOF 4
ENDMDL
MODEL 9
REMARK VINA RESULT:      -3.5      3.162      3.252
REMARK  Name = 
REMARK  4 active torsions:
REMARK  status: ('A' for Active; 'I' for Inactive)
REMARK    1  A    between atoms: SD_2  and  CG_3
REMARK    2  A    between atoms: CG_3  and  CB_4
REMARK    3  A    between atoms: CB_4  and  CA_5
REMARK    4  A    between atoms: CA_5  and  C_7
REMARK                            x       y       z     vdW  Elec       q    Type
REMARK                         _______ _______ _______ _____ _____    ______ ____
ROOT
ATOM      1  CA  MET A   1       6.160   6.270 -12.718  0.00  0.00    +0.195 C 
ATOM      2  N   MET A   1       6.346   5.215 -13.914  0.00  0.00    -0.121 NA
ENDROOT
BRANCH   1   3
ATOM      3  C   MET A   1       7.202   5.431 -11.761  0.00  0.00    +0.382 C 
ATOM      4  OXT MET A   1       7.906   4.559 -12.601  0.00  0.00    -0.244 OA
ATOM      5  O   MET A   1       7.960   6.205 -11.104  0.00  0.00    -0.244 OA
ENDBRANCH   1   3
BRANCH   1   6
ATOM      6  CB  MET A   1       4.844   5.417 -12.124  0.00  0.00    +0.042 C 
BRANCH   6   7
ATOM      7  CG  MET A   1       4.122   5.196 -13.448  0.00  0.00    +0.060 C 
BRANCH   7   9
ATOM      8  CE  MET A   1       1.311   4.586 -14.015  0.00  0.00    +0.069 C 
ATOM      9  SD  MET A   1       2.444   5.838 -13.402  0.00  0.00    -0.139 S 
ENDBRANCH   7   9
ENDBRANCH   6   7
ENDBRANCH   1   6
TORSDOF 4
ENDMDL
