MODEL 1
REMARK VINA RESULT:      -7.6      0.000      0.000
REMARK  Name = 
REMARK  3 active torsions:
REMARK  status: ('A' for Active; 'I' for Inactive)
REMARK    1  A    between atoms: C_2  and  O_3
REMARK    2  A    between atoms: O_3  and  C_4
REMARK    3  A    between atoms: C_4  and  C_6
REMARK                            x       y       z     vdW  Elec       q    Type
REMARK                         _______ _______ _______ _____ _____    ______ ____
ROOT
ATOM      1  C   UNL     1      -1.839   5.798  -4.531  0.00  0.00    +0.172 A 
ATOM      2  C   UNL     1      -0.504   5.576  -4.782  0.00  0.00    +0.087 A 
ATOM      3  C   UNL     1       0.450   5.234  -3.712  0.00  0.00    +0.140 C 
ATOM      4  N   UNL     1       1.763   5.813  -3.925  0.00  0.00    -0.269 N 
ATOM      5  C   UNL     1       2.550   5.598  -5.102  0.00  0.00    +0.251 C 
ATOM      6  C   UNL     1       2.118   5.509  -6.502  0.00  0.00    +0.072 A 
ATOM      7  C   UNL     1       0.796   5.389  -6.910  0.00  0.00    +0.070 A 
ATOM      8  C   UNL     1       0.528   5.669  -8.244  0.00  0.00    +0.020 A 
ATOM      9  C   UNL     1       1.419   6.370  -9.045  0.00  0.00    +0.031 A 
ATOM     10  C   UNL     1       2.734   6.523  -8.622  0.00  0.00    +0.140 A 
ATOM     11  F   UNL     1       3.490   7.504  -9.194  0.00  0.00    -0.204 F 
ATOM     12  C   UNL     1       3.078   5.969  -7.395  0.00  0.00    +0.036 A 
ATOM     13  O   UNL     1       3.770   5.810  -4.978  0.00  0.00    -0.270 OA
ATOM     14  C   UNL     1       2.408   6.487  -2.805  0.00  0.00    +0.116 C 
ATOM     15  N   UNL     1      -0.388   5.314  -6.107  0.00  0.00    -0.290 N 
ATOM     16  C   UNL     1      -1.622   5.298  -6.652  0.00  0.00    +0.183 A 
ATOM     17  N   UNL     1      -2.475   5.786  -5.721  0.00  0.00    -0.217 NA
ENDROOT
BRANCH   1  18
ATOM     18  C   UNL     1      -2.543   5.799  -3.242  0.00  0.00    +0.360 C 
ATOM     19  O   UNL     1      -2.884   4.657  -2.813  0.00  0.00    -0.243 OA
BRANCH  18  20
ATOM     20  O   UNL     1      -2.388   6.813  -2.305  0.00  0.00    -0.444 OA
BRANCH  20  22
ATOM     21  C   UNL     1      -1.660   7.873  -0.275  0.00  0.00    +0.051 C 
ATOM     22  C   UNL     1      -1.954   6.571  -0.975  0.00  0.00    +0.209 C 
ENDBRANCH  20  22
ENDBRANCH  18  20
ENDBRANCH   1  18
TORSDOF 3
ENDMDL
MODEL 2
REMARK VINA RESULT:      -7.6      2.999      6.288
REMARK  Name = 
REMARK  3 active torsions:
REMARK  status: ('A' for Active; 'I' for Inactive)
REMARK    1  A    between atoms: C_2  and  O_3
REMARK    2  A    between atoms: O_3  and  C_4
REMARK    3  A    between atoms: C_4  and  C_6
REMARK                            x       y       z     vdW  Elec       q    Type
REMARK                         _______ _______ _______ _____ _____    ______ ____
ROOT
ATOM      1  C   UNL     1       2.287   5.083  -8.217  0.00  0.00    +0.172 A 
ATOM      2  C   UNL     1       1.859   5.603  -7.017  0.00  0.00    +0.087 A 
ATOM      3  C   UNL     1       2.798   6.121  -6.005  0.00  0.00    +0.140 C 
ATOM      4  N   UNL     1       2.363   5.854  -4.648  0.00  0.00    -0.269 N 
ATOM      5  C   UNL     1       1.099   6.270  -4.117  0.00  0.00    +0.251 C 
ATOM      6  C   UNL     1      -0.216   6.298  -4.769  0.00  0.00    +0.072 A 
ATOM      7  C   UNL     1      -0.419   6.133  -6.132  0.00  0.00    +0.070 A 
ATOM      8  C   UNL     1      -1.715   5.836  -6.536  0.00  0.00    +0.020 A 
ATOM      9  C   UNL     1      -2.677   5.373  -5.650  0.00  0.00    +0.031 A 
ATOM     10  C   UNL     1      -2.459   5.505  -4.284  0.00  0.00    +0.140 A 
ATOM     11  F   UNL     1      -3.193   4.732  -3.431  0.00  0.00    -0.204 F 
ATOM     12  C   UNL     1      -1.264   6.088  -3.882  0.00  0.00    +0.036 A 
ATOM     13  O   UNL     1       1.032   6.332  -2.875  0.00  0.00    -0.270 OA
ATOM     14  C   UNL     1       3.335   5.310  -3.706  0.00  0.00    +0.116 C 
ATOM     15  N   UNL     1       0.550   5.921  -7.166  0.00  0.00    -0.290 N 
ATOM     16  C   UNL     1       0.191   5.677  -8.444  0.00  0.00    +0.183 A 
ATOM     17  N   UNL     1       1.205   4.986  -9.016  0.00  0.00    -0.217 NA
ENDROOT
BRANCH   1  18
ATOM     18  C   UNL     1       3.662   4.892  -8.697  0.00  0.00    +0.360 C 
ATOM     19  O   UNL     1       3.945   3.714  -9.066  0.00  0.00    -0.243 OA
BRANCH  18  20
ATOM     20  O   UNL     1       4.420   5.928  -9.227  0.00  0.00    -0.444 OA
BRANCH  20  22
ATOM     21  C   UNL     1       6.810   5.737  -9.395  0.00  0.00    +0.051 C 
ATOM     22  C   UNL     1       5.495   5.710 -10.130  0.00  0.00    +0.209 C 
ENDBRANCH  20  22
ENDBRANCH  18  20
ENDBRANCH   1  18
TORSDOF 3
ENDMDL
MODEL 3
REMARK VINA RESULT:      -7.4      2.983      6.674
REMARK  Name = 
REMARK  3 active torsions:
REMARK  status: ('A' for Active; 'I' for Inactive)
REMARK    1  A    between atoms: C_2  and  O_3
REMARK    2  A    between atoms: O_3  and  C_4
REMARK    3  A    between atoms: C_4  and  C_6
REMARK                            x       y       z     vdW  Elec       q    Type
REMARK                         _______ _______ _______ _____ _____    ______ ____
ROOT
ATOM      1  C   UNL     1       2.618   7.094  -6.093  0.00  0.00    +0.172 A 
ATOM      2  C   UNL     1       1.758   6.413  -5.263  0.00  0.00    +0.087 A 
ATOM      3  C   UNL     1       0.598   5.663  -5.778  0.00  0.00    +0.140 C 
ATOM      4  N   UNL     1      -0.550   5.729  -4.893  0.00  0.00    -0.269 N 
ATOM      5  C   UNL     1      -0.524   5.325  -3.520  0.00  0.00    +0.251 C 
ATOM      6  C   UNL     1       0.535   5.507  -2.520  0.00  0.00    +0.072 A 
ATOM      7  C   UNL     1       1.829   5.915  -2.813  0.00  0.00    +0.070 A 
ATOM      8  C   UNL     1       2.595   6.372  -1.747  0.00  0.00    +0.020 A 
ATOM      9  C   UNL     1       2.027   6.750  -0.539  0.00  0.00    +0.031 A 
ATOM     10  C   UNL     1       0.719   6.374  -0.259  0.00  0.00    +0.140 A 
ATOM     11  F   UNL     1       0.045   7.045   0.721  0.00  0.00    -0.204 F 
ATOM     12  C   UNL     1       0.043   5.643  -1.228  0.00  0.00    +0.036 A 
ATOM     13  O   UNL     1      -1.632   5.060  -3.017  0.00  0.00    -0.270 OA
ATOM     14  C   UNL     1      -1.852   6.031  -5.475  0.00  0.00    +0.116 C 
ATOM     15  N   UNL     1       2.406   6.224  -4.087  0.00  0.00    -0.290 N 
ATOM     16  C   UNL     1       3.661   6.707  -4.206  0.00  0.00    +0.183 A 
ATOM     17  N   UNL     1       3.710   7.406  -5.365  0.00  0.00    -0.217 NA
ENDROOT
BRANCH   1  18
ATOM     18  C   UNL     1       2.549   7.260  -7.551  0.00  0.00    +0.360 C 
ATOM     19  O   UNL     1       2.078   8.367  -7.946  0.00  0.00    -0.243 OA
BRANCH  18  20
ATOM     20  O   UNL     1       3.385   6.574  -8.422  0.00  0.00    -0.444 OA
BRANCH  20  22
ATOM     21  C   UNL     1       5.348   5.191  -8.316  0.00  0.00    +0.051 C 
ATOM     22  C   UNL     1       3.851   5.257  -8.165  0.00  0.00    +0.209 C 
ENDBRANCH  20  22
ENDBRANCH  18  20
ENDBRANCH   1  18
TORSDOF 3
ENDMDL
MODEL 4
REMARK VINA RESULT:      -7.4      4.850      8.544
REMARK  Name = 
REMARK  3 active torsions:
REMARK  status: ('A' for Active; 'I' for Inactive)
REMARK    1  A    between atoms: C_2  and  O_3
REMARK    2  A    between atoms: O_3  and  C_4
REMARK    3  A    between atoms: C_4  and  C_6
REMARK                            x       y       z     vdW  Elec       q    Type
REMARK                         _______ _______ _______ _____ _____    ______ ____
ROOT
ATOM      1  C   UNL     1       3.722   5.636 -12.768  0.00  0.00    +0.172 A 
ATOM      2  C   UNL     1       3.663   6.001 -11.443  0.00  0.00    +0.087 A 
ATOM      3  C   UNL     1       4.859   6.414 -10.687  0.00  0.00    +0.140 C 
ATOM      4  N   UNL     1       4.825   5.979  -9.303  0.00  0.00    -0.269 N 
ATOM      5  C   UNL     1       3.772   6.304  -8.389  0.00  0.00    +0.251 C 
ATOM      6  C   UNL     1       2.327   6.383  -8.630  0.00  0.00    +0.072 A 
ATOM      7  C   UNL     1       1.740   6.376  -9.888  0.00  0.00    +0.070 A 
ATOM      8  C   UNL     1       0.378   6.103  -9.938  0.00  0.00    +0.020 A 
ATOM      9  C   UNL     1      -0.297   5.519  -8.877  0.00  0.00    +0.031 A 
ATOM     10  C   UNL     1       0.303   5.492  -7.624  0.00  0.00    +0.140 A 
ATOM     11  F   UNL     1      -0.168   4.608  -6.696  0.00  0.00    -0.204 F 
ATOM     12  C   UNL     1       1.572   6.047  -7.513  0.00  0.00    +0.036 A 
ATOM     13  O   UNL     1       4.063   6.216  -7.181  0.00  0.00    -0.270 OA
ATOM     14  C   UNL     1       6.018   5.348  -8.750  0.00  0.00    +0.116 C 
ATOM     15  N   UNL     1       2.370   6.308 -11.173  0.00  0.00    -0.290 N 
ATOM     16  C   UNL     1       1.658   6.210 -12.315  0.00  0.00    +0.183 A 
ATOM     17  N   UNL     1       2.456   5.613 -13.231  0.00  0.00    -0.217 NA
ENDROOT
BRANCH   1  18
ATOM     18  C   UNL     1       4.900   5.531 -13.639  0.00  0.00    +0.360 C 
ATOM     19  O   UNL     1       5.018   6.452 -14.501  0.00  0.00    -0.243 OA
BRANCH  18  20
ATOM     20  O   UNL     1       6.056   4.862 -13.257  0.00  0.00    -0.444 OA
BRANCH  20  22
ATOM     21  C   UNL     1       8.135   5.473 -12.216  0.00  0.00    +0.051 C 
ATOM     22  C   UNL     1       7.358   5.373 -13.503  0.00  0.00    +0.209 C 
ENDBRANCH  20  22
ENDBRANCH  18  20
ENDBRANCH   1  18
TORSDOF 3
ENDMDL
MODEL 5
REMARK VINA RESULT:      -7.4      3.720      5.900
REMARK  Name = 
REMARK  3 active torsions:
REMARK  status: ('A' for Active; 'I' for Inactive)
REMARK    1  A    between atoms: C_2  and  O_3
REMARK    2  A    between atoms: O_3  and  C_4
REMARK    3  A    between atoms: C_4  and  C_6
REMARK                            x       y       z     vdW  Elec       q    Type
REMARK                         _______ _______ _______ _____ _____    ______ ____
ROOT
ATOM      1  C   UNL     1       2.394   5.131  -7.281  0.00  0.00    +0.172 A 
ATOM      2  C   UNL     1       2.666   5.603  -8.544  0.00  0.00    +0.087 A 
ATOM      3  C   UNL     1       1.599   6.018  -9.474  0.00  0.00    +0.140 C 
ATOM      4  N   UNL     1       1.904   5.698 -10.855  0.00  0.00    -0.269 N 
ATOM      5  C   UNL     1       3.081   6.145 -11.538  0.00  0.00    +0.251 C 
ATOM      6  C   UNL     1       4.453   6.272 -11.033  0.00  0.00    +0.072 A 
ATOM      7  C   UNL     1       4.807   6.193  -9.693  0.00  0.00    +0.070 A 
ATOM      8  C   UNL     1       6.152   5.982  -9.416  0.00  0.00    +0.020 A 
ATOM      9  C   UNL     1       7.040   5.517 -10.376  0.00  0.00    +0.031 A 
ATOM     10  C   UNL     1       6.674   5.562 -11.715  0.00  0.00    +0.140 A 
ATOM     11  F   UNL     1       7.355   4.780 -12.603  0.00  0.00    -0.204 F 
ATOM     12  C   UNL     1       5.413   6.064 -12.016  0.00  0.00    +0.036 A 
ATOM     13  O   UNL     1       3.015   6.141 -12.781  0.00  0.00    -0.270 OA
ATOM     14  C   UNL     1       0.870   5.057 -11.659  0.00  0.00    +0.116 C 
ATOM     15  N   UNL     1       3.964   5.992  -8.553  0.00  0.00    -0.290 N 
ATOM     16  C   UNL     1       4.467   5.836  -7.310  0.00  0.00    +0.183 A 
ATOM     17  N   UNL     1       3.557   5.130  -6.598  0.00  0.00    -0.217 NA
ENDROOT
BRANCH   1  18
ATOM     18  C   UNL     1       1.089   4.900  -6.648  0.00  0.00    +0.360 C 
ATOM     19  O   UNL     1       1.003   3.840  -5.960  0.00  0.00    -0.243 OA
BRANCH  18  20
ATOM     20  O   UNL     1       0.214   5.934  -6.340  0.00  0.00    -0.444 OA
BRANCH  20  22
ATOM     21  C   UNL     1      -2.160   5.558  -6.371  0.00  0.00    +0.051 C 
ATOM     22  C   UNL     1      -0.932   5.753  -5.520  0.00  0.00    +0.209 C 
ENDBRANCH  20  22
ENDBRANCH  18  20
ENDBRANCH   1  18
TORSDOF 3
ENDMDL
MODEL 6
REMARK VINA RESULT:      -7.3      1.793      2.330
REMARK  Name = 
REMARK  3 active torsions:
REMARK  status: ('A' for Active; 'I' for Inactive)
REMARK    1  A    between atoms: C_2  and  O_3
REMARK    2  A    between atoms: O_3  and  C_4
REMARK    3  A    between atoms: C_4  and  C_6
REMARK                            x       y       z     vdW  Elec       q    Type
REMARK                         _______ _______ _______ _____ _____    ______ ____
ROOT
ATOM      1  C   UNL     1      -0.374   5.611  -5.006  0.00  0.00    +0.172 A 
ATOM      2  C   UNL     1       0.608   5.213  -5.883  0.00  0.00    +0.087 A 
ATOM      3  C   UNL     1       1.868   4.597  -5.426  0.00  0.00    +0.140 C 
ATOM      4  N   UNL     1       3.007   4.984  -6.237  0.00  0.00    -0.269 N 
ATOM      5  C   UNL     1       3.081   4.790  -7.654  0.00  0.00    +0.251 C 
ATOM      6  C   UNL     1       2.029   4.940  -8.667  0.00  0.00    +0.072 A 
ATOM      7  C   UNL     1       0.678   5.080  -8.380  0.00  0.00    +0.070 A 
ATOM      8  C   UNL     1      -0.130   5.557  -9.404  0.00  0.00    +0.020 A 
ATOM      9  C   UNL     1       0.392   6.200 -10.518  0.00  0.00    +0.031 A 
ATOM     10  C   UNL     1       1.751   6.092 -10.787  0.00  0.00    +0.140 A 
ATOM     11  F   UNL     1       2.322   7.003 -11.628  0.00  0.00    -0.204 F 
ATOM     12  C   UNL     1       2.520   5.347  -9.902  0.00  0.00    +0.036 A 
ATOM     13  O   UNL     1       4.229   4.790  -8.137  0.00  0.00    -0.270 OA
ATOM     14  C   UNL     1       4.225   5.407  -5.557  0.00  0.00    +0.116 C 
ATOM     15  N   UNL     1       0.028   5.097  -7.103  0.00  0.00    -0.290 N 
ATOM     16  C   UNL     1      -1.293   5.341  -6.976  0.00  0.00    +0.183 A 
ATOM     17  N   UNL     1      -1.486   5.842  -5.733  0.00  0.00    -0.217 NA
ENDROOT
BRANCH   1  18
ATOM     18  C   UNL     1      -0.367   5.567  -3.538  0.00  0.00    +0.360 C 
ATOM     19  O   UNL     1       0.317   6.473  -2.974  0.00  0.00    -0.243 OA
BRANCH  18  20
ATOM     20  O   UNL     1      -1.394   4.990  -2.802  0.00  0.00    -0.444 OA
BRANCH  20  22
ATOM     21  C   UNL     1      -3.392   6.317  -2.639  0.00  0.00    +0.051 C 
ATOM     22  C   UNL     1      -2.211   5.733  -1.908  0.00  0.00    +0.209 C 
ENDBRANCH  20  22
ENDBRANCH  18  20
ENDBRANCH   1  18
TORSDOF 3
ENDMDL
MODEL 7
REMARK VINA RESULT:      -7.3      5.921      9.050
REMARK  Name = 
REMARK  3 active torsions:
REMARK  status: ('A' for Active; 'I' for Inactive)
REMARK    1  A    between atoms: C_2  and  O_3
REMARK    2  A    between atoms: O_3  and  C_4
REMARK    3  A    between atoms: C_4  and  C_6
REMARK                            x       y       z     vdW  Elec       q    Type
REMARK                         _______ _______ _______ _____ _____    ______ ____
ROOT
ATOM      1  C   UNL     1       2.292   6.212 -13.802  0.00  0.00    +0.172 A 
ATOM      2  C   UNL     1       2.767   5.876 -12.555  0.00  0.00    +0.087 A 
ATOM      3  C   UNL     1       1.868   5.601 -11.420  0.00  0.00    +0.140 C 
ATOM      4  N   UNL     1       2.404   6.066 -10.155  0.00  0.00    -0.269 N 
ATOM      5  C   UNL     1       3.674   5.664  -9.629  0.00  0.00    +0.251 C 
ATOM      6  C   UNL     1       4.941   5.440 -10.336  0.00  0.00    +0.072 A 
ATOM      7  C   UNL     1       5.065   5.357 -11.716  0.00  0.00    +0.070 A 
ATOM      8  C   UNL     1       6.347   5.496 -12.235  0.00  0.00    +0.020 A 
ATOM      9  C   UNL     1       7.387   6.039 -11.496  0.00  0.00    +0.031 A 
ATOM     10  C   UNL     1       7.251   6.156 -10.118  0.00  0.00    +0.140 A 
ATOM     11  F   UNL     1       8.080   7.013  -9.453  0.00  0.00    -0.204 F 
ATOM     12  C   UNL     1       6.054   5.729  -9.557  0.00  0.00    +0.036 A 
ATOM     13  O   UNL     1       3.817   5.810  -8.401  0.00  0.00    -0.270 OA
ATOM     14  C   UNL     1       1.526   6.823  -9.271  0.00  0.00    +0.116 C 
ATOM     15  N   UNL     1       4.045   5.453 -12.717  0.00  0.00    -0.290 N 
ATOM     16  C   UNL     1       4.333   5.452 -14.035  0.00  0.00    +0.183 A 
ATOM     17  N   UNL     1       3.324   6.101 -14.664  0.00  0.00    -0.217 NA
ENDROOT
BRANCH   1  18
ATOM     18  C   UNL     1       0.902   6.408 -14.233  0.00  0.00    +0.360 C 
ATOM     19  O   UNL     1       0.240   7.247 -13.553  0.00  0.00    -0.243 OA
BRANCH  18  20
ATOM     20  O   UNL     1       0.480   6.165 -15.534  0.00  0.00    -0.444 OA
BRANCH  20  22
ATOM     21  C   UNL     1      -1.292   7.011 -16.920  0.00  0.00    +0.051 C 
ATOM     22  C   UNL     1       0.120   7.204 -16.433  0.00  0.00    +0.209 C 
ENDBRANCH  20  22
ENDBRANCH  18  20
ENDBRANCH   1  18
TORSDOF 3
ENDMDL
MODEL 8
REMARK VINA RESULT:      -7.3      5.316      9.489
REMARK  Name = 
REMARK  3 active torsions:
REMARK  status: ('A' for Active; 'I' for Inactive)
REMARK    1  A    between atoms: C_2  and  O_3
REMARK    2  A    between atoms: O_3  and  C_4
REMARK    3  A    between atoms: C_4  and  C_6
REMARK                            x       y       z     vdW  Elec       q    Type
REMARK                         _______ _______ _______ _____ _____    ______ ____
ROOT
ATOM      1  C   UNL     1       6.566   5.848 -11.235  0.00  0.00    +0.172 A 
ATOM      2  C   UNL     1       5.234   5.610 -10.984  0.00  0.00    +0.087 A 
ATOM      3  C   UNL     1       4.294   5.209 -12.047  0.00  0.00    +0.140 C 
ATOM      4  N   UNL     1       2.969   5.770 -11.864  0.00  0.00    -0.269 N 
ATOM      5  C   UNL     1       2.178   5.584 -10.685  0.00  0.00    +0.251 C 
ATOM      6  C   UNL     1       2.601   5.556  -9.280  0.00  0.00    +0.072 A 
ATOM      7  C   UNL     1       3.922   5.476  -8.860  0.00  0.00    +0.070 A 
ATOM      8  C   UNL     1       4.175   5.811  -7.535  0.00  0.00    +0.020 A 
ATOM      9  C   UNL     1       3.265   6.523  -6.767  0.00  0.00    +0.031 A 
ATOM     10  C   UNL     1       1.951   6.635  -7.204  0.00  0.00    +0.140 A 
ATOM     11  F   UNL     1       1.171   7.622  -6.673  0.00  0.00    -0.204 F 
ATOM     12  C   UNL     1       1.626   6.030  -8.411  0.00  0.00    +0.036 A 
ATOM     13  O   UNL     1       0.954   5.767 -10.825  0.00  0.00    -0.270 OA
ATOM     14  C   UNL     1       2.318   6.389 -13.013  0.00  0.00    +0.116 C 
ATOM     15  N   UNL     1       5.113   5.394  -9.652  0.00  0.00    -0.290 N 
ATOM     16  C   UNL     1       6.343   5.422  -9.098  0.00  0.00    +0.183 A 
ATOM     17  N   UNL     1       7.193   5.892 -10.042  0.00  0.00    -0.217 NA
ENDROOT
BRANCH   1  18
ATOM     18  C   UNL     1       7.279   5.814 -12.518  0.00  0.00    +0.360 C 
ATOM     19  O   UNL     1       7.707   4.674 -12.868  0.00  0.00    -0.243 OA
BRANCH  18  20
ATOM     20  O   UNL     1       7.058   6.749 -13.522  0.00  0.00    -0.444 OA
BRANCH  20  22
ATOM     21  C   UNL     1       6.631   7.565 -15.742  0.00  0.00    +0.051 C 
ATOM     22  C   UNL     1       6.515   6.404 -14.789  0.00  0.00    +0.209 C 
ENDBRANCH  20  22
ENDBRANCH  18  20
ENDBRANCH   1  18
TORSDOF 3
ENDMDL
MODEL 9
REMARK VINA RESULT:      -7.3      5.066      8.886
REMARK  Name = 
REMARK  3 active torsions:
REMARK  status: ('A' for Active; 'I' for Inactive)
REMARK    1  A    between atoms: C_2  and  O_3
REMARK    2  A    between atoms: O_3  and  C_4
REMARK    3  A    between atoms: C_4  and  C_6
REMARK                            x       y       z     vdW  Elec       q    Type
REMARK                         _______ _______ _______ _____ _____    ______ ____
ROOT
ATOM      1  C   UNL     1       5.083   6.304 -10.837  0.00  0.00    +0.172 A 
ATOM      2  C   UNL     1       3.759   5.930 -10.869  0.00  0.00    +0.087 A 
ATOM      3  C   UNL     1       2.983   5.894 -12.122  0.00  0.00    +0.140 C 
ATOM      4  N   UNL     1       1.600   6.290 -11.936  0.00  0.00    -0.269 N 
ATOM      5  C   UNL     1       0.704   5.656 -11.016  0.00  0.00    +0.251 C 
ATOM      6  C   UNL     1       0.971   5.145  -9.666  0.00  0.00    +0.072 A 
ATOM      7  C   UNL     1       2.239   4.982  -9.125  0.00  0.00    +0.070 A 
ATOM      8  C   UNL     1       2.312   4.830  -7.746  0.00  0.00    +0.020 A 
ATOM      9  C   UNL     1       1.262   5.176  -6.908  0.00  0.00    +0.031 A 
ATOM     10  C   UNL     1      -0.001   5.376  -7.452  0.00  0.00    +0.140 A 
ATOM     11  F   UNL     1      -0.922   6.070  -6.721  0.00  0.00    -0.204 F 
ATOM     12  C   UNL     1      -0.134   5.230  -8.827  0.00  0.00    +0.036 A 
ATOM     13  O   UNL     1      -0.508   5.820 -11.248  0.00  0.00    -0.270 OA
ATOM     14  C   UNL     1       1.026   7.249 -12.872  0.00  0.00    +0.116 C 
ATOM     15  N   UNL     1       3.512   5.245  -9.726  0.00  0.00    -0.290 N 
ATOM     16  C   UNL     1       4.666   5.130  -9.036  0.00  0.00    +0.183 A 
ATOM     17  N   UNL     1       5.568   5.946  -9.631  0.00  0.00    -0.217 NA
ENDROOT
BRANCH   1  18
ATOM     18  C   UNL     1       5.934   6.766 -11.942  0.00  0.00    +0.360 C 
ATOM     19  O   UNL     1       6.386   7.943 -11.819  0.00  0.00    -0.243 OA
BRANCH  18  20
ATOM     20  O   UNL     1       6.641   5.892 -12.758  0.00  0.00    -0.444 OA
BRANCH  20  22
ATOM     21  C   UNL     1       8.918   5.751 -12.002  0.00  0.00    +0.051 C 
ATOM     22  C   UNL     1       7.992   6.113 -13.134  0.00  0.00    +0.209 C 
ENDBRANCH  20  22
ENDBRANCH  18  20
ENDBRANCH   1  18
TORSDOF 3
ENDMDL
