MODEL 1
REMARK VINA RESULT:      -8.0      0.000      0.000
REMARK  Name = 
REMARK  2 active torsions:
REMARK  status: ('A' for Active; 'I' for Inactive)
REMARK    1  A    between atoms: N_6  and  C_7
REMARK    2  A    between atoms: C_7  and  C_8
REMARK                            x       y       z     vdW  Elec       q    Type
REMARK                         _______ _______ _______ _____ _____    ______ ____
ROOT
ATOM      1  C   UNL     1       2.819   4.733  -7.252  0.00  0.00    +0.085 C 
ATOM      2  C   UNL     1       4.156   5.407  -7.871  0.00  0.00    +0.176 C 
ATOM      3  O   UNL     1       5.155   5.353  -7.128  0.00  0.00    -0.291 OA
ATOM      4  C   UNL     1       4.124   5.866  -9.224  0.00  0.00    +0.048 A 
ATOM      5  C   UNL     1       5.206   6.200 -10.040  0.00  0.00    +0.020 A 
ATOM      6  C   UNL     1       4.803   5.994 -11.355  0.00  0.00    +0.060 A 
ATOM      7  N   UNL     1       3.454   6.075 -11.283  0.00  0.00    -0.329 N 
ATOM      8  C   UNL     1       2.573   6.073 -12.428  0.00  0.00    +0.130 C 
ATOM      9  C   UNL     1       5.720   5.827 -12.389  0.00  0.00    +0.017 A 
ATOM     10  C   UNL     1       6.935   5.268 -12.009  0.00  0.00    +0.001 A 
ATOM     11  C   UNL     1       7.468   5.833 -10.854  0.00  0.00    +0.000 A 
ATOM     12  C   UNL     1       6.583   6.199  -9.848  0.00  0.00    +0.002 A 
ATOM     13  C   UNL     1       3.022   5.708 -10.053  0.00  0.00    +0.040 A 
ATOM     14  C   UNL     1       1.986   4.696  -9.664  0.00  0.00    +0.044 C 
ATOM     15  C   UNL     1       2.521   3.830  -8.605  0.00  0.00    +0.016 C 
ENDROOT
BRANCH   1  16
ATOM     16  C   UNL     1       1.873   6.017  -7.706  0.00  0.00    +0.115 C 
BRANCH  16  19
ATOM     17  C   UNL     1      -1.026   5.298  -7.131  0.00  0.00    +0.072 C 
ATOM     18  C   UNL     1      -0.048   5.549  -6.251  0.00  0.00    +0.121 A 
ATOM     19  N   UNL     1       1.102   6.226  -6.483  0.00  0.00    -0.313 N 
ATOM     20  C   UNL     1       1.628   6.545  -5.276  0.00  0.00    +0.098 A 
ATOM     21  C   UNL     1       0.948   5.800  -4.321  0.00  0.00    +0.119 A 
ATOM     22  N   UNL     1      -0.237   5.515  -4.909  0.00  0.00    -0.229 NA
ENDBRANCH  16  19
ENDBRANCH   1  16
TORSDOF 2
ENDMDL
MODEL 2
REMARK VINA RESULT:      -7.8      2.154      7.267
REMARK  Name = 
REMARK  2 active torsions:
REMARK  status: ('A' for Active; 'I' for Inactive)
REMARK    1  A    between atoms: N_6  and  C_7
REMARK    2  A    between atoms: C_7  and  C_8
REMARK                            x       y       z     vdW  Elec       q    Type
REMARK                         _______ _______ _______ _____ _____    ______ ____
ROOT
ATOM      1  C   UNL     1       1.806   4.716  -7.976  0.00  0.00    +0.085 C 
ATOM      2  C   UNL     1       0.491   5.407  -7.327  0.00  0.00    +0.176 C 
ATOM      3  O   UNL     1      -0.529   5.351  -8.040  0.00  0.00    -0.291 OA
ATOM      4  C   UNL     1       0.565   5.884  -5.981  0.00  0.00    +0.048 A 
ATOM      5  C   UNL     1      -0.490   6.236  -5.139  0.00  0.00    +0.020 A 
ATOM      6  C   UNL     1      -0.051   6.044  -3.834  0.00  0.00    +0.060 A 
ATOM      7  N   UNL     1       1.296   6.115  -3.945  0.00  0.00    -0.329 N 
ATOM      8  C   UNL     1       2.210   6.121  -2.827  0.00  0.00    +0.130 C 
ATOM      9  C   UNL     1      -0.938   5.897  -2.772  0.00  0.00    +0.017 A 
ATOM     10  C   UNL     1      -2.168   5.342  -3.109  0.00  0.00    +0.001 A 
ATOM     11  C   UNL     1      -2.730   5.895  -4.255  0.00  0.00    +0.000 A 
ATOM     12  C   UNL     1      -1.873   6.242  -5.291  0.00  0.00    +0.002 A 
ATOM     13  C   UNL     1       1.690   5.729  -5.182  0.00  0.00    +0.040 A 
ATOM     14  C   UNL     1       2.707   4.705  -5.588  0.00  0.00    +0.044 C 
ATOM     15  C   UNL     1       2.136   3.829  -6.620  0.00  0.00    +0.016 C 
ENDROOT
BRANCH   1  16
ATOM     16  C   UNL     1       2.772   5.999  -7.566  0.00  0.00    +0.115 C 
BRANCH  16  19
ATOM     17  C   UNL     1       5.586   5.118  -8.312  0.00  0.00    +0.072 C 
ATOM     18  C   UNL     1       4.585   5.461  -9.132  0.00  0.00    +0.121 A 
ATOM     19  N   UNL     1       3.494   6.202  -8.820  0.00  0.00    -0.313 N 
ATOM     20  C   UNL     1       2.931   6.595  -9.988  0.00  0.00    +0.098 A 
ATOM     21  C   UNL     1       3.512   5.841 -10.999  0.00  0.00    +0.119 A 
ATOM     22  N   UNL     1       4.704   5.461 -10.482  0.00  0.00    -0.229 NA
ENDBRANCH  16  19
ENDBRANCH   1  16
TORSDOF 2
ENDMDL
MODEL 3
REMARK VINA RESULT:      -7.7      1.736      6.684
REMARK  Name = 
REMARK  2 active torsions:
REMARK  status: ('A' for Active; 'I' for Inactive)
REMARK    1  A    between atoms: N_6  and  C_7
REMARK    2  A    between atoms: C_7  and  C_8
REMARK                            x       y       z     vdW  Elec       q    Type
REMARK                         _______ _______ _______ _____ _____    ______ ____
ROOT
ATOM      1  C   UNL     1       3.856   4.829 -10.002  0.00  0.00    +0.085 C 
ATOM      2  C   UNL     1       2.370   5.274  -9.533  0.00  0.00    +0.176 C 
ATOM      3  O   UNL     1       1.448   4.834 -10.248  0.00  0.00    -0.291 OA
ATOM      4  C   UNL     1       2.227   5.990  -8.305  0.00  0.00    +0.048 A 
ATOM      5  C   UNL     1       1.059   6.213  -7.575  0.00  0.00    +0.020 A 
ATOM      6  C   UNL     1       1.435   6.378  -6.246  0.00  0.00    +0.060 A 
ATOM      7  N   UNL     1       2.729   6.763  -6.334  0.00  0.00    -0.329 N 
ATOM      8  C   UNL     1       3.530   7.202  -5.215  0.00  0.00    +0.130 C 
ATOM      9  C   UNL     1       0.534   6.208  -5.199  0.00  0.00    +0.017 A 
ATOM     10  C   UNL     1      -0.497   5.310  -5.454  0.00  0.00    +0.001 A 
ATOM     11  C   UNL     1      -1.090   5.486  -6.699  0.00  0.00    +0.000 A 
ATOM     12  C   UNL     1      -0.269   5.844  -7.761  0.00  0.00    +0.002 A 
ATOM     13  C   UNL     1       3.295   6.271  -7.462  0.00  0.00    +0.040 A 
ATOM     14  C   UNL     1       4.556   5.479  -7.634  0.00  0.00    +0.044 C 
ATOM     15  C   UNL     1       4.291   4.315  -8.491  0.00  0.00    +0.016 C 
ENDROOT
BRANCH   1  16
ATOM     16  C   UNL     1       4.452   6.366  -9.824  0.00  0.00    +0.115 C 
BRANCH  16  19
ATOM     17  C   UNL     1       7.479   6.098  -9.708  0.00  0.00    +0.072 C 
ATOM     18  C   UNL     1       6.676   5.927 -10.765  0.00  0.00    +0.121 A 
ATOM     19  N   UNL     1       5.418   6.406 -10.919  0.00  0.00    -0.313 N 
ATOM     20  C   UNL     1       5.109   6.305 -12.234  0.00  0.00    +0.098 A 
ATOM     21  C   UNL     1       6.069   5.488 -12.820  0.00  0.00    +0.119 A 
ATOM     22  N   UNL     1       7.137   5.594 -11.996  0.00  0.00    -0.229 NA
ENDBRANCH  16  19
ENDBRANCH   1  16
TORSDOF 2
ENDMDL
MODEL 4
REMARK VINA RESULT:      -7.6      1.987      6.489
REMARK  Name = 
REMARK  2 active torsions:
REMARK  status: ('A' for Active; 'I' for Inactive)
REMARK    1  A    between atoms: N_6  and  C_7
REMARK    2  A    between atoms: C_7  and  C_8
REMARK                            x       y       z     vdW  Elec       q    Type
REMARK                         _______ _______ _______ _____ _____    ______ ____
ROOT
ATOM      1  C   UNL     1       5.708   6.083 -10.164  0.00  0.00    +0.085 C 
ATOM      2  C   UNL     1       4.784   5.234  -9.138  0.00  0.00    +0.176 C 
ATOM      3  O   UNL     1       5.350   4.914  -8.075  0.00  0.00    -0.291 OA
ATOM      4  C   UNL     1       3.404   5.046  -9.459  0.00  0.00    +0.048 A 
ATOM      5  C   UNL     1       2.380   4.617  -8.613  0.00  0.00    +0.020 A 
ATOM      6  C   UNL     1       1.194   5.147  -9.109  0.00  0.00    +0.060 A 
ATOM      7  N   UNL     1       1.477   5.377 -10.412  0.00  0.00    -0.329 N 
ATOM      8  C   UNL     1       0.507   5.795 -11.398  0.00  0.00    +0.130 C 
ATOM      9  C   UNL     1       0.056   5.275  -8.318  0.00  0.00    +0.017 A 
ATOM     10  C   UNL     1       0.304   5.451  -6.960  0.00  0.00    +0.001 A 
ATOM     11  C   UNL     1       1.261   4.578  -6.454  0.00  0.00    +0.000 A 
ATOM     12  C   UNL     1       2.338   4.256  -7.270  0.00  0.00    +0.002 A 
ATOM     13  C   UNL     1       2.801   5.609 -10.576  0.00  0.00    +0.040 A 
ATOM     14  C   UNL     1       3.497   6.750 -11.253  0.00  0.00    +0.044 C 
ATOM     15  C   UNL     1       4.565   7.260 -10.382  0.00  0.00    +0.016 C 
ENDROOT
BRANCH   1  16
ATOM     16  C   UNL     1       5.239   5.164 -11.462  0.00  0.00    +0.115 C 
BRANCH  16  19
ATOM     17  C   UNL     1       5.625   6.151 -14.313  0.00  0.00    +0.072 C 
ATOM     18  C   UNL     1       6.557   5.973 -13.369  0.00  0.00    +0.121 A 
ATOM     19  N   UNL     1       6.459   5.193 -12.265  0.00  0.00    -0.313 N 
ATOM     20  C   UNL     1       7.714   5.027 -11.781  0.00  0.00    +0.098 A 
ATOM     21  C   UNL     1       8.528   5.952 -12.422  0.00  0.00    +0.119 A 
ATOM     22  N   UNL     1       7.874   6.221 -13.576  0.00  0.00    -0.229 NA
ENDBRANCH  16  19
ENDBRANCH   1  16
TORSDOF 2
ENDMDL
MODEL 5
REMARK VINA RESULT:      -7.5      3.521      5.685
REMARK  Name = 
REMARK  2 active torsions:
REMARK  status: ('A' for Active; 'I' for Inactive)
REMARK    1  A    between atoms: N_6  and  C_7
REMARK    2  A    between atoms: C_7  and  C_8
REMARK                            x       y       z     vdW  Elec       q    Type
REMARK                         _______ _______ _______ _____ _____    ______ ____
ROOT
ATOM      1  C   UNL     1      -1.902   6.300  -4.621  0.00  0.00    +0.085 C 
ATOM      2  C   UNL     1      -1.557   5.685  -6.081  0.00  0.00    +0.176 C 
ATOM      3  O   UNL     1      -2.551   5.320  -6.737  0.00  0.00    -0.291 OA
ATOM      4  C   UNL     1      -0.205   5.737  -6.540  0.00  0.00    +0.048 A 
ATOM      5  C   UNL     1       0.265   5.544  -7.840  0.00  0.00    +0.020 A 
ATOM      6  C   UNL     1       1.455   6.256  -7.953  0.00  0.00    +0.060 A 
ATOM      7  N   UNL     1       1.874   6.366  -6.671  0.00  0.00    -0.329 N 
ATOM      8  C   UNL     1       3.154   6.905  -6.272  0.00  0.00    +0.130 C 
ATOM      9  C   UNL     1       1.976   6.628  -9.188  0.00  0.00    +0.017 A 
ATOM     10  C   UNL     1       1.030   6.823 -10.188  0.00  0.00    +0.001 A 
ATOM     11  C   UNL     1       0.072   5.817 -10.249  0.00  0.00    +0.000 A 
ATOM     12  C   UNL     1      -0.360   5.264  -9.050  0.00  0.00    +0.002 A 
ATOM     13  C   UNL     1       0.818   6.344  -5.823  0.00  0.00    +0.040 A 
ATOM     14  C   UNL     1       0.442   7.304  -4.735  0.00  0.00    +0.044 C 
ATOM     15  C   UNL     1      -0.980   7.652  -4.858  0.00  0.00    +0.016 C 
ENDROOT
BRANCH   1  16
ATOM     16  C   UNL     1      -0.705   5.419  -3.886  0.00  0.00    +0.115 C 
BRANCH  16  19
ATOM     17  C   UNL     1       0.857   5.074  -1.300  0.00  0.00    +0.072 C 
ATOM     18  C   UNL     1      -0.371   5.580  -1.459  0.00  0.00    +0.121 A 
ATOM     19  N   UNL     1      -1.202   5.387  -2.513  0.00  0.00    -0.313 N 
ATOM     20  C   UNL     1      -2.439   5.777  -2.123  0.00  0.00    +0.098 A 
ATOM     21  C   UNL     1      -2.293   6.483  -0.936  0.00  0.00    +0.119 A 
ATOM     22  N   UNL     1      -1.125   6.030  -0.426  0.00  0.00    -0.229 NA
ENDBRANCH  16  19
ENDBRANCH   1  16
TORSDOF 2
ENDMDL
MODEL 6
REMARK VINA RESULT:      -7.5      2.042      6.000
REMARK  Name = 
REMARK  2 active torsions:
REMARK  status: ('A' for Active; 'I' for Inactive)
REMARK    1  A    between atoms: N_6  and  C_7
REMARK    2  A    between atoms: C_7  and  C_8
REMARK                            x       y       z     vdW  Elec       q    Type
REMARK                         _______ _______ _______ _____ _____    ______ ____
ROOT
ATOM      1  C   UNL     1       3.309   6.488  -8.736  0.00  0.00    +0.085 C 
ATOM      2  C   UNL     1       3.829   5.691  -7.424  0.00  0.00    +0.176 C 
ATOM      3  O   UNL     1       5.062   5.515  -7.380  0.00  0.00    -0.291 OA
ATOM      4  C   UNL     1       2.888   5.387  -6.393  0.00  0.00    +0.048 A 
ATOM      5  C   UNL     1       3.154   4.982  -5.084  0.00  0.00    +0.020 A 
ATOM      6  C   UNL     1       2.073   5.384  -4.306  0.00  0.00    +0.060 A 
ATOM      7  N   UNL     1       1.068   5.499  -5.205  0.00  0.00    -0.329 N 
ATOM      8  C   UNL     1      -0.311   5.755  -4.862  0.00  0.00    +0.130 C 
ATOM      9  C   UNL     1       2.170   5.520  -2.925  0.00  0.00    +0.017 A 
ATOM     10  C   UNL     1       3.438   5.847  -2.456  0.00  0.00    +0.001 A 
ATOM     11  C   UNL     1       4.453   5.091  -3.031  0.00  0.00    +0.000 A 
ATOM     12  C   UNL     1       4.328   4.757  -4.374  0.00  0.00    +0.002 A 
ATOM     13  C   UNL     1       1.561   5.795  -6.432  0.00  0.00    +0.040 A 
ATOM     14  C   UNL     1       1.192   6.904  -7.371  0.00  0.00    +0.044 C 
ATOM     15  C   UNL     1       2.413   7.564  -7.854  0.00  0.00    +0.016 C 
ENDROOT
BRANCH   1  16
ATOM     16  C   UNL     1       2.069   5.416  -8.986  0.00  0.00    +0.115 C 
BRANCH  16  19
ATOM     17  C   UNL     1      -0.109   4.491 -10.897  0.00  0.00    +0.072 C 
ATOM     18  C   UNL     1       0.990   5.201 -11.180  0.00  0.00    +0.121 A 
ATOM     19  N   UNL     1       2.122   5.281 -10.439  0.00  0.00    -0.313 N 
ATOM     20  C   UNL     1       3.085   5.806 -11.236  0.00  0.00    +0.098 A 
ATOM     21  C   UNL     1       2.453   6.317 -12.363  0.00  0.00    +0.119 A 
ATOM     22  N   UNL     1       1.294   5.622 -12.433  0.00  0.00    -0.229 NA
ENDBRANCH  16  19
ENDBRANCH   1  16
TORSDOF 2
ENDMDL
MODEL 7
REMARK VINA RESULT:      -7.4      2.182      3.976
REMARK  Name = 
REMARK  2 active torsions:
REMARK  status: ('A' for Active; 'I' for Inactive)
REMARK    1  A    between atoms: N_6  and  C_7
REMARK    2  A    between atoms: C_7  and  C_8
REMARK                            x       y       z     vdW  Elec       q    Type
REMARK                         _______ _______ _______ _____ _____    ______ ____
ROOT
ATOM      1  C   UNL     1       0.943   6.275  -6.380  0.00  0.00    +0.085 C 
ATOM      2  C   UNL     1       0.569   5.557  -7.784  0.00  0.00    +0.176 C 
ATOM      3  O   UNL     1      -0.645   5.323  -7.939  0.00  0.00    -0.291 OA
ATOM      4  C   UNL     1       1.602   5.383  -8.757  0.00  0.00    +0.048 A 
ATOM      5  C   UNL     1       1.459   5.069 -10.109  0.00  0.00    +0.020 A 
ATOM      6  C   UNL     1       2.570   5.585 -10.767  0.00  0.00    +0.060 A 
ATOM      7  N   UNL     1       3.496   5.681  -9.784  0.00  0.00    -0.329 N 
ATOM      8  C   UNL     1       4.881   6.032  -9.997  0.00  0.00    +0.130 C 
ATOM      9  C   UNL     1       2.570   5.824 -12.138  0.00  0.00    +0.017 A 
ATOM     10  C   UNL     1       1.324   6.121 -12.680  0.00  0.00    +0.001 A 
ATOM     11  C   UNL     1       0.313   5.271 -12.245  0.00  0.00    +0.000 A 
ATOM     12  C   UNL     1       0.356   4.840 -10.925  0.00  0.00    +0.002 A 
ATOM     13  C   UNL     1       2.896   5.854  -8.582  0.00  0.00    +0.040 A 
ATOM     14  C   UNL     1       3.129   6.903  -7.537  0.00  0.00    +0.044 C 
ATOM     15  C   UNL     1       1.840   7.460  -7.105  0.00  0.00    +0.016 C 
ENDROOT
BRANCH   1  16
ATOM     16  C   UNL     1       2.219   5.251  -6.112  0.00  0.00    +0.115 C 
BRANCH  16  19
ATOM     17  C   UNL     1       4.496   4.894  -4.127  0.00  0.00    +0.072 C 
ATOM     18  C   UNL     1       3.250   5.320  -3.885  0.00  0.00    +0.121 A 
ATOM     19  N   UNL     1       2.156   5.119  -4.658  0.00  0.00    -0.313 N 
ATOM     20  C   UNL     1       1.071   5.403  -3.897  0.00  0.00    +0.098 A 
ATOM     21  C   UNL     1       1.526   6.061  -2.762  0.00  0.00    +0.119 A 
ATOM     22  N   UNL     1       2.816   5.667  -2.648  0.00  0.00    -0.229 NA
ENDBRANCH  16  19
ENDBRANCH   1  16
TORSDOF 2
ENDMDL
MODEL 8
REMARK VINA RESULT:      -7.4      1.486      1.945
REMARK  Name = 
REMARK  2 active torsions:
REMARK  status: ('A' for Active; 'I' for Inactive)
REMARK    1  A    between atoms: N_6  and  C_7
REMARK    2  A    between atoms: C_7  and  C_8
REMARK                            x       y       z     vdW  Elec       q    Type
REMARK                         _______ _______ _______ _____ _____    ______ ____
ROOT
ATOM      1  C   UNL     1       3.592   5.269  -7.273  0.00  0.00    +0.085 C 
ATOM      2  C   UNL     1       4.457   5.678  -8.582  0.00  0.00    +0.176 C 
ATOM      3  O   UNL     1       5.681   5.474  -8.477  0.00  0.00    -0.291 OA
ATOM      4  C   UNL     1       3.759   6.093  -9.758  0.00  0.00    +0.048 A 
ATOM      5  C   UNL     1       4.261   6.206 -11.055  0.00  0.00    +0.020 A 
ATOM      6  C   UNL     1       3.189   6.032 -11.924  0.00  0.00    +0.060 A 
ATOM      7  N   UNL     1       2.117   6.350 -11.162  0.00  0.00    -0.329 N 
ATOM      8  C   UNL     1       0.765   6.465 -11.659  0.00  0.00    +0.130 C 
ATOM      9  C   UNL     1       3.370   5.674 -13.256  0.00  0.00    +0.017 A 
ATOM     10  C   UNL     1       4.513   4.923 -13.510  0.00  0.00    +0.001 A 
ATOM     11  C   UNL     1       5.653   5.421 -12.888  0.00  0.00    +0.000 A 
ATOM     12  C   UNL     1       5.510   5.969 -11.620  0.00  0.00    +0.002 A 
ATOM     13  C   UNL     1       2.374   6.104  -9.854  0.00  0.00    +0.040 A 
ATOM     14  C   UNL     1       1.591   5.302  -8.859  0.00  0.00    +0.044 C 
ATOM     15  C   UNL     1       2.495   4.390  -8.145  0.00  0.00    +0.016 C 
ENDROOT
BRANCH   1  16
ATOM     16  C   UNL     1       2.728   6.684  -7.312  0.00  0.00    +0.115 C 
BRANCH  16  19
ATOM     17  C   UNL     1       0.402   6.811  -5.357  0.00  0.00    +0.072 C 
ATOM     18  C   UNL     1       1.708   6.719  -5.079  0.00  0.00    +0.121 A 
ATOM     19  N   UNL     1       2.740   7.043  -5.896  0.00  0.00    -0.313 N 
ATOM     20  C   UNL     1       3.849   7.130  -5.124  0.00  0.00    +0.098 A 
ATOM     21  C   UNL     1       3.539   6.564  -3.894  0.00  0.00    +0.119 A 
ATOM     22  N   UNL     1       2.192   6.669  -3.814  0.00  0.00    -0.229 NA
ENDBRANCH  16  19
ENDBRANCH   1  16
TORSDOF 2
ENDMDL
MODEL 9
REMARK VINA RESULT:      -7.4      2.750      5.094
REMARK  Name = 
REMARK  2 active torsions:
REMARK  status: ('A' for Active; 'I' for Inactive)
REMARK    1  A    between atoms: N_6  and  C_7
REMARK    2  A    between atoms: C_7  and  C_8
REMARK                            x       y       z     vdW  Elec       q    Type
REMARK                         _______ _______ _______ _____ _____    ______ ____
ROOT
ATOM      1  C   UNL     1      -0.930   6.161  -5.379  0.00  0.00    +0.085 C 
ATOM      2  C   UNL     1      -0.055   5.326  -6.457  0.00  0.00    +0.176 C 
ATOM      3  O   UNL     1      -0.666   5.028  -7.501  0.00  0.00    -0.291 OA
ATOM      4  C   UNL     1       1.337   5.127  -6.198  0.00  0.00    +0.048 A 
ATOM      5  C   UNL     1       2.322   4.709  -7.093  0.00  0.00    +0.020 A 
ATOM      6  C   UNL     1       3.531   5.224  -6.638  0.00  0.00    +0.060 A 
ATOM      7  N   UNL     1       3.303   5.432  -5.320  0.00  0.00    -0.329 N 
ATOM      8  C   UNL     1       4.315   5.828  -4.368  0.00  0.00    +0.130 C 
ATOM      9  C   UNL     1       4.635   5.361  -7.473  0.00  0.00    +0.017 A 
ATOM     10  C   UNL     1       4.332   5.563  -8.816  0.00  0.00    +0.001 A 
ATOM     11  C   UNL     1       3.350   4.704  -9.297  0.00  0.00    +0.000 A 
ATOM     12  C   UNL     1       2.307   4.372  -8.443  0.00  0.00    +0.002 A 
ATOM     13  C   UNL     1       1.988   5.666  -5.097  0.00  0.00    +0.040 A 
ATOM     14  C   UNL     1       1.326   6.799  -4.371  0.00  0.00    +0.044 C 
ATOM     15  C   UNL     1       0.226   7.328  -5.188  0.00  0.00    +0.016 C 
ENDROOT
BRANCH   1  16
ATOM     16  C   UNL     1      -0.413   5.217  -4.118  0.00  0.00    +0.115 C 
BRANCH  16  19
ATOM     17  C   UNL     1      -0.512   5.744  -1.124  0.00  0.00    +0.072 C 
ATOM     18  C   UNL     1      -1.502   5.869  -2.017  0.00  0.00    +0.121 A 
ATOM     19  N   UNL     1      -1.577   5.285  -3.238  0.00  0.00    -0.313 N 
ATOM     20  C   UNL     1      -2.862   5.389  -3.653  0.00  0.00    +0.098 A 
ATOM     21  C   UNL     1      -3.493   6.299  -2.813  0.00  0.00    +0.119 A 
ATOM     22  N   UNL     1      -2.753   6.268  -1.680  0.00  0.00    -0.229 NA
ENDBRANCH  16  19
ENDBRANCH   1  16
TORSDOF 2
ENDMDL
