MODEL 1
REMARK VINA RESULT:      -8.1      0.000      0.000
REMARK  Name = 
REMARK  26 active torsions:
REMARK  status: ('A' for Active; 'I' for Inactive)
REMARK    1  A    between atoms: O_2  and  C_3
REMARK    2  A    between atoms: C_6  and  C_7
REMARK    3  A    between atoms: C_7  and  C_8
REMARK    4  A    between atoms: C_11  and  O_12
REMARK    5  A    between atoms: C_14  and  O_15
REMARK    6  A    between atoms: N_21  and  C_23
REMARK    7  A    between atoms: C_23  and  C_24
REMARK    8  A    between atoms: C_24  and  C_25
REMARK    9  A    between atoms: C_25  and  O_27
REMARK   10  A    between atoms: O_27  and  C_28
REMARK   11  A    between atoms: C_28  and  C_29
REMARK   12  A    between atoms: C_29  and  C_30
REMARK   13  A    between atoms: C_30  and  C_31
REMARK   14  A    between atoms: C_31  and  C_32
REMARK   15  A    between atoms: C_32  and  O_33
REMARK   16  A    between atoms: O_33  and  C_34
REMARK   17  A    between atoms: C_34  and  C_36
REMARK   18  A    between atoms: C_36  and  C_37
REMARK   19  A    between atoms: C_37  and  N_38
REMARK   20  A    between atoms: C_44  and  O_45
REMARK   21  A    between atoms: C_47  and  O_48
REMARK   22  A    between atoms: C_52  and  C_53
REMARK   23  A    between atoms: C_53  and  C_54
REMARK   24  A    between atoms: C_57  and  O_58
REMARK   25  A    between atoms: C_60  and  O_61
REMARK   26  A    between atoms: C_65  and  O_66
REMARK                            x       y       z     vdW  Elec       q    Type
REMARK                         _______ _______ _______ _____ _____    ______ ____
ROOT
ATOM      1  C   UNL     1       6.175   6.905 -12.016  0.00  0.00    +0.008 C 
ENDROOT
BRANCH   1   2
ATOM      2  C   UNL     1       7.319   6.614 -11.076  0.00  0.00    +0.048 C 
BRANCH   2   3
ATOM      3  C   UNL     1       6.756   5.770  -9.937  0.00  0.00    +0.208 C 
BRANCH   3   4
ATOM      4  O   UNL     1       5.344   5.966  -9.963  0.00  0.00    -0.448 OA
BRANCH   4   5
ATOM      5  C   UNL     1       4.488   5.348  -9.049  0.00  0.00    +0.323 C 
ATOM      6  O   UNL     1       4.000   4.253  -9.447  0.00  0.00    -0.250 OA
BRANCH   5   7
ATOM      7  C   UNL     1       4.535   5.748  -7.609  0.00  0.00    +0.170 C 
BRANCH   7   8
ATOM      8  C   UNL     1       3.752   4.824  -6.754  0.00  0.00    +0.121 C 
BRANCH   8   9
ATOM      9  N   UNL     1       2.462   5.301  -6.322  0.00  0.00    +0.301 N 
ATOM     10  C   UNL     1       2.718   5.300  -4.737  0.00  0.00    +0.086 C 
ATOM     11  C   UNL     1       1.126   5.506  -4.406  0.00  0.00    +0.027 A 
ATOM     12  C   UNL     1       0.476   6.460  -5.085  0.00  0.00    -0.012 A 
ATOM     13  C   UNL     1      -0.860   6.646  -4.741  0.00  0.00    +0.036 A 
ATOM     14  C   UNL     1      -1.385   6.032  -3.613  0.00  0.00    +0.172 A 
ATOM     15  C   UNL     1      -0.584   5.214  -2.825  0.00  0.00    +0.172 A 
ATOM     16  C   UNL     1       1.162   7.378  -6.011  0.00  0.00    +0.087 C 
ATOM     17  C   UNL     1       0.742   5.006  -3.185  0.00  0.00    +0.041 A 
ATOM     18  C   UNL     1       2.179   6.583  -6.757  0.00  0.00    +0.114 C 
ATOM     19  C   UNL     1       1.420   4.328  -6.518  0.00  0.00    +0.171 C 
BRANCH  14  20
ATOM     20  O   UNL     1      -2.770   5.899  -3.468  0.00  0.00    -0.468 OA
ATOM     21  C   UNL     1      -3.514   6.875  -2.781  0.00  0.00    +0.253 C 
ENDBRANCH  14  20
BRANCH  15  22
ATOM     22  O   UNL     1      -0.955   5.000  -1.503  0.00  0.00    -0.468 OA
ATOM     23  C   UNL     1      -0.740   6.052  -0.569  0.00  0.00    +0.253 C 
ENDBRANCH  15  22
BRANCH  10  24
ATOM     24  C   UNL     1       3.049   6.945  -4.645  0.00  0.00    +0.086 C 
BRANCH  24  25
ATOM     25  C   UNL     1       3.750   6.960  -3.320  0.00  0.00    -0.013 A 
ATOM     26  C   UNL     1       4.159   5.752  -2.803  0.00  0.00    +0.036 A 
ATOM     27  C   UNL     1       4.329   5.599  -1.445  0.00  0.00    +0.172 A 
ATOM     28  C   UNL     1       4.368   6.710  -0.620  0.00  0.00    +0.172 A 
ATOM     29  C   UNL     1       3.937   7.937  -1.095  0.00  0.00    +0.040 A 
ATOM     30  C   UNL     1       3.663   8.005  -2.437  0.00  0.00    -0.001 A 
BRANCH  28  31
ATOM     31  O   UNL     1       4.372   6.549   0.758  0.00  0.00    -0.468 OA
ATOM     32  C   UNL     1       4.064   7.626   1.601  0.00  0.00    +0.253 C 
ENDBRANCH  28  31
BRANCH  27  33
ATOM     33  O   UNL     1       4.407   4.359  -0.835  0.00  0.00    -0.468 OA
ATOM     34  C   UNL     1       3.280   3.530  -0.752  0.00  0.00    +0.253 C 
ENDBRANCH  27  33
ENDBRANCH  24  25
ENDBRANCH  10  24
ENDBRANCH   8   9
ENDBRANCH   7   8
ENDBRANCH   5   7
ENDBRANCH   4   5
ENDBRANCH   3   4
ENDBRANCH   2   3
ENDBRANCH   1   2
BRANCH   1  35
ATOM     35  C   UNL     1       6.523   6.298 -13.352  0.00  0.00    +0.048 C 
BRANCH  35  36
ATOM     36  C   UNL     1       6.392   7.286 -14.490  0.00  0.00    +0.208 C 
BRANCH  36  37
ATOM     37  O   UNL     1       5.313   6.955 -15.329  0.00  0.00    -0.448 OA
BRANCH  37  38
ATOM     38  C   UNL     1       5.118   7.534 -16.587  0.00  0.00    +0.323 C 
ATOM     39  O   UNL     1       5.710   7.009 -17.552  0.00  0.00    -0.250 OA
BRANCH  38  40
ATOM     40  C   UNL     1       4.112   8.623 -16.763  0.00  0.00    +0.170 C 
BRANCH  40  41
ATOM     41  C   UNL     1       2.780   8.112 -17.237  0.00  0.00    +0.121 C 
BRANCH  41  43
ATOM     42  C   UNL     1       1.586   9.472 -15.750  0.00  0.00    +0.086 C 
ATOM     43  N   UNL     1       1.879   9.265 -17.314  0.00  0.00    +0.301 N 
ATOM     44  C   UNL     1       2.624  10.376 -17.742  0.00  0.00    +0.171 C 
ATOM     45  C   UNL     1       0.709   8.877 -17.941  0.00  0.00    +0.114 C 
ATOM     46  C   UNL     1      -0.025  10.119 -18.410  0.00  0.00    +0.087 C 
ATOM     47  C   UNL     1       0.097  10.995 -17.199  0.00  0.00    -0.012 A 
ATOM     48  C   UNL     1      -0.785  12.073 -17.264  0.00  0.00    +0.036 A 
ATOM     49  C   UNL     1      -0.959  12.891 -16.158  0.00  0.00    +0.172 A 
ATOM     50  C   UNL     1      -0.004  12.753 -15.161  0.00  0.00    +0.172 A 
ATOM     51  C   UNL     1       0.527  11.497 -15.004  0.00  0.00    +0.041 A 
ATOM     52  C   UNL     1       0.319  10.497 -15.964  0.00  0.00    +0.027 A 
BRANCH  50  53
ATOM     53  O   UNL     1       0.250  13.824 -14.322  0.00  0.00    -0.468 OA
ATOM     54  C   UNL     1      -0.470  14.011 -13.125  0.00  0.00    +0.253 C 
ENDBRANCH  50  53
BRANCH  49  55
ATOM     55  O   UNL     1      -2.024  13.775 -16.019  0.00  0.00    -0.468 OA
ATOM     56  C   UNL     1      -2.411  14.462 -17.206  0.00  0.00    +0.253 C 
ENDBRANCH  49  55
BRANCH  42  57
ATOM     57  C   UNL     1       0.636   8.093 -15.700  0.00  0.00    +0.086 C 
BRANCH  57  61
ATOM     58  C   UNL     1       0.907   6.195 -12.010  0.00  0.00    +0.172 A 
ATOM     59  C   UNL     1       2.042   6.288 -12.804  0.00  0.00    +0.172 A 
ATOM     60  C   UNL     1       1.932   7.088 -13.936  0.00  0.00    +0.036 A 
ATOM     61  C   UNL     1       0.690   7.563 -14.355  0.00  0.00    -0.013 A 
ATOM     62  C   UNL     1      -0.125   7.934 -13.292  0.00  0.00    -0.001 A 
ATOM     63  C   UNL     1       0.006   7.250 -12.087  0.00  0.00    +0.040 A 
BRANCH  58  65
ATOM     64  C   UNL     1       0.251   5.235  -9.844  0.00  0.00    +0.253 C 
ATOM     65  O   UNL     1       0.788   5.147 -11.129  0.00  0.00    -0.468 OA
ENDBRANCH  58  65
BRANCH  59  66
ATOM     66  O   UNL     1       3.044   5.318 -12.692  0.00  0.00    -0.468 OA
ATOM     67  C   UNL     1       3.323   4.571 -13.875  0.00  0.00    +0.253 C 
ENDBRANCH  59  66
ENDBRANCH  57  61
ENDBRANCH  42  57
ENDBRANCH  41  43
ENDBRANCH  40  41
ENDBRANCH  38  40
ENDBRANCH  37  38
ENDBRANCH  36  37
ENDBRANCH  35  36
ENDBRANCH   1  35
TORSDOF 26
ENDMDL
MODEL 2
REMARK VINA RESULT:      -7.8      2.621     12.667
REMARK  Name = 
REMARK  26 active torsions:
REMARK  status: ('A' for Active; 'I' for Inactive)
REMARK    1  A    between atoms: O_2  and  C_3
REMARK    2  A    between atoms: C_6  and  C_7
REMARK    3  A    between atoms: C_7  and  C_8
REMARK    4  A    between atoms: C_11  and  O_12
REMARK    5  A    between atoms: C_14  and  O_15
REMARK    6  A    between atoms: N_21  and  C_23
REMARK    7  A    between atoms: C_23  and  C_24
REMARK    8  A    between atoms: C_24  and  C_25
REMARK    9  A    between atoms: C_25  and  O_27
REMARK   10  A    between atoms: O_27  and  C_28
REMARK   11  A    between atoms: C_28  and  C_29
REMARK   12  A    between atoms: C_29  and  C_30
REMARK   13  A    between atoms: C_30  and  C_31
REMARK   14  A    between atoms: C_31  and  C_32
REMARK   15  A    between atoms: C_32  and  O_33
REMARK   16  A    between atoms: O_33  and  C_34
REMARK   17  A    between atoms: C_34  and  C_36
REMARK   18  A    between atoms: C_36  and  C_37
REMARK   19  A    between atoms: C_37  and  N_38
REMARK   20  A    between atoms: C_44  and  O_45
REMARK   21  A    between atoms: C_47  and  O_48
REMARK   22  A    between atoms: C_52  and  C_53
REMARK   23  A    between atoms: C_53  and  C_54
REMARK   24  A    between atoms: C_57  and  O_58
REMARK   25  A    between atoms: C_60  and  O_61
REMARK   26  A    between atoms: C_65  and  O_66
REMARK                            x       y       z     vdW  Elec       q    Type
REMARK                         _______ _______ _______ _____ _____    ______ ____
ROOT
ATOM      1  C   UNL     1       0.281   6.965 -15.237  0.00  0.00    +0.008 C 
ENDROOT
BRANCH   1   2
ATOM      2  C   UNL     1       0.972   8.284 -14.995  0.00  0.00    +0.048 C 
BRANCH   2   3
ATOM      3  C   UNL     1       1.838   8.565 -16.218  0.00  0.00    +0.208 C 
BRANCH   3   4
ATOM      4  O   UNL     1       2.151   9.955 -16.167  0.00  0.00    -0.448 OA
BRANCH   4   5
ATOM      5  C   UNL     1       1.585  10.879 -17.048  0.00  0.00    +0.323 C 
ATOM      6  O   UNL     1       2.214  11.020 -18.134  0.00  0.00    -0.250 OA
BRANCH   5   7
ATOM      7  C   UNL     1       0.157  11.289 -16.870  0.00  0.00    +0.170 C 
BRANCH   7   8
ATOM      8  C   UNL     1      -0.038  12.735 -17.132  0.00  0.00    +0.121 C 
BRANCH   8   9
ATOM      9  N   UNL     1      -1.390  13.153 -17.400  0.00  0.00    +0.301 N 
ATOM     10  C   UNL     1      -1.791  13.650 -15.927  0.00  0.00    +0.086 C 
ATOM     11  C   UNL     1      -3.382  13.743 -16.313  0.00  0.00    +0.027 A 
ATOM     12  C   UNL     1      -3.702  14.367 -17.454  0.00  0.00    -0.012 A 
ATOM     13  C   UNL     1      -5.062  14.477 -17.724  0.00  0.00    +0.036 A 
ATOM     14  C   UNL     1      -5.998  14.161 -16.749  0.00  0.00    +0.172 A 
ATOM     15  C   UNL     1      -5.583  13.718 -15.499  0.00  0.00    +0.172 A 
ATOM     16  C   UNL     1      -2.698  15.050 -18.289  0.00  0.00    +0.087 C 
ATOM     17  C   UNL     1      -4.225  13.580 -15.240  0.00  0.00    +0.041 A 
ATOM     18  C   UNL     1      -1.470  14.205 -18.296  0.00  0.00    +0.114 C 
ATOM     19  C   UNL     1      -2.270  12.044 -17.657  0.00  0.00    +0.171 C 
BRANCH  14  20
ATOM     20  O   UNL     1      -7.326  13.906 -17.108  0.00  0.00    -0.468 OA
ATOM     21  C   UNL     1      -7.833  12.594 -17.087  0.00  0.00    +0.253 C 
ENDBRANCH  14  20
BRANCH  15  22
ATOM     22  O   UNL     1      -6.454  13.857 -14.425  0.00  0.00    -0.468 OA
ATOM     23  C   UNL     1      -6.634  15.157 -13.874  0.00  0.00    +0.253 C 
ENDBRANCH  15  22
BRANCH  10  24
ATOM     24  C   UNL     1      -1.519  15.277 -16.246  0.00  0.00    +0.086 C 
BRANCH  24  25
ATOM     25  C   UNL     1      -1.173  15.724 -14.858  0.00  0.00    -0.013 A 
ATOM     26  C   UNL     1      -0.929  14.749 -13.919  0.00  0.00    +0.036 A 
ATOM     27  C   UNL     1      -1.107  15.015 -12.579  0.00  0.00    +0.172 A 
ATOM     28  C   UNL     1      -1.257  16.320 -12.143  0.00  0.00    +0.172 A 
ATOM     29  C   UNL     1      -1.534  17.324 -13.056  0.00  0.00    +0.040 A 
ATOM     30  C   UNL     1      -1.460  16.977 -14.380  0.00  0.00    -0.001 A 
BRANCH  28  31
ATOM     31  O   UNL     1      -1.602  16.573 -10.823  0.00  0.00    -0.468 OA
ATOM     32  C   UNL     1      -2.816  17.203 -10.514  0.00  0.00    +0.253 C 
ENDBRANCH  28  31
BRANCH  27  33
ATOM     33  O   UNL     1      -1.207  14.017 -11.625  0.00  0.00    -0.468 OA
ATOM     34  C   UNL     1      -2.375  13.250 -11.510  0.00  0.00    +0.253 C 
ENDBRANCH  27  33
ENDBRANCH  24  25
ENDBRANCH  10  24
ENDBRANCH   8   9
ENDBRANCH   7   8
ENDBRANCH   5   7
ENDBRANCH   4   5
ENDBRANCH   3   4
ENDBRANCH   2   3
ENDBRANCH   1   2
BRANCH   1  35
ATOM     35  C   UNL     1       0.911   5.949 -14.319  0.00  0.00    +0.048 C 
BRANCH  35  36
ATOM     36  C   UNL     1       1.228   6.517 -12.953  0.00  0.00    +0.208 C 
BRANCH  36  37
ATOM     37  O   UNL     1       0.141   6.365 -12.075  0.00  0.00    -0.448 OA
BRANCH  37  38
ATOM     38  C   UNL     1       0.144   5.466 -11.004  0.00  0.00    +0.323 C 
ATOM     39  O   UNL     1       0.174   4.250 -11.282  0.00  0.00    -0.250 OA
BRANCH  38  40
ATOM     40  C   UNL     1       0.276   5.968  -9.603  0.00  0.00    +0.170 C 
BRANCH  40  41
ATOM     41  C   UNL     1       1.688   6.347  -9.253  0.00  0.00    +0.121 C 
BRANCH  41  43
ATOM     42  C   UNL     1       3.476   6.252  -7.743  0.00  0.00    +0.086 C 
ATOM     43  N   UNL     1       1.901   5.968  -7.855  0.00  0.00    +0.301 N 
ATOM     44  C   UNL     1       1.256   6.913  -7.040  0.00  0.00    +0.171 C 
ATOM     45  C   UNL     1       1.682   4.608  -7.721  0.00  0.00    +0.114 C 
ATOM     46  C   UNL     1       1.470   4.293  -6.253  0.00  0.00    +0.087 C 
ATOM     47  C   UNL     1       2.577   5.089  -5.629  0.00  0.00    -0.012 A 
ATOM     48  C   UNL     1       2.796   4.702  -4.307  0.00  0.00    +0.036 A 
ATOM     49  C   UNL     1       3.898   5.185  -3.619  0.00  0.00    +0.172 A 
ATOM     50  C   UNL     1       4.538   6.267  -4.206  0.00  0.00    +0.172 A 
ATOM     51  C   UNL     1       4.518   6.307  -5.579  0.00  0.00    +0.041 A 
ATOM     52  C   UNL     1       3.677   5.463  -6.316  0.00  0.00    +0.027 A 
BRANCH  50  53
ATOM     53  O   UNL     1       5.250   7.142  -3.405  0.00  0.00    -0.468 OA
ATOM     54  C   UNL     1       4.606   8.147  -2.655  0.00  0.00    +0.253 C 
ENDBRANCH  50  53
BRANCH  49  55
ATOM     55  O   UNL     1       4.370   4.625  -2.436  0.00  0.00    -0.468 OA
ATOM     56  C   UNL     1       3.561   4.853  -1.284  0.00  0.00    +0.253 C 
ENDBRANCH  49  55
BRANCH  42  57
ATOM     57  C   UNL     1       3.830   4.914  -8.688  0.00  0.00    +0.086 C 
BRANCH  57  61
ATOM     58  C   UNL     1       7.229   5.375 -11.039  0.00  0.00    +0.172 A 
ATOM     59  C   UNL     1       5.980   5.412 -11.647  0.00  0.00    +0.172 A 
ATOM     60  C   UNL     1       4.885   5.435 -10.790  0.00  0.00    +0.036 A 
ATOM     61  C   UNL     1       5.042   5.196  -9.425  0.00  0.00    -0.013 A 
ATOM     62  C   UNL     1       6.201   5.770  -8.913  0.00  0.00    -0.001 A 
ATOM     63  C   UNL     1       7.308   5.883  -9.748  0.00  0.00    +0.040 A 
BRANCH  58  65
ATOM     64  C   UNL     1       9.250   5.791 -12.375  0.00  0.00    +0.253 C 
ATOM     65  O   UNL     1       8.316   4.952 -11.766  0.00  0.00    -0.468 OA
ENDBRANCH  58  65
BRANCH  59  66
ATOM     66  O   UNL     1       5.851   5.022 -12.984  0.00  0.00    -0.468 OA
ATOM     67  C   UNL     1       4.521   5.000 -13.500  0.00  0.00    +0.253 C 
ENDBRANCH  59  66
ENDBRANCH  57  61
ENDBRANCH  42  57
ENDBRANCH  41  43
ENDBRANCH  40  41
ENDBRANCH  38  40
ENDBRANCH  37  38
ENDBRANCH  36  37
ENDBRANCH  35  36
ENDBRANCH   1  35
TORSDOF 26
ENDMDL
MODEL 3
REMARK VINA RESULT:      -7.7      3.381      9.231
REMARK  Name = 
REMARK  26 active torsions:
REMARK  status: ('A' for Active; 'I' for Inactive)
REMARK    1  A    between atoms: O_2  and  C_3
REMARK    2  A    between atoms: C_6  and  C_7
REMARK    3  A    between atoms: C_7  and  C_8
REMARK    4  A    between atoms: C_11  and  O_12
REMARK    5  A    between atoms: C_14  and  O_15
REMARK    6  A    between atoms: N_21  and  C_23
REMARK    7  A    between atoms: C_23  and  C_24
REMARK    8  A    between atoms: C_24  and  C_25
REMARK    9  A    between atoms: C_25  and  O_27
REMARK   10  A    between atoms: O_27  and  C_28
REMARK   11  A    between atoms: C_28  and  C_29
REMARK   12  A    between atoms: C_29  and  C_30
REMARK   13  A    between atoms: C_30  and  C_31
REMARK   14  A    between atoms: C_31  and  C_32
REMARK   15  A    between atoms: C_32  and  O_33
REMARK   16  A    between atoms: O_33  and  C_34
REMARK   17  A    between atoms: C_34  and  C_36
REMARK   18  A    between atoms: C_36  and  C_37
REMARK   19  A    between atoms: C_37  and  N_38
REMARK   20  A    between atoms: C_44  and  O_45
REMARK   21  A    between atoms: C_47  and  O_48
REMARK   22  A    between atoms: C_52  and  C_53
REMARK   23  A    between atoms: C_53  and  C_54
REMARK   24  A    between atoms: C_57  and  O_58
REMARK   25  A    between atoms: C_60  and  O_61
REMARK   26  A    between atoms: C_65  and  O_66
REMARK                            x       y       z     vdW  Elec       q    Type
REMARK                         _______ _______ _______ _____ _____    ______ ____
ROOT
ATOM      1  C   UNL     1       3.711   6.140  -3.500  0.00  0.00    +0.008 C 
ENDROOT
BRANCH   1   2
ATOM      2  C   UNL     1       4.690   7.267  -3.285  0.00  0.00    +0.048 C 
BRANCH   2   3
ATOM      3  C   UNL     1       4.296   7.957  -1.983  0.00  0.00    +0.208 C 
BRANCH   3   4
ATOM      4  O   UNL     1       5.060   7.327  -0.958  0.00  0.00    -0.448 OA
BRANCH   4   5
ATOM      5  C   UNL     1       4.473   6.813   0.200  0.00  0.00    +0.323 C 
ATOM      6  O   UNL     1       3.775   5.776   0.017  0.00  0.00    -0.250 OA
BRANCH   5   7
ATOM      7  C   UNL     1       5.007   7.215   1.539  0.00  0.00    +0.170 C 
BRANCH   7   8
ATOM      8  C   UNL     1       4.027   8.023   2.303  0.00  0.00    +0.121 C 
BRANCH   8   9
ATOM      9  N   UNL     1       4.261   9.445   2.328  0.00  0.00    +0.301 N 
ATOM     10  C   UNL     1       3.423   9.855   1.022  0.00  0.00    +0.086 C 
ATOM     11  C   UNL     1       4.064  11.363   0.995  0.00  0.00    +0.027 A 
ATOM     12  C   UNL     1       4.081  12.044   2.149  0.00  0.00    -0.012 A 
ATOM     13  C   UNL     1       4.581  13.341   2.080  0.00  0.00    +0.036 A 
ATOM     14  C   UNL     1       4.817  13.937   0.849  0.00  0.00    +0.172 A 
ATOM     15  C   UNL     1       4.570  13.237  -0.326  0.00  0.00    +0.172 A 
ATOM     16  C   UNL     1       3.454  11.529   3.379  0.00  0.00    +0.087 C 
ATOM     17  C   UNL     1       4.099  11.931  -0.256  0.00  0.00    +0.041 A 
ATOM     18  C   UNL     1       3.734  10.067   3.446  0.00  0.00    +0.114 C 
ATOM     19  C   UNL     1       5.620   9.786   2.004  0.00  0.00    +0.171 C 
BRANCH  14  20
ATOM     20  O   UNL     1       5.650  15.057   0.761  0.00  0.00    -0.468 OA
ATOM     21  C   UNL     1       6.516  15.390   1.818  0.00  0.00    +0.253 C 
ENDBRANCH  14  20
BRANCH  15  22
ATOM     22  O   UNL     1       4.358  13.959  -1.494  0.00  0.00    -0.468 OA
ATOM     23  C   UNL     1       5.416  14.021  -2.443  0.00  0.00    +0.253 C 
ENDBRANCH  15  22
BRANCH  10  24
ATOM     24  C   UNL     1       2.060  10.344   1.874  0.00  0.00    +0.086 C 
BRANCH  24  25
ATOM     25  C   UNL     1       1.028   9.566   1.114  0.00  0.00    -0.013 A 
ATOM     26  C   UNL     1      -0.292   9.775   1.437  0.00  0.00    +0.036 A 
ATOM     27  C   UNL     1      -1.232   8.800   1.189  0.00  0.00    +0.172 A 
ATOM     28  C   UNL     1      -0.922   7.729   0.369  0.00  0.00    +0.172 A 
ATOM     29  C   UNL     1       0.399   7.468   0.045  0.00  0.00    +0.040 A 
ATOM     30  C   UNL     1       1.314   8.417   0.422  0.00  0.00    -0.001 A 
BRANCH  28  31
ATOM     31  O   UNL     1      -1.807   6.666   0.254  0.00  0.00    -0.468 OA
ATOM     32  C   UNL     1      -1.948   5.987  -0.965  0.00  0.00    +0.253 C 
ENDBRANCH  28  31
BRANCH  27  33
ATOM     33  O   UNL     1      -2.485   8.799   1.779  0.00  0.00    -0.468 OA
ATOM     34  C   UNL     1      -2.689   9.404   3.026  0.00  0.00    +0.253 C 
ENDBRANCH  27  33
ENDBRANCH  24  25
ENDBRANCH  10  24
ENDBRANCH   8   9
ENDBRANCH   7   8
ENDBRANCH   5   7
ENDBRANCH   4   5
ENDBRANCH   3   4
ENDBRANCH   2   3
ENDBRANCH   1   2
BRANCH   1  35
ATOM     35  C   UNL     1       2.323   6.712  -3.357  0.00  0.00    +0.048 C 
BRANCH  35  36
ATOM     36  C   UNL     1       1.310   5.676  -2.923  0.00  0.00    +0.208 C 
BRANCH  36  37
ATOM     37  O   UNL     1       0.801   4.969  -4.028  0.00  0.00    -0.448 OA
BRANCH  37  38
ATOM     38  C   UNL     1      -0.060   5.541  -4.969  0.00  0.00    +0.323 C 
ATOM     39  O   UNL     1      -0.857   6.410  -4.558  0.00  0.00    -0.250 OA
BRANCH  38  40
ATOM     40  C   UNL     1       0.101   5.230  -6.421  0.00  0.00    +0.170 C 
BRANCH  40  41
ATOM     41  C   UNL     1       0.617   6.399  -7.212  0.00  0.00    +0.121 C 
BRANCH  41  43
ATOM     42  C   UNL     1       1.912   6.904  -9.097  0.00  0.00    +0.086 C 
ATOM     43  N   UNL     1       1.913   6.005  -7.768  0.00  0.00    +0.301 N 
ATOM     44  C   UNL     1       2.922   6.511  -6.932  0.00  0.00    +0.171 C 
ATOM     45  C   UNL     1       1.858   4.671  -8.130  0.00  0.00    +0.114 C 
ATOM     46  C   UNL     1       3.274   4.151  -8.286  0.00  0.00    +0.087 C 
ATOM     47  C   UNL     1       3.902   5.268  -9.066  0.00  0.00    -0.012 A 
ATOM     48  C   UNL     1       5.121   4.877  -9.619  0.00  0.00    +0.036 A 
ATOM     49  C   UNL     1       5.764   5.702 -10.528  0.00  0.00    +0.172 A 
ATOM     50  C   UNL     1       5.290   7.004 -10.587  0.00  0.00    +0.172 A 
ATOM     51  C   UNL     1       3.948   7.169 -10.346  0.00  0.00    +0.041 A 
ATOM     52  C   UNL     1       3.176   6.131  -9.809  0.00  0.00    +0.027 A 
BRANCH  50  53
ATOM     53  O   UNL     1       6.142   8.011 -11.005  0.00  0.00    -0.468 OA
ATOM     54  C   UNL     1       6.588   8.094 -12.340  0.00  0.00    +0.253 C 
ENDBRANCH  50  53
BRANCH  49  55
ATOM     55  O   UNL     1       6.796   5.273 -11.357  0.00  0.00    -0.468 OA
ATOM     56  C   UNL     1       8.084   5.210 -10.750  0.00  0.00    +0.253 C 
ENDBRANCH  49  55
BRANCH  42  57
ATOM     57  C   UNL     1       0.745   5.934  -9.806  0.00  0.00    +0.086 C 
BRANCH  57  61
ATOM     58  C   UNL     1       0.676   7.100 -13.797  0.00  0.00    +0.172 A 
ATOM     59  C   UNL     1       1.021   5.792 -13.484  0.00  0.00    +0.172 A 
ATOM     60  C   UNL     1       0.850   5.416 -12.157  0.00  0.00    +0.036 A 
ATOM     61  C   UNL     1       0.575   6.368 -11.175  0.00  0.00    -0.013 A 
ATOM     62  C   UNL     1      -0.291   7.359 -11.622  0.00  0.00    -0.001 A 
ATOM     63  C   UNL     1      -0.256   7.713 -12.967  0.00  0.00    +0.040 A 
BRANCH  58  65
ATOM     64  C   UNL     1       0.928   8.977 -15.364  0.00  0.00    +0.253 C 
ATOM     65  O   UNL     1       1.173   7.669 -14.944  0.00  0.00    -0.468 OA
ENDBRANCH  58  65
BRANCH  59  66
ATOM     66  O   UNL     1       1.866   5.077 -14.340  0.00  0.00    -0.468 OA
ATOM     67  C   UNL     1       3.244   5.046 -13.973  0.00  0.00    +0.253 C 
ENDBRANCH  59  66
ENDBRANCH  57  61
ENDBRANCH  42  57
ENDBRANCH  41  43
ENDBRANCH  40  41
ENDBRANCH  38  40
ENDBRANCH  37  38
ENDBRANCH  36  37
ENDBRANCH  35  36
ENDBRANCH   1  35
TORSDOF 26
ENDMDL
MODEL 4
REMARK VINA RESULT:      -7.7      1.566      4.200
REMARK  Name = 
REMARK  26 active torsions:
REMARK  status: ('A' for Active; 'I' for Inactive)
REMARK    1  A    between atoms: O_2  and  C_3
REMARK    2  A    between atoms: C_6  and  C_7
REMARK    3  A    between atoms: C_7  and  C_8
REMARK    4  A    between atoms: C_11  and  O_12
REMARK    5  A    between atoms: C_14  and  O_15
REMARK    6  A    between atoms: N_21  and  C_23
REMARK    7  A    between atoms: C_23  and  C_24
REMARK    8  A    between atoms: C_24  and  C_25
REMARK    9  A    between atoms: C_25  and  O_27
REMARK   10  A    between atoms: O_27  and  C_28
REMARK   11  A    between atoms: C_28  and  C_29
REMARK   12  A    between atoms: C_29  and  C_30
REMARK   13  A    between atoms: C_30  and  C_31
REMARK   14  A    between atoms: C_31  and  C_32
REMARK   15  A    between atoms: C_32  and  O_33
REMARK   16  A    between atoms: O_33  and  C_34
REMARK   17  A    between atoms: C_34  and  C_36
REMARK   18  A    between atoms: C_36  and  C_37
REMARK   19  A    between atoms: C_37  and  N_38
REMARK   20  A    between atoms: C_44  and  O_45
REMARK   21  A    between atoms: C_47  and  O_48
REMARK   22  A    between atoms: C_52  and  C_53
REMARK   23  A    between atoms: C_53  and  C_54
REMARK   24  A    between atoms: C_57  and  O_58
REMARK   25  A    between atoms: C_60  and  O_61
REMARK   26  A    between atoms: C_65  and  O_66
REMARK                            x       y       z     vdW  Elec       q    Type
REMARK                         _______ _______ _______ _____ _____    ______ ____
ROOT
ATOM      1  C   UNL     1       4.404   6.433 -11.642  0.00  0.00    +0.008 C 
ENDROOT
BRANCH   1   2
ATOM      2  C   UNL     1       3.711   5.676 -10.537  0.00  0.00    +0.048 C 
BRANCH   2   3
ATOM      3  C   UNL     1       3.333   6.695  -9.467  0.00  0.00    +0.208 C 
BRANCH   3   4
ATOM      4  O   UNL     1       3.784   6.151  -8.229  0.00  0.00    -0.448 OA
BRANCH   4   5
ATOM      5  C   UNL     1       3.593   6.808  -7.012  0.00  0.00    +0.323 C 
ATOM      6  O   UNL     1       2.540   7.502  -6.951  0.00  0.00    -0.250 OA
BRANCH   5   7
ATOM      7  C   UNL     1       4.343   6.350  -5.801  0.00  0.00    +0.170 C 
BRANCH   7   8
ATOM      8  C   UNL     1       3.429   5.963  -4.700  0.00  0.00    +0.121 C 
BRANCH   8   9
ATOM      9  N   UNL     1       3.927   6.164  -3.363  0.00  0.00    +0.301 N 
ATOM     10  C   UNL     1       2.576   6.693  -2.675  0.00  0.00    +0.086 C 
ATOM     11  C   UNL     1       3.371   7.192  -1.330  0.00  0.00    +0.027 A 
ATOM     12  C   UNL     1       4.238   6.334  -0.776  0.00  0.00    -0.012 A 
ATOM     13  C   UNL     1       4.854   6.766   0.395  0.00  0.00    +0.036 A 
ATOM     14  C   UNL     1       4.406   7.910   1.041  0.00  0.00    +0.172 A 
ATOM     15  C   UNL     1       3.348   8.642   0.516  0.00  0.00    +0.172 A 
ATOM     16  C   UNL     1       4.406   4.954  -1.265  0.00  0.00    +0.087 C 
ATOM     17  C   UNL     1       2.752   8.226  -0.669  0.00  0.00    +0.041 A 
ATOM     18  C   UNL     1       4.346   4.995  -2.753  0.00  0.00    +0.114 C 
ATOM     19  C   UNL     1       4.835   7.277  -3.275  0.00  0.00    +0.171 C 
BRANCH  14  20
ATOM     20  O   UNL     1       5.226   8.554   1.974  0.00  0.00    -0.468 OA
ATOM     21  C   UNL     1       5.779   7.842   3.053  0.00  0.00    +0.253 C 
ENDBRANCH  14  20
BRANCH  15  22
ATOM     22  O   UNL     1       2.625   9.466   1.370  0.00  0.00    -0.468 OA
ATOM     23  C   UNL     1       1.271   9.752   1.035  0.00  0.00    +0.253 C 
ENDBRANCH  15  22
BRANCH  10  24
ATOM     24  C   UNL     1       2.168   5.209  -2.002  0.00  0.00    +0.086 C 
BRANCH  24  25
ATOM     25  C   UNL     1       0.715   5.189  -2.367  0.00  0.00    -0.013 A 
ATOM     26  C   UNL     1       0.393   5.269  -3.702  0.00  0.00    +0.036 A 
ATOM     27  C   UNL     1      -0.835   5.757  -4.093  0.00  0.00    +0.172 A 
ATOM     28  C   UNL     1      -1.851   5.905  -3.166  0.00  0.00    +0.172 A 
ATOM     29  C   UNL     1      -1.562   5.860  -1.812  0.00  0.00    +0.040 A 
ATOM     30  C   UNL     1      -0.286   5.484  -1.477  0.00  0.00    -0.001 A 
BRANCH  28  31
ATOM     31  O   UNL     1      -3.027   6.549  -3.524  0.00  0.00    -0.468 OA
ATOM     32  C   UNL     1      -4.103   6.615  -2.628  0.00  0.00    +0.253 C 
ENDBRANCH  28  31
BRANCH  27  33
ATOM     33  O   UNL     1      -1.096   6.175  -5.386  0.00  0.00    -0.468 OA
ATOM     34  C   UNL     1      -0.998   5.282  -6.462  0.00  0.00    +0.253 C 
ENDBRANCH  27  33
ENDBRANCH  24  25
ENDBRANCH  10  24
ENDBRANCH   8   9
ENDBRANCH   7   8
ENDBRANCH   5   7
ENDBRANCH   4   5
ENDBRANCH   3   4
ENDBRANCH   2   3
ENDBRANCH   1   2
BRANCH   1  35
ATOM     35  C   UNL     1       4.375   5.563 -12.873  0.00  0.00    +0.048 C 
BRANCH  35  36
ATOM     36  C   UNL     1       5.220   6.120 -13.998  0.00  0.00    +0.208 C 
BRANCH  36  37
ATOM     37  O   UNL     1       4.420   6.526 -15.081  0.00  0.00    -0.448 OA
BRANCH  37  38
ATOM     38  C   UNL     1       4.910   7.281 -16.151  0.00  0.00    +0.323 C 
ATOM     39  O   UNL     1       5.918   6.842 -16.743  0.00  0.00    -0.250 OA
BRANCH  38  40
ATOM     40  C   UNL     1       4.145   8.464 -16.647  0.00  0.00    +0.170 C 
BRANCH  40  41
ATOM     41  C   UNL     1       2.841   8.084 -17.290  0.00  0.00    +0.121 C 
BRANCH  41  43
ATOM     42  C   UNL     1       1.614   9.383 -15.776  0.00  0.00    +0.086 C 
ATOM     43  N   UNL     1       2.011   9.290 -17.328  0.00  0.00    +0.301 N 
ATOM     44  C   UNL     1       2.844  10.388 -17.604  0.00  0.00    +0.171 C 
ATOM     45  C   UNL     1       0.872   9.028 -18.067  0.00  0.00    +0.114 C 
ATOM     46  C   UNL     1       0.242  10.346 -18.475  0.00  0.00    +0.087 C 
ATOM     47  C   UNL     1       0.321  11.109 -17.186  0.00  0.00    -0.012 A 
ATOM     48  C   UNL     1      -0.495  12.239 -17.216  0.00  0.00    +0.036 A 
ATOM     49  C   UNL     1      -0.706  12.970 -16.057  0.00  0.00    +0.172 A 
ATOM     50  C   UNL     1       0.163  12.692 -15.013  0.00  0.00    +0.172 A 
ATOM     51  C   UNL     1       0.613  11.398 -14.930  0.00  0.00    +0.041 A 
ATOM     52  C   UNL     1       0.423  10.496 -15.986  0.00  0.00    +0.027 A 
BRANCH  50  53
ATOM     53  O   UNL     1       0.411  13.672 -14.067  0.00  0.00    -0.468 OA
ATOM     54  C   UNL     1      -0.593  14.115 -13.182  0.00  0.00    +0.253 C 
ENDBRANCH  50  53
BRANCH  49  55
ATOM     55  O   UNL     1      -1.730  13.901 -15.914  0.00  0.00    -0.468 OA
ATOM     56  C   UNL     1      -1.727  14.967 -16.862  0.00  0.00    +0.253 C 
ENDBRANCH  49  55
BRANCH  42  57
ATOM     57  C   UNL     1       0.590   8.064 -15.914  0.00  0.00    +0.086 C 
BRANCH  57  61
ATOM     58  C   UNL     1       0.352   5.753 -12.465  0.00  0.00    +0.172 A 
ATOM     59  C   UNL     1       0.880   5.188 -13.618  0.00  0.00    +0.172 A 
ATOM     60  C   UNL     1       1.101   6.059 -14.679  0.00  0.00    +0.036 A 
ATOM     61  C   UNL     1       0.598   7.360 -14.650  0.00  0.00    -0.013 A 
ATOM     62  C   UNL     1       0.685   7.937 -13.388  0.00  0.00    -0.001 A 
ATOM     63  C   UNL     1       0.585   7.110 -12.274  0.00  0.00    +0.040 A 
BRANCH  58  65
ATOM     64  C   UNL     1       0.391   4.263 -10.510  0.00  0.00    +0.253 C 
ATOM     65  O   UNL     1      -0.261   4.941 -11.540  0.00  0.00    -0.468 OA
ENDBRANCH  58  65
BRANCH  59  66
ATOM     66  O   UNL     1       0.782   3.807 -13.818  0.00  0.00    -0.468 OA
ATOM     67  C   UNL     1      -0.257   3.377 -14.696  0.00  0.00    +0.253 C 
ENDBRANCH  59  66
ENDBRANCH  57  61
ENDBRANCH  42  57
ENDBRANCH  41  43
ENDBRANCH  40  41
ENDBRANCH  38  40
ENDBRANCH  37  38
ENDBRANCH  36  37
ENDBRANCH  35  36
ENDBRANCH   1  35
TORSDOF 26
ENDMDL
MODEL 5
REMARK VINA RESULT:      -7.7      3.537      8.880
REMARK  Name = 
REMARK  26 active torsions:
REMARK  status: ('A' for Active; 'I' for Inactive)
REMARK    1  A    between atoms: O_2  and  C_3
REMARK    2  A    between atoms: C_6  and  C_7
REMARK    3  A    between atoms: C_7  and  C_8
REMARK    4  A    between atoms: C_11  and  O_12
REMARK    5  A    between atoms: C_14  and  O_15
REMARK    6  A    between atoms: N_21  and  C_23
REMARK    7  A    between atoms: C_23  and  C_24
REMARK    8  A    between atoms: C_24  and  C_25
REMARK    9  A    between atoms: C_25  and  O_27
REMARK   10  A    between atoms: O_27  and  C_28
REMARK   11  A    between atoms: C_28  and  C_29
REMARK   12  A    between atoms: C_29  and  C_30
REMARK   13  A    between atoms: C_30  and  C_31
REMARK   14  A    between atoms: C_31  and  C_32
REMARK   15  A    between atoms: C_32  and  O_33
REMARK   16  A    between atoms: O_33  and  C_34
REMARK   17  A    between atoms: C_34  and  C_36
REMARK   18  A    between atoms: C_36  and  C_37
REMARK   19  A    between atoms: C_37  and  N_38
REMARK   20  A    between atoms: C_44  and  O_45
REMARK   21  A    between atoms: C_47  and  O_48
REMARK   22  A    between atoms: C_52  and  C_53
REMARK   23  A    between atoms: C_53  and  C_54
REMARK   24  A    between atoms: C_57  and  O_58
REMARK   25  A    between atoms: C_60  and  O_61
REMARK   26  A    between atoms: C_65  and  O_66
REMARK                            x       y       z     vdW  Elec       q    Type
REMARK                         _______ _______ _______ _____ _____    ______ ____
ROOT
ATOM      1  C   UNL     1       5.456   7.034  -3.892  0.00  0.00    +0.008 C 
ENDROOT
BRANCH   1   2
ATOM      2  C   UNL     1       4.447   8.033  -3.383  0.00  0.00    +0.048 C 
BRANCH   2   3
ATOM      3  C   UNL     1       3.760   7.397  -2.179  0.00  0.00    +0.208 C 
BRANCH   3   4
ATOM      4  O   UNL     1       4.692   7.485  -1.103  0.00  0.00    -0.448 OA
BRANCH   4   5
ATOM      5  C   UNL     1       4.518   6.786   0.093  0.00  0.00    +0.323 C 
ATOM      6  O   UNL     1       4.077   5.610  -0.047  0.00  0.00    -0.250 OA
BRANCH   5   7
ATOM      7  C   UNL     1       5.213   7.258   1.331  0.00  0.00    +0.170 C 
BRANCH   7   8
ATOM      8  C   UNL     1       4.286   7.962   2.249  0.00  0.00    +0.121 C 
BRANCH   8   9
ATOM      9  N   UNL     1       4.513   9.375   2.418  0.00  0.00    +0.301 N 
ATOM     10  C   UNL     1       3.655   9.912   1.172  0.00  0.00    +0.086 C 
ATOM     11  C   UNL     1       4.288  11.419   1.293  0.00  0.00    +0.027 A 
ATOM     12  C   UNL     1       4.318  11.977   2.510  0.00  0.00    -0.012 A 
ATOM     13  C   UNL     1       4.811  13.277   2.569  0.00  0.00    +0.036 A 
ATOM     14  C   UNL     1       5.027  13.999   1.404  0.00  0.00    +0.172 A 
ATOM     15  C   UNL     1       4.767  13.422   0.166  0.00  0.00    +0.172 A 
ATOM     16  C   UNL     1       3.711  11.334   3.689  0.00  0.00    +0.087 C 
ATOM     17  C   UNL     1       4.303  12.113   0.107  0.00  0.00    +0.041 A 
ATOM     18  C   UNL     1       3.999   9.874   3.601  0.00  0.00    +0.114 C 
ATOM     19  C   UNL     1       5.867   9.756   2.112  0.00  0.00    +0.171 C 
BRANCH  14  20
ATOM     20  O   UNL     1       5.853  15.127   1.421  0.00  0.00    -0.468 OA
ATOM     21  C   UNL     1       5.603  16.184   2.314  0.00  0.00    +0.253 C 
ENDBRANCH  14  20
BRANCH  15  22
ATOM     22  O   UNL     1       4.535  14.260  -0.919  0.00  0.00    -0.468 OA
ATOM     23  C   UNL     1       5.016  13.851  -2.194  0.00  0.00    +0.253 C 
ENDBRANCH  15  22
BRANCH  10  24
ATOM     24  C   UNL     1       2.302  10.302   2.088  0.00  0.00    +0.086 C 
BRANCH  24  25
ATOM     25  C   UNL     1       1.262   9.614   1.257  0.00  0.00    -0.013 A 
ATOM     26  C   UNL     1      -0.056   9.928   1.499  0.00  0.00    +0.036 A 
ATOM     27  C   UNL     1      -1.053   9.032   1.182  0.00  0.00    +0.172 A 
ATOM     28  C   UNL     1      -0.779   7.944   0.373  0.00  0.00    +0.172 A 
ATOM     29  C   UNL     1       0.535   7.578   0.131  0.00  0.00    +0.040 A 
ATOM     30  C   UNL     1       1.497   8.448   0.574  0.00  0.00    -0.001 A 
BRANCH  28  31
ATOM     31  O   UNL     1      -1.738   6.956   0.192  0.00  0.00    -0.468 OA
ATOM     32  C   UNL     1      -1.615   6.030  -0.853  0.00  0.00    +0.253 C 
ENDBRANCH  28  31
BRANCH  27  33
ATOM     33  O   UNL     1      -2.337   9.130   1.692  0.00  0.00    -0.468 OA
ATOM     34  C   UNL     1      -2.586   8.908   3.053  0.00  0.00    +0.253 C 
ENDBRANCH  27  33
ENDBRANCH  24  25
ENDBRANCH  10  24
ENDBRANCH   8   9
ENDBRANCH   7   8
ENDBRANCH   5   7
ENDBRANCH   4   5
ENDBRANCH   3   4
ENDBRANCH   2   3
ENDBRANCH   1   2
BRANCH   1  35
ATOM     35  C   UNL     1       4.777   6.206  -4.953  0.00  0.00    +0.048 C 
BRANCH  35  36
ATOM     36  C   UNL     1       4.613   4.759  -4.543  0.00  0.00    +0.208 C 
BRANCH  36  37
ATOM     37  O   UNL     1       3.254   4.416  -4.420  0.00  0.00    -0.448 OA
BRANCH  37  38
ATOM     38  C   UNL     1       2.278   4.828  -5.333  0.00  0.00    +0.323 C 
ATOM     39  O   UNL     1       1.616   5.844  -5.038  0.00  0.00    -0.250 OA
BRANCH  38  40
ATOM     40  C   UNL     1       2.168   4.162  -6.665  0.00  0.00    +0.170 C 
BRANCH  40  41
ATOM     41  C   UNL     1       3.058   4.788  -7.702  0.00  0.00    +0.121 C 
BRANCH  41  43
ATOM     42  C   UNL     1       3.202   5.222  -9.999  0.00  0.00    +0.086 C 
ATOM     43  N   UNL     1       2.187   5.306  -8.760  0.00  0.00    +0.301 N 
ATOM     44  C   UNL     1       1.173   4.363  -8.996  0.00  0.00    +0.171 C 
ATOM     45  C   UNL     1       1.908   6.636  -8.499  0.00  0.00    +0.114 C 
ATOM     46  C   UNL     1       0.695   7.046  -9.311  0.00  0.00    +0.087 C 
ATOM     47  C   UNL     1       1.027   6.443 -10.643  0.00  0.00    -0.012 A 
ATOM     48  C   UNL     1       0.216   6.963 -11.650  0.00  0.00    +0.036 A 
ATOM     49  C   UNL     1       0.492   6.674 -12.978  0.00  0.00    +0.172 A 
ATOM     50  C   UNL     1       1.382   5.631 -13.186  0.00  0.00    +0.172 A 
ATOM     51  C   UNL     1       2.360   5.474 -12.236  0.00  0.00    +0.041 A 
ATOM     52  C   UNL     1       2.293   6.147 -11.009  0.00  0.00    +0.027 A 
BRANCH  50  53
ATOM     53  O   UNL     1       1.315   4.917 -14.371  0.00  0.00    -0.468 OA
ATOM     54  C   UNL     1       0.640   3.683 -14.451  0.00  0.00    +0.253 C 
ENDBRANCH  50  53
BRANCH  49  55
ATOM     55  O   UNL     1      -0.049   7.384 -14.046  0.00  0.00    -0.468 OA
ATOM     56  C   UNL     1       0.793   8.391 -14.602  0.00  0.00    +0.253 C 
ENDBRANCH  49  55
BRANCH  42  57
ATOM     57  C   UNL     1       4.098   6.509  -9.410  0.00  0.00    +0.086 C 
BRANCH  57  61
ATOM     58  C   UNL     1       7.719   6.196 -11.431  0.00  0.00    +0.172 A 
ATOM     59  C   UNL     1       6.820   7.185 -11.810  0.00  0.00    +0.172 A 
ATOM     60  C   UNL     1       5.715   7.355 -10.984  0.00  0.00    +0.036 A 
ATOM     61  C   UNL     1       5.425   6.428  -9.982  0.00  0.00    -0.013 A 
ATOM     62  C   UNL     1       6.567   5.954  -9.347  0.00  0.00    -0.001 A 
ATOM     63  C   UNL     1       7.744   5.861 -10.083  0.00  0.00    +0.040 A 
BRANCH  58  65
ATOM     64  C   UNL     1       9.977   5.869 -12.345  0.00  0.00    +0.253 C 
ATOM     65  O   UNL     1       8.594   5.692 -12.364  0.00  0.00    -0.468 OA
ENDBRANCH  58  65
BRANCH  59  66
ATOM     66  O   UNL     1       6.821   7.651 -13.129  0.00  0.00    -0.468 OA
ATOM     67  C   UNL     1       6.070   6.878 -14.063  0.00  0.00    +0.253 C 
ENDBRANCH  59  66
ENDBRANCH  57  61
ENDBRANCH  42  57
ENDBRANCH  41  43
ENDBRANCH  40  41
ENDBRANCH  38  40
ENDBRANCH  37  38
ENDBRANCH  36  37
ENDBRANCH  35  36
ENDBRANCH   1  35
TORSDOF 26
ENDMDL
MODEL 6
REMARK VINA RESULT:      -6.8      5.343     10.699
REMARK  Name = 
REMARK  26 active torsions:
REMARK  status: ('A' for Active; 'I' for Inactive)
REMARK    1  A    between atoms: O_2  and  C_3
REMARK    2  A    between atoms: C_6  and  C_7
REMARK    3  A    between atoms: C_7  and  C_8
REMARK    4  A    between atoms: C_11  and  O_12
REMARK    5  A    between atoms: C_14  and  O_15
REMARK    6  A    between atoms: N_21  and  C_23
REMARK    7  A    between atoms: C_23  and  C_24
REMARK    8  A    between atoms: C_24  and  C_25
REMARK    9  A    between atoms: C_25  and  O_27
REMARK   10  A    between atoms: O_27  and  C_28
REMARK   11  A    between atoms: C_28  and  C_29
REMARK   12  A    between atoms: C_29  and  C_30
REMARK   13  A    between atoms: C_30  and  C_31
REMARK   14  A    between atoms: C_31  and  C_32
REMARK   15  A    between atoms: C_32  and  O_33
REMARK   16  A    between atoms: O_33  and  C_34
REMARK   17  A    between atoms: C_34  and  C_36
REMARK   18  A    between atoms: C_36  and  C_37
REMARK   19  A    between atoms: C_37  and  N_38
REMARK   20  A    between atoms: C_44  and  O_45
REMARK   21  A    between atoms: C_47  and  O_48
REMARK   22  A    between atoms: C_52  and  C_53
REMARK   23  A    between atoms: C_53  and  C_54
REMARK   24  A    between atoms: C_57  and  O_58
REMARK   25  A    between atoms: C_60  and  O_61
REMARK   26  A    between atoms: C_65  and  O_66
REMARK                            x       y       z     vdW  Elec       q    Type
REMARK                         _______ _______ _______ _____ _____    ______ ____
ROOT
ATOM      1  C   UNL     1       4.340   7.172  -1.471  0.00  0.00    +0.008 C 
ENDROOT
BRANCH   1   2
ATOM      2  C   UNL     1       4.370   6.794  -0.012  0.00  0.00    +0.048 C 
BRANCH   2   3
ATOM      3  C   UNL     1       4.411   8.094   0.785  0.00  0.00    +0.208 C 
BRANCH   3   4
ATOM      4  O   UNL     1       3.059   8.539   0.880  0.00  0.00    -0.448 OA
BRANCH   4   5
ATOM      5  C   UNL     1       2.682   9.849   0.577  0.00  0.00    +0.323 C 
ATOM      6  O   UNL     1       1.457  10.097   0.761  0.00  0.00    -0.250 OA
BRANCH   5   7
ATOM      7  C   UNL     1       3.728  10.913   0.482  0.00  0.00    +0.170 C 
BRANCH   7   8
ATOM      8  C   UNL     1       3.728  11.794   1.675  0.00  0.00    +0.121 C 
BRANCH   8   9
ATOM      9  N   UNL     1       5.022  12.195   2.166  0.00  0.00    +0.301 N 
ATOM     10  C   UNL     1       5.514  13.046   0.896  0.00  0.00    +0.086 C 
ATOM     11  C   UNL     1       7.056  13.114   1.448  0.00  0.00    +0.027 A 
ATOM     12  C   UNL     1       7.236  13.462   2.729  0.00  0.00    -0.012 A 
ATOM     13  C   UNL     1       8.558  13.563   3.150  0.00  0.00    +0.036 A 
ATOM     14  C   UNL     1       9.592  13.531   2.226  0.00  0.00    +0.172 A 
ATOM     15  C   UNL     1       9.316  13.380   0.872  0.00  0.00    +0.172 A 
ATOM     16  C   UNL     1       6.121  13.881   3.597  0.00  0.00    +0.087 C 
ATOM     17  C   UNL     1       7.997  13.248   0.455  0.00  0.00    +0.041 A 
ATOM     18  C   UNL     1       4.956  13.006   3.285  0.00  0.00    +0.114 C 
ATOM     19  C   UNL     1       5.948  11.096   2.242  0.00  0.00    +0.171 C 
BRANCH  14  20
ATOM     20  O   UNL     1      10.898  13.255   2.645  0.00  0.00    -0.468 OA
ATOM     21  C   UNL     1      11.690  14.260   3.230  0.00  0.00    +0.253 C 
ENDBRANCH  14  20
BRANCH  15  22
ATOM     22  O   UNL     1      10.265  13.809  -0.049  0.00  0.00    -0.468 OA
ATOM     23  C   UNL     1       9.803  14.337  -1.287  0.00  0.00    +0.253 C 
ENDBRANCH  15  22
BRANCH  10  24
ATOM     24  C   UNL     1       5.109  14.536   1.557  0.00  0.00    +0.086 C 
BRANCH  24  25
ATOM     25  C   UNL     1       5.017  15.328   0.288  0.00  0.00    -0.013 A 
ATOM     26  C   UNL     1       4.909  14.629  -0.892  0.00  0.00    +0.036 A 
ATOM     27  C   UNL     1       5.321  15.197  -2.077  0.00  0.00    +0.172 A 
ATOM     28  C   UNL     1       5.580  16.554  -2.144  0.00  0.00    +0.172 A 
ATOM     29  C   UNL     1       5.726  17.286  -0.977  0.00  0.00    +0.040 A 
ATOM     30  C   UNL     1       5.418  16.636   0.189  0.00  0.00    -0.001 A 
BRANCH  28  31
ATOM     31  O   UNL     1       6.152  17.094  -3.287  0.00  0.00    -0.468 OA
ATOM     32  C   UNL     1       7.525  17.376  -3.330  0.00  0.00    +0.253 C 
ENDBRANCH  28  31
BRANCH  27  33
ATOM     33  O   UNL     1       5.553  14.454  -3.222  0.00  0.00    -0.468 OA
ATOM     34  C   UNL     1       6.727  13.701  -3.361  0.00  0.00    +0.253 C 
ENDBRANCH  27  33
ENDBRANCH  24  25
ENDBRANCH  10  24
ENDBRANCH   8   9
ENDBRANCH   7   8
ENDBRANCH   5   7
ENDBRANCH   4   5
ENDBRANCH   3   4
ENDBRANCH   2   3
ENDBRANCH   1   2
BRANCH   1  35
ATOM     35  C   UNL     1       2.954   6.875  -1.987  0.00  0.00    +0.048 C 
BRANCH  35  36
ATOM     36  C   UNL     1       2.971   6.201  -3.341  0.00  0.00    +0.208 C 
BRANCH  36  37
ATOM     37  O   UNL     1       1.936   5.255  -3.450  0.00  0.00    -0.448 OA
BRANCH  37  38
ATOM     38  C   UNL     1       0.841   5.417  -4.305  0.00  0.00    +0.323 C 
ATOM     39  O   UNL     1      -0.124   6.082  -3.873  0.00  0.00    -0.250 OA
BRANCH  38  40
ATOM     40  C   UNL     1       0.918   4.949  -5.721  0.00  0.00    +0.170 C 
BRANCH  40  41
ATOM     41  C   UNL     1       1.081   6.080  -6.698  0.00  0.00    +0.121 C 
BRANCH  41  43
ATOM     42  C   UNL     1       1.997   6.841  -8.715  0.00  0.00    +0.086 C 
ATOM     43  N   UNL     1       2.206   5.737  -7.570  0.00  0.00    +0.301 N 
ATOM     44  C   UNL     1       3.397   6.063  -6.900  0.00  0.00    +0.171 C 
ATOM     45  C   UNL     1       1.987   4.483  -8.112  0.00  0.00    +0.114 C 
ATOM     46  C   UNL     1       3.302   3.946  -8.643  0.00  0.00    +0.087 C 
ATOM     47  C   UNL     1       3.833   5.153  -9.358  0.00  0.00    -0.012 A 
ATOM     48  C   UNL     1       4.883   4.815 -10.210  0.00  0.00    +0.036 A 
ATOM     49  C   UNL     1       5.383   5.755 -11.098  0.00  0.00    +0.172 A 
ATOM     50  C   UNL     1       4.997   7.065 -10.855  0.00  0.00    +0.172 A 
ATOM     51  C   UNL     1       3.748   7.236 -10.312  0.00  0.00    +0.041 A 
ATOM     52  C   UNL     1       3.032   6.151  -9.789  0.00  0.00    +0.027 A 
BRANCH  50  53
ATOM     53  O   UNL     1       5.814   8.097 -11.286  0.00  0.00    -0.468 OA
ATOM     54  C   UNL     1       7.152   8.206 -10.858  0.00  0.00    +0.253 C 
ENDBRANCH  50  53
BRANCH  49  55
ATOM     55  O   UNL     1       6.191   5.431 -12.183  0.00  0.00    -0.468 OA
ATOM     56  C   UNL     1       7.524   5.042 -11.860  0.00  0.00    +0.253 C 
ENDBRANCH  49  55
BRANCH  42  57
ATOM     57  C   UNL     1       0.645   6.042  -9.299  0.00  0.00    +0.086 C 
BRANCH  57  61
ATOM     58  C   UNL     1       0.658   6.786 -13.391  0.00  0.00    +0.172 A 
ATOM     59  C   UNL     1       0.761   5.475 -12.945  0.00  0.00    +0.172 A 
ATOM     60  C   UNL     1       0.568   5.276 -11.583  0.00  0.00    +0.036 A 
ATOM     61  C   UNL     1       0.513   6.359 -10.705  0.00  0.00    -0.013 A 
ATOM     62  C   UNL     1      -0.166   7.447 -11.242  0.00  0.00    -0.001 A 
ATOM     63  C   UNL     1      -0.112   7.648 -12.618  0.00  0.00    +0.040 A 
BRANCH  58  65
ATOM     64  C   UNL     1       0.501   7.339 -15.781  0.00  0.00    +0.253 C 
ATOM     65  O   UNL     1       1.214   7.129 -14.600  0.00  0.00    -0.468 OA
ENDBRANCH  58  65
BRANCH  59  66
ATOM     66  O   UNL     1       1.424   4.528 -13.732  0.00  0.00    -0.468 OA
ATOM     67  C   UNL     1       0.612   3.486 -14.269  0.00  0.00    +0.253 C 
ENDBRANCH  59  66
ENDBRANCH  57  61
ENDBRANCH  42  57
ENDBRANCH  41  43
ENDBRANCH  40  41
ENDBRANCH  38  40
ENDBRANCH  37  38
ENDBRANCH  36  37
ENDBRANCH  35  36
ENDBRANCH   1  35
TORSDOF 26
ENDMDL
MODEL 7
REMARK VINA RESULT:      -6.7      3.302     13.744
REMARK  Name = 
REMARK  26 active torsions:
REMARK  status: ('A' for Active; 'I' for Inactive)
REMARK    1  A    between atoms: O_2  and  C_3
REMARK    2  A    between atoms: C_6  and  C_7
REMARK    3  A    between atoms: C_7  and  C_8
REMARK    4  A    between atoms: C_11  and  O_12
REMARK    5  A    between atoms: C_14  and  O_15
REMARK    6  A    between atoms: N_21  and  C_23
REMARK    7  A    between atoms: C_23  and  C_24
REMARK    8  A    between atoms: C_24  and  C_25
REMARK    9  A    between atoms: C_25  and  O_27
REMARK   10  A    between atoms: O_27  and  C_28
REMARK   11  A    between atoms: C_28  and  C_29
REMARK   12  A    between atoms: C_29  and  C_30
REMARK   13  A    between atoms: C_30  and  C_31
REMARK   14  A    between atoms: C_31  and  C_32
REMARK   15  A    between atoms: C_32  and  O_33
REMARK   16  A    between atoms: O_33  and  C_34
REMARK   17  A    between atoms: C_34  and  C_36
REMARK   18  A    between atoms: C_36  and  C_37
REMARK   19  A    between atoms: C_37  and  N_38
REMARK   20  A    between atoms: C_44  and  O_45
REMARK   21  A    between atoms: C_47  and  O_48
REMARK   22  A    between atoms: C_52  and  C_53
REMARK   23  A    between atoms: C_53  and  C_54
REMARK   24  A    between atoms: C_57  and  O_58
REMARK   25  A    between atoms: C_60  and  O_61
REMARK   26  A    between atoms: C_65  and  O_66
REMARK                            x       y       z     vdW  Elec       q    Type
REMARK                         _______ _______ _______ _____ _____    ______ ____
ROOT
ATOM      1  C   UNL     1       1.569   6.870  -5.200  0.00  0.00    +0.008 C 
ENDROOT
BRANCH   1   2
ATOM      2  C   UNL     1       0.141   6.646  -4.769  0.00  0.00    +0.048 C 
BRANCH   2   3
ATOM      3  C   UNL     1      -0.347   5.387  -5.479  0.00  0.00    +0.208 C 
BRANCH   3   4
ATOM      4  O   UNL     1      -0.798   5.811  -6.764  0.00  0.00    -0.448 OA
BRANCH   4   5
ATOM      5  C   UNL     1      -0.219   5.348  -7.948  0.00  0.00    +0.323 C 
ATOM      6  O   UNL     1      -0.688   5.870  -8.998  0.00  0.00    -0.250 OA
BRANCH   5   7
ATOM      7  C   UNL     1       1.104   4.653  -7.898  0.00  0.00    +0.170 C 
BRANCH   7   8
ATOM      8  C   UNL     1       1.642   4.394  -9.255  0.00  0.00    +0.121 C 
BRANCH   8   9
ATOM      9  N   UNL     1       2.835   5.119  -9.613  0.00  0.00    +0.301 N 
ATOM     10  C   UNL     1       2.595   5.219 -11.197  0.00  0.00    +0.086 C 
ATOM     11  C   UNL     1       4.131   5.720 -11.472  0.00  0.00    +0.027 A 
ATOM     12  C   UNL     1       4.604   6.705 -10.696  0.00  0.00    -0.012 A 
ATOM     13  C   UNL     1       5.892   7.143 -10.991  0.00  0.00    +0.036 A 
ATOM     14  C   UNL     1       6.522   6.733 -12.157  0.00  0.00    +0.172 A 
ATOM     15  C   UNL     1       5.878   5.867 -13.033  0.00  0.00    +0.172 A 
ATOM     16  C   UNL     1       3.764   7.404  -9.708  0.00  0.00    +0.087 C 
ATOM     17  C   UNL     1       4.604   5.406 -12.723  0.00  0.00    +0.041 A 
ATOM     18  C   UNL     1       2.892   6.385  -9.059  0.00  0.00    +0.114 C 
ATOM     19  C   UNL     1       4.025   4.322  -9.480  0.00  0.00    +0.171 C 
BRANCH  14  20
ATOM     20  O   UNL     1       7.910   6.850 -12.281  0.00  0.00    -0.468 OA
ATOM     21  C   UNL     1       8.743   5.733 -12.090  0.00  0.00    +0.253 C 
ENDBRANCH  14  20
BRANCH  15  22
ATOM     22  O   UNL     1       6.291   5.840 -14.360  0.00  0.00    -0.468 OA
ATOM     23  C   UNL     1       6.010   6.976 -15.170  0.00  0.00    +0.253 C 
ENDBRANCH  15  22
BRANCH  10  24
ATOM     24  C   UNL     1       1.989   6.786 -11.151  0.00  0.00    +0.086 C 
BRANCH  24  25
ATOM     25  C   UNL     1       1.154   6.741 -12.394  0.00  0.00    -0.013 A 
ATOM     26  C   UNL     1       0.922   5.510 -12.961  0.00  0.00    +0.036 A 
ATOM     27  C   UNL     1       0.631   5.405 -14.303  0.00  0.00    +0.172 A 
ATOM     28  C   UNL     1       0.294   6.533 -15.031  0.00  0.00    +0.172 A 
ATOM     29  C   UNL     1       0.540   7.791 -14.506  0.00  0.00    +0.040 A 
ATOM     30  C   UNL     1       0.945   7.833 -13.197  0.00  0.00    -0.001 A 
BRANCH  28  31
ATOM     31  O   UNL     1       0.165   6.454 -16.411  0.00  0.00    -0.468 OA
ATOM     32  C   UNL     1      -0.855   7.153 -17.070  0.00  0.00    +0.253 C 
ENDBRANCH  28  31
BRANCH  27  33
ATOM     33  O   UNL     1       0.718   4.211 -14.997  0.00  0.00    -0.468 OA
ATOM     34  C   UNL     1       0.693   2.985 -14.319  0.00  0.00    +0.253 C 
ENDBRANCH  27  33
ENDBRANCH  24  25
ENDBRANCH  10  24
ENDBRANCH   8   9
ENDBRANCH   7   8
ENDBRANCH   5   7
ENDBRANCH   4   5
ENDBRANCH   3   4
ENDBRANCH   2   3
ENDBRANCH   1   2
BRANCH   1  35
ATOM     35  C   UNL     1       2.366   5.665  -4.767  0.00  0.00    +0.048 C 
BRANCH  35  36
ATOM     36  C   UNL     1       3.658   5.516  -5.541  0.00  0.00    +0.208 C 
BRANCH  36  37
ATOM     37  O   UNL     1       4.767   5.491  -4.677  0.00  0.00    -0.448 OA
BRANCH  37  38
ATOM     38  C   UNL     1       5.133   6.575  -3.872  0.00  0.00    +0.323 C 
ATOM     39  O   UNL     1       5.224   7.689  -4.426  0.00  0.00    -0.250 OA
BRANCH  38  40
ATOM     40  C   UNL     1       5.239   6.407  -2.392  0.00  0.00    +0.170 C 
BRANCH  40  41
ATOM     41  C   UNL     1       4.750   7.610  -1.635  0.00  0.00    +0.121 C 
BRANCH  41  43
ATOM     42  C   UNL     1       3.237   8.306   0.012  0.00  0.00    +0.086 C 
ATOM     43  N   UNL     1       3.354   7.354  -1.274  0.00  0.00    +0.301 N 
ATOM     44  C   UNL     1       2.533   7.909  -2.270  0.00  0.00    +0.171 C 
ATOM     45  C   UNL     1       3.231   6.037  -0.868  0.00  0.00    +0.114 C 
ATOM     46  C   UNL     1       1.766   5.649  -0.917  0.00  0.00    +0.087 C 
ATOM     47  C   UNL     1       1.133   6.848  -0.276  0.00  0.00    -0.012 A 
ATOM     48  C   UNL     1      -0.186   6.588   0.093  0.00  0.00    +0.036 A 
ATOM     49  C   UNL     1      -0.880   7.504   0.868  0.00  0.00    +0.172 A 
ATOM     50  C   UNL     1      -0.303   8.762   0.961  0.00  0.00    +0.172 A 
ATOM     51  C   UNL     1       1.069   8.800   0.924  0.00  0.00    +0.041 A 
ATOM     52  C   UNL     1       1.815   7.676   0.544  0.00  0.00    +0.027 A 
BRANCH  50  53
ATOM     53  O   UNL     1      -1.113   9.856   1.213  0.00  0.00    -0.468 OA
ATOM     54  C   UNL     1      -1.252  10.388   2.510  0.00  0.00    +0.253 C 
ENDBRANCH  50  53
BRANCH  49  55
ATOM     55  O   UNL     1      -2.060   7.201   1.540  0.00  0.00    -0.468 OA
ATOM     56  C   UNL     1      -1.899   6.668   2.853  0.00  0.00    +0.253 C 
ENDBRANCH  49  55
BRANCH  42  57
ATOM     57  C   UNL     1       4.190   7.270   0.921  0.00  0.00    +0.086 C 
BRANCH  57  61
ATOM     58  C   UNL     1       6.580   9.897   3.085  0.00  0.00    +0.172 A 
ATOM     59  C   UNL     1       5.266  10.252   2.813  0.00  0.00    +0.172 A 
ATOM     60  C   UNL     1       4.470   9.261   2.249  0.00  0.00    +0.036 A 
ATOM     61  C   UNL     1       5.034   8.076   1.776  0.00  0.00    -0.013 A 
ATOM     62  C   UNL     1       6.061   7.613   2.591  0.00  0.00    -0.001 A 
ATOM     63  C   UNL     1       6.832   8.544   3.279  0.00  0.00    +0.040 A 
BRANCH  58  65
ATOM     64  C   UNL     1       8.333  11.403   2.246  0.00  0.00    +0.253 C 
ATOM     65  O   UNL     1       7.520  10.885   3.255  0.00  0.00    -0.468 OA
ENDBRANCH  58  65
BRANCH  59  66
ATOM     66  O   UNL     1       4.920  11.604   2.720  0.00  0.00    -0.468 OA
ATOM     67  C   UNL     1       4.289  12.003   1.505  0.00  0.00    +0.253 C 
ENDBRANCH  59  66
ENDBRANCH  57  61
ENDBRANCH  42  57
ENDBRANCH  41  43
ENDBRANCH  40  41
ENDBRANCH  38  40
ENDBRANCH  37  38
ENDBRANCH  36  37
ENDBRANCH  35  36
ENDBRANCH   1  35
TORSDOF 26
ENDMDL
MODEL 8
REMARK VINA RESULT:      -6.7      3.367      7.996
REMARK  Name = 
REMARK  26 active torsions:
REMARK  status: ('A' for Active; 'I' for Inactive)
REMARK    1  A    between atoms: O_2  and  C_3
REMARK    2  A    between atoms: C_6  and  C_7
REMARK    3  A    between atoms: C_7  and  C_8
REMARK    4  A    between atoms: C_11  and  O_12
REMARK    5  A    between atoms: C_14  and  O_15
REMARK    6  A    between atoms: N_21  and  C_23
REMARK    7  A    between atoms: C_23  and  C_24
REMARK    8  A    between atoms: C_24  and  C_25
REMARK    9  A    between atoms: C_25  and  O_27
REMARK   10  A    between atoms: O_27  and  C_28
REMARK   11  A    between atoms: C_28  and  C_29
REMARK   12  A    between atoms: C_29  and  C_30
REMARK   13  A    between atoms: C_30  and  C_31
REMARK   14  A    between atoms: C_31  and  C_32
REMARK   15  A    between atoms: C_32  and  O_33
REMARK   16  A    between atoms: O_33  and  C_34
REMARK   17  A    between atoms: C_34  and  C_36
REMARK   18  A    between atoms: C_36  and  C_37
REMARK   19  A    between atoms: C_37  and  N_38
REMARK   20  A    between atoms: C_44  and  O_45
REMARK   21  A    between atoms: C_47  and  O_48
REMARK   22  A    between atoms: C_52  and  C_53
REMARK   23  A    between atoms: C_53  and  C_54
REMARK   24  A    between atoms: C_57  and  O_58
REMARK   25  A    between atoms: C_60  and  O_61
REMARK   26  A    between atoms: C_65  and  O_66
REMARK                            x       y       z     vdW  Elec       q    Type
REMARK                         _______ _______ _______ _____ _____    ______ ____
ROOT
ATOM      1  C   UNL     1       4.243   6.527  -4.903  0.00  0.00    +0.008 C 
ENDROOT
BRANCH   1   2
ATOM      2  C   UNL     1       4.434   7.622  -3.883  0.00  0.00    +0.048 C 
BRANCH   2   3
ATOM      3  C   UNL     1       3.686   7.195  -2.625  0.00  0.00    +0.208 C 
BRANCH   3   4
ATOM      4  O   UNL     1       4.685   6.950  -1.638  0.00  0.00    -0.448 OA
BRANCH   4   5
ATOM      5  C   UNL     1       4.376   6.444  -0.373  0.00  0.00    +0.323 C 
ATOM      6  O   UNL     1       3.750   5.348  -0.387  0.00  0.00    -0.250 OA
BRANCH   5   7
ATOM      7  C   UNL     1       5.116   6.950   0.824  0.00  0.00    +0.170 C 
BRANCH   7   8
ATOM      8  C   UNL     1       4.212   7.620   1.789  0.00  0.00    +0.121 C 
BRANCH   8   9
ATOM      9  N   UNL     1       4.418   9.034   1.975  0.00  0.00    +0.301 N 
ATOM     10  C   UNL     1       3.527   9.574   0.754  0.00  0.00    +0.086 C 
ATOM     11  C   UNL     1       4.136  11.090   0.884  0.00  0.00    +0.027 A 
ATOM     12  C   UNL     1       4.181  11.631   2.109  0.00  0.00    -0.012 A 
ATOM     13  C   UNL     1       4.652  12.939   2.178  0.00  0.00    +0.036 A 
ATOM     14  C   UNL     1       4.833  13.680   1.019  0.00  0.00    +0.172 A 
ATOM     15  C   UNL     1       4.559  13.117  -0.222  0.00  0.00    +0.172 A 
ATOM     16  C   UNL     1       3.608  10.961   3.290  0.00  0.00    +0.087 C 
ATOM     17  C   UNL     1       4.117  11.802  -0.292  0.00  0.00    +0.041 A 
ATOM     18  C   UNL     1       3.919   9.508   3.175  0.00  0.00    +0.114 C 
ATOM     19  C   UNL     1       5.759   9.443   1.649  0.00  0.00    +0.171 C 
BRANCH  14  20
ATOM     20  O   UNL     1       5.640  14.823   1.037  0.00  0.00    -0.468 OA
ATOM     21  C   UNL     1       6.992  14.750   0.657  0.00  0.00    +0.253 C 
ENDBRANCH  14  20
BRANCH  15  22
ATOM     22  O   UNL     1       4.291  13.966  -1.289  0.00  0.00    -0.468 OA
ATOM     23  C   UNL     1       5.178  13.940  -2.402  0.00  0.00    +0.253 C 
ENDBRANCH  15  22
BRANCH  10  24
ATOM     24  C   UNL     1       2.185   9.927   1.701  0.00  0.00    +0.086 C 
BRANCH  24  25
ATOM     25  C   UNL     1       1.150   9.189   0.909  0.00  0.00    -0.013 A 
ATOM     26  C   UNL     1      -0.171   9.478   1.162  0.00  0.00    +0.036 A 
ATOM     27  C   UNL     1      -1.151   8.549   0.890  0.00  0.00    +0.172 A 
ATOM     28  C   UNL     1      -0.863   7.443   0.111  0.00  0.00    +0.172 A 
ATOM     29  C   UNL     1       0.455   7.102  -0.141  0.00  0.00    +0.040 A 
ATOM     30  C   UNL     1       1.403   8.008   0.259  0.00  0.00    -0.001 A 
BRANCH  28  31
ATOM     31  O   UNL     1      -1.800   6.427  -0.024  0.00  0.00    -0.468 OA
ATOM     32  C   UNL     1      -1.975   5.781  -1.255  0.00  0.00    +0.253 C 
ENDBRANCH  28  31
BRANCH  27  33
ATOM     33  O   UNL     1      -2.429   8.633   1.417  0.00  0.00    -0.468 OA
ATOM     34  C   UNL     1      -2.699   9.466   2.511  0.00  0.00    +0.253 C 
ENDBRANCH  27  33
ENDBRANCH  24  25
ENDBRANCH  10  24
ENDBRANCH   8   9
ENDBRANCH   7   8
ENDBRANCH   5   7
ENDBRANCH   4   5
ENDBRANCH   3   4
ENDBRANCH   2   3
ENDBRANCH   1   2
BRANCH   1  35
ATOM     35  C   UNL     1       2.989   6.845  -5.678  0.00  0.00    +0.048 C 
BRANCH  35  36
ATOM     36  C   UNL     1       3.192   6.752  -7.174  0.00  0.00    +0.208 C 
BRANCH  36  37
ATOM     37  O   UNL     1       3.183   5.414  -7.606  0.00  0.00    -0.448 OA
BRANCH  37  38
ATOM     38  C   UNL     1       2.015   4.651  -7.705  0.00  0.00    +0.323 C 
ATOM     39  O   UNL     1       1.836   3.770  -6.839  0.00  0.00    -0.250 OA
BRANCH  38  40
ATOM     40  C   UNL     1       0.969   5.007  -8.710  0.00  0.00    +0.170 C 
BRANCH  40  41
ATOM     41  C   UNL     1       1.275   4.472 -10.081  0.00  0.00    +0.121 C 
BRANCH  41  43
ATOM     42  C   UNL     1       2.015   5.463 -12.069  0.00  0.00    +0.086 C 
ATOM     43  N   UNL     1       0.779   5.454 -11.047  0.00  0.00    +0.301 N 
ATOM     44  C   UNL     1      -0.312   4.888 -11.729  0.00  0.00    +0.171 C 
ATOM     45  C   UNL     1       0.699   6.689 -10.430  0.00  0.00    +0.114 C 
ATOM     46  C   UNL     1      -0.201   7.588 -11.256  0.00  0.00    +0.087 C 
ATOM     47  C   UNL     1       0.308   7.306 -12.638  0.00  0.00    -0.012 A 
ATOM     48  C   UNL     1      -0.142   8.262 -13.547  0.00  0.00    +0.036 A 
ATOM     49  C   UNL     1       0.370   8.286 -14.835  0.00  0.00    +0.172 A 
ATOM     50  C   UNL     1       1.076   7.153 -15.215  0.00  0.00    +0.172 A 
ATOM     51  C   UNL     1       1.766   6.510 -14.218  0.00  0.00    +0.041 A 
ATOM     52  C   UNL     1       1.547   6.820 -12.869  0.00  0.00    +0.027 A 
BRANCH  50  53
ATOM     53  O   UNL     1       1.149   6.826 -16.558  0.00  0.00    -0.468 OA
ATOM     54  C   UNL     1       1.909   7.593 -17.464  0.00  0.00    +0.253 C 
ENDBRANCH  50  53
BRANCH  49  55
ATOM     55  O   UNL     1       0.228   9.368 -15.698  0.00  0.00    -0.468 OA
ATOM     56  C   UNL     1       0.961  10.538 -15.341  0.00  0.00    +0.253 C 
ENDBRANCH  49  55
BRANCH  42  57
ATOM     57  C   UNL     1       2.976   6.282 -10.968  0.00  0.00    +0.086 C 
BRANCH  57  61
ATOM     58  C   UNL     1       7.037   6.071 -11.840  0.00  0.00    +0.172 A 
ATOM     59  C   UNL     1       6.629   5.996 -10.514  0.00  0.00    +0.172 A 
ATOM     60  C   UNL     1       5.259   5.888 -10.303  0.00  0.00    +0.036 A 
ATOM     61  C   UNL     1       4.358   6.085 -11.350  0.00  0.00    -0.013 A 
ATOM     62  C   UNL     1       4.811   5.551 -12.550  0.00  0.00    -0.001 A 
ATOM     63  C   UNL     1       6.182   5.522 -12.787  0.00  0.00    +0.040 A 
BRANCH  58  65
ATOM     64  C   UNL     1       9.413   5.802 -12.409  0.00  0.00    +0.253 C 
ATOM     65  O   UNL     1       8.284   6.572 -12.130  0.00  0.00    -0.468 OA
ENDBRANCH  58  65
BRANCH  59  66
ATOM     66  O   UNL     1       7.491   6.426  -9.500  0.00  0.00    -0.468 OA
ATOM     67  C   UNL     1       8.291   5.414  -8.891  0.00  0.00    +0.253 C 
ENDBRANCH  59  66
ENDBRANCH  57  61
ENDBRANCH  42  57
ENDBRANCH  41  43
ENDBRANCH  40  41
ENDBRANCH  38  40
ENDBRANCH  37  38
ENDBRANCH  36  37
ENDBRANCH  35  36
ENDBRANCH   1  35
TORSDOF 26
ENDMDL
MODEL 9
REMARK VINA RESULT:      -6.5      2.201      5.036
REMARK  Name = 
REMARK  26 active torsions:
REMARK  status: ('A' for Active; 'I' for Inactive)
REMARK    1  A    between atoms: O_2  and  C_3
REMARK    2  A    between atoms: C_6  and  C_7
REMARK    3  A    between atoms: C_7  and  C_8
REMARK    4  A    between atoms: C_11  and  O_12
REMARK    5  A    between atoms: C_14  and  O_15
REMARK    6  A    between atoms: N_21  and  C_23
REMARK    7  A    between atoms: C_23  and  C_24
REMARK    8  A    between atoms: C_24  and  C_25
REMARK    9  A    between atoms: C_25  and  O_27
REMARK   10  A    between atoms: O_27  and  C_28
REMARK   11  A    between atoms: C_28  and  C_29
REMARK   12  A    between atoms: C_29  and  C_30
REMARK   13  A    between atoms: C_30  and  C_31
REMARK   14  A    between atoms: C_31  and  C_32
REMARK   15  A    between atoms: C_32  and  O_33
REMARK   16  A    between atoms: O_33  and  C_34
REMARK   17  A    between atoms: C_34  and  C_36
REMARK   18  A    between atoms: C_36  and  C_37
REMARK   19  A    between atoms: C_37  and  N_38
REMARK   20  A    between atoms: C_44  and  O_45
REMARK   21  A    between atoms: C_47  and  O_48
REMARK   22  A    between atoms: C_52  and  C_53
REMARK   23  A    between atoms: C_53  and  C_54
REMARK   24  A    between atoms: C_57  and  O_58
REMARK   25  A    between atoms: C_60  and  O_61
REMARK   26  A    between atoms: C_65  and  O_66
REMARK                            x       y       z     vdW  Elec       q    Type
REMARK                         _______ _______ _______ _____ _____    ______ ____
ROOT
ATOM      1  C   UNL     1       5.784   5.556  -9.807  0.00  0.00    +0.008 C 
ENDROOT
BRANCH   1   2
ATOM      2  C   UNL     1       5.142   5.425  -8.448  0.00  0.00    +0.048 C 
BRANCH   2   3
ATOM      3  C   UNL     1       3.644   5.629  -8.642  0.00  0.00    +0.208 C 
BRANCH   3   4
ATOM      4  O   UNL     1       3.107   5.858  -7.341  0.00  0.00    -0.448 OA
BRANCH   4   5
ATOM      5  C   UNL     1       2.915   4.825  -6.421  0.00  0.00    +0.323 C 
ATOM      6  O   UNL     1       2.489   3.748  -6.925  0.00  0.00    -0.250 OA
BRANCH   5   7
ATOM      7  C   UNL     1       3.580   4.897  -5.083  0.00  0.00    +0.170 C 
BRANCH   7   8
ATOM      8  C   UNL     1       3.579   6.277  -4.539  0.00  0.00    +0.121 C 
BRANCH   8   9
ATOM      9  N   UNL     1       4.018   6.420  -3.175  0.00  0.00    +0.301 N 
ATOM     10  C   UNL     1       2.628   6.881  -2.516  0.00  0.00    +0.086 C 
ATOM     11  C   UNL     1       3.356   7.327  -1.117  0.00  0.00    +0.027 A 
ATOM     12  C   UNL     1       4.222   6.463  -0.572  0.00  0.00    -0.012 A 
ATOM     13  C   UNL     1       4.780   6.848   0.643  0.00  0.00    +0.036 A 
ATOM     14  C   UNL     1       4.277   7.946   1.328  0.00  0.00    +0.172 A 
ATOM     15  C   UNL     1       3.222   8.678   0.798  0.00  0.00    +0.172 A 
ATOM     16  C   UNL     1       4.445   5.114  -1.123  0.00  0.00    +0.087 C 
ATOM     17  C   UNL     1       2.685   8.310  -0.430  0.00  0.00    +0.041 A 
ATOM     18  C   UNL     1       4.443   5.231  -2.609  0.00  0.00    +0.114 C 
ATOM     19  C   UNL     1       4.893   7.548  -2.993  0.00  0.00    +0.171 C 
BRANCH  14  20
ATOM     20  O   UNL     1       5.043   8.560   2.325  0.00  0.00    -0.468 OA
ATOM     21  C   UNL     1       6.279   8.015   2.717  0.00  0.00    +0.253 C 
ENDBRANCH  14  20
BRANCH  15  22
ATOM     22  O   UNL     1       2.445   9.439   1.663  0.00  0.00    -0.468 OA
ATOM     23  C   UNL     1       1.251  10.021   1.152  0.00  0.00    +0.253 C 
ENDBRANCH  15  22
BRANCH  10  24
ATOM     24  C   UNL     1       2.232   5.354  -1.937  0.00  0.00    +0.086 C 
BRANCH  24  25
ATOM     25  C   UNL     1       0.749   5.414  -2.142  0.00  0.00    -0.013 A 
ATOM     26  C   UNL     1       0.280   5.321  -3.431  0.00  0.00    +0.036 A 
ATOM     27  C   UNL     1      -0.944   5.856  -3.766  0.00  0.00    +0.172 A 
ATOM     28  C   UNL     1      -1.831   6.235  -2.775  0.00  0.00    +0.172 A 
ATOM     29  C   UNL     1      -1.390   6.368  -1.469  0.00  0.00    +0.040 A 
ATOM     30  C   UNL     1      -0.117   5.931  -1.212  0.00  0.00    -0.001 A 
BRANCH  28  31
ATOM     31  O   UNL     1      -2.989   6.925  -3.108  0.00  0.00    -0.468 OA
ATOM     32  C   UNL     1      -4.234   6.498  -2.626  0.00  0.00    +0.253 C 
ENDBRANCH  28  31
BRANCH  27  33
ATOM     33  O   UNL     1      -1.323   6.097  -5.076  0.00  0.00    -0.468 OA
ATOM     34  C   UNL     1      -0.717   5.408  -6.135  0.00  0.00    +0.253 C 
ENDBRANCH  27  33
ENDBRANCH  24  25
ENDBRANCH  10  24
ENDBRANCH   8   9
ENDBRANCH   7   8
ENDBRANCH   5   7
ENDBRANCH   4   5
ENDBRANCH   3   4
ENDBRANCH   2   3
ENDBRANCH   1   2
BRANCH   1  35
ATOM     35  C   UNL     1       7.195   6.044  -9.595  0.00  0.00    +0.048 C 
BRANCH  35  36
ATOM     36  C   UNL     1       8.009   6.038 -10.870  0.00  0.00    +0.208 C 
BRANCH  36  37
ATOM     37  O   UNL     1       7.339   6.717 -11.904  0.00  0.00    -0.448 OA
BRANCH  37  38
ATOM     38  C   UNL     1       7.357   6.289 -13.235  0.00  0.00    +0.323 C 
ATOM     39  O   UNL     1       7.714   5.112 -13.450  0.00  0.00    -0.250 OA
BRANCH  38  40
ATOM     40  C   UNL     1       6.810   7.167 -14.312  0.00  0.00    +0.170 C 
BRANCH  40  41
ATOM     41  C   UNL     1       6.901   6.540 -15.675  0.00  0.00    +0.121 C 
BRANCH  41  43
ATOM     42  C   UNL     1       4.830   7.609 -15.443  0.00  0.00    +0.086 C 
ATOM     43  N   UNL     1       5.945   7.239 -16.536  0.00  0.00    +0.301 N 
ATOM     44  C   UNL     1       6.528   8.448 -16.951  0.00  0.00    +0.171 C 
ATOM     45  C   UNL     1       5.407   6.335 -17.435  0.00  0.00    +0.114 C 
ATOM     46  C   UNL     1       4.774   7.104 -18.578  0.00  0.00    +0.087 C 
ATOM     47  C   UNL     1       4.035   8.171 -17.827  0.00  0.00    -0.012 A 
ATOM     48  C   UNL     1       3.104   8.812 -18.644  0.00  0.00    +0.036 A 
ATOM     49  C   UNL     1       2.192   9.696 -18.090  0.00  0.00    +0.172 A 
ATOM     50  C   UNL     1       2.476  10.111 -16.797  0.00  0.00    +0.172 A 
ATOM     51  C   UNL     1       3.112   9.195 -15.996  0.00  0.00    +0.041 A 
ATOM     52  C   UNL     1       3.675   8.030 -16.533  0.00  0.00    +0.027 A 
BRANCH  50  53
ATOM     53  O   UNL     1       1.997  11.336 -16.364  0.00  0.00    -0.468 OA
ATOM     54  C   UNL     1       0.825  11.437 -15.588  0.00  0.00    +0.253 C 
ENDBRANCH  50  53
BRANCH  49  55
ATOM     55  O   UNL     1       1.046  10.131 -18.750  0.00  0.00    -0.468 OA
ATOM     56  C   UNL     1      -0.132   9.368 -18.501  0.00  0.00    +0.253 C 
ENDBRANCH  49  55
BRANCH  42  57
ATOM     57  C   UNL     1       4.339   6.011 -15.338  0.00  0.00    +0.086 C 
BRANCH  57  61
ATOM     58  C   UNL     1       1.573   5.716 -12.247  0.00  0.00    +0.172 A 
ATOM     59  C   UNL     1       1.485   4.832 -13.314  0.00  0.00    +0.172 A 
ATOM     60  C   UNL     1       2.540   4.862 -14.220  0.00  0.00    +0.036 A 
ATOM     61  C   UNL     1       3.492   5.880 -14.172  0.00  0.00    -0.013 A 
ATOM     62  C   UNL     1       3.824   6.239 -12.871  0.00  0.00    -0.001 A 
ATOM     63  C   UNL     1       2.849   6.129 -11.884  0.00  0.00    +0.040 A 
BRANCH  58  65
ATOM     64  C   UNL     1       0.398   6.790 -10.373  0.00  0.00    +0.253 C 
ATOM     65  O   UNL     1       0.434   6.041 -11.550  0.00  0.00    -0.468 OA
ENDBRANCH  58  65
BRANCH  59  66
ATOM     66  O   UNL     1       0.244   4.288 -13.660  0.00  0.00    -0.468 OA
ATOM     67  C   UNL     1       0.273   3.228 -14.614  0.00  0.00    +0.253 C 
ENDBRANCH  59  66
ENDBRANCH  57  61
ENDBRANCH  42  57
ENDBRANCH  41  43
ENDBRANCH  40  41
ENDBRANCH  38  40
ENDBRANCH  37  38
ENDBRANCH  36  37
ENDBRANCH  35  36
ENDBRANCH   1  35
TORSDOF 26
ENDMDL
