MODEL 1
REMARK VINA RESULT:      -8.7      0.000      0.000
REMARK  Name = 
REMARK  6 active torsions:
REMARK  status: ('A' for Active; 'I' for Inactive)
REMARK    1  A    between atoms: C_2  and  C_3
REMARK    2  A    between atoms: C_3  and  O_5
REMARK    3  A    between atoms: O_5  and  C_6
REMARK    4  A    between atoms: C_6  and  C_7
REMARK    5  A    between atoms: C_7  and  S_9
REMARK    6  A    between atoms: S_9  and  C_10
REMARK                            x       y       z     vdW  Elec       q    Type
REMARK                         _______ _______ _______ _____ _____    ______ ____
ROOT
ATOM      1  C   UNL     1       3.225   6.157  -3.813  0.00  0.00    +0.195 C 
ATOM      2  C   UNL     1       2.692   5.992  -5.159  0.00  0.00    +0.044 C 
ATOM      3  C   UNL     1       4.000   6.288  -6.061  0.00  0.00    +0.007 C 
ATOM      4  C   UNL     1       3.313   5.409  -7.334  0.00  0.00    +0.036 C 
ATOM      5  C   UNL     1       2.505   6.666  -7.896  0.00  0.00    +0.168 C 
ATOM      6  C   UNL     1       1.131   6.836  -7.029  0.00  0.00    +0.182 C 
ATOM      7  O   UNL     1       0.908   5.347  -6.845  0.00  0.00    -0.220 OA
ATOM      8  F   UNL     1       3.191   7.783  -7.856  0.00  0.00    -0.237 F 
ATOM      9  C   UNL     1       2.023   6.147  -9.194  0.00  0.00    +0.066 C 
ATOM     10  C   UNL     1       3.174   6.063 -10.152  0.00  0.00    -0.003 C 
ATOM     11  C   UNL     1       2.769   5.778 -11.394  0.00  0.00    +0.036 C 
ATOM     12  C   UNL     1       1.402   6.038 -11.853  0.00  0.00    +0.195 C 
ATOM     13  C   UNL     1       0.339   6.245 -10.855  0.00  0.00    +0.038 C 
ATOM     14  O   UNL     1       1.085   5.986 -13.080  0.00  0.00    -0.287 OA
ATOM     15  C   UNL     1       4.130   4.859  -9.610  0.00  0.00    +0.180 C 
ATOM     16  F   UNL     1       5.310   5.360 -10.403  0.00  0.00    -0.233 F 
ATOM     17  C   UNL     1       1.565   4.688  -9.113  0.00  0.00    +0.011 C 
ATOM     18  C   UNL     1       0.837   6.810  -9.749  0.00  0.00    -0.017 C 
ATOM     19  C   UNL     1       4.584   5.742  -8.289  0.00  0.00    +0.042 C 
ATOM     20  C   UNL     1       4.683   4.992  -5.385  0.00  0.00    +0.004 C 
ATOM     21  C   UNL     1       2.383   4.542  -5.221  0.00  0.00    +0.004 C 
ATOM     22  C   UNL     1       1.856   7.030  -5.573  0.00  0.00    +0.039 C 
ATOM     23  C   UNL     1       4.739   5.567  -3.856  0.00  0.00    +0.045 C 
ATOM     24  C   UNL     1       5.419   6.975  -4.331  0.00  0.00    +0.004 C 
ENDROOT
BRANCH   1  25
ATOM     25  C   UNL     1       2.612   5.327  -2.750  0.00  0.00    +0.237 C 
ATOM     26  O   UNL     1       3.161   4.649  -1.923  0.00  0.00    -0.281 OA
BRANCH  25  27
ATOM     27  S   UNL     1       0.829   5.391  -2.504  0.00  0.00    -0.036 S 
BRANCH  27  28
ATOM     28  C   UNL     1       0.478   5.598  -0.744  0.00  0.00    +0.258 C 
ATOM     29  F   UNL     1      -0.888   5.539  -0.620  0.00  0.00    -0.221 F 
ENDBRANCH  27  28
ENDBRANCH  25  27
ENDBRANCH   1  25
BRANCH   1  30
ATOM     30  O   UNL     1       3.269   7.461  -3.318  0.00  0.00    -0.448 OA
BRANCH  30  31
ATOM     31  C   UNL     1       3.456   7.627  -1.964  0.00  0.00    +0.317 C 
ATOM     32  O   UNL     1       2.583   8.156  -1.230  0.00  0.00    -0.250 OA
BRANCH  31  34
ATOM     33  C   UNL     1       4.769   7.081  -0.043  0.00  0.00    +0.012 C 
ATOM     34  C   UNL     1       4.835   7.591  -1.385  0.00  0.00    +0.110 C 
ENDBRANCH  31  34
ENDBRANCH  30  31
ENDBRANCH   1  30
TORSDOF 6
ENDMDL
MODEL 2
REMARK VINA RESULT:      -8.3      1.365      1.412
REMARK  Name = 
REMARK  6 active torsions:
REMARK  status: ('A' for Active; 'I' for Inactive)
REMARK    1  A    between atoms: C_2  and  C_3
REMARK    2  A    between atoms: C_3  and  O_5
REMARK    3  A    between atoms: O_5  and  C_6
REMARK    4  A    between atoms: C_6  and  C_7
REMARK    5  A    between atoms: C_7  and  S_9
REMARK    6  A    between atoms: S_9  and  C_10
REMARK                            x       y       z     vdW  Elec       q    Type
REMARK                         _______ _______ _______ _____ _____    ______ ____
ROOT
ATOM      1  C   UNL     1       3.112   6.253  -3.858  0.00  0.00    +0.195 C 
ATOM      2  C   UNL     1       2.623   6.010  -5.209  0.00  0.00    +0.044 C 
ATOM      3  C   UNL     1       3.902   6.446  -6.097  0.00  0.00    +0.007 C 
ATOM      4  C   UNL     1       3.341   5.478  -7.367  0.00  0.00    +0.036 C 
ATOM      5  C   UNL     1       2.402   6.625  -7.957  0.00  0.00    +0.168 C 
ATOM      6  C   UNL     1       1.003   6.644  -7.113  0.00  0.00    +0.182 C 
ATOM      7  O   UNL     1       0.953   5.141  -6.911  0.00  0.00    -0.220 OA
ATOM      8  F   UNL     1       2.952   7.815  -7.924  0.00  0.00    -0.237 F 
ATOM      9  C   UNL     1       2.004   6.037  -9.255  0.00  0.00    +0.066 C 
ATOM     10  C   UNL     1       3.171   6.077 -10.195  0.00  0.00    -0.003 C 
ATOM     11  C   UNL     1       2.821   5.731 -11.439  0.00  0.00    +0.036 C 
ATOM     12  C   UNL     1       1.441   5.824 -11.921  0.00  0.00    +0.195 C 
ATOM     13  C   UNL     1       0.345   5.917 -10.941  0.00  0.00    +0.038 C 
ATOM     14  O   UNL     1       1.151   5.720 -13.151  0.00  0.00    -0.287 OA
ATOM     15  C   UNL     1       4.253   4.999  -9.624  0.00  0.00    +0.180 C 
ATOM     16  F   UNL     1       5.379   5.624 -10.407  0.00  0.00    -0.233 F 
ATOM     17  C   UNL     1       1.717   4.535  -9.160  0.00  0.00    +0.011 C 
ATOM     18  C   UNL     1       0.757   6.550  -9.836  0.00  0.00    -0.017 C 
ATOM     19  C   UNL     1       4.580   5.945  -8.309  0.00  0.00    +0.042 C 
ATOM     20  C   UNL     1       4.720   5.247  -5.393  0.00  0.00    +0.004 C 
ATOM     21  C   UNL     1       2.486   4.534  -5.256  0.00  0.00    +0.004 C 
ATOM     22  C   UNL     1       1.679   6.939  -5.649  0.00  0.00    +0.039 C 
ATOM     23  C   UNL     1       4.686   5.843  -3.872  0.00  0.00    +0.045 C 
ATOM     24  C   UNL     1       5.204   7.315  -4.357  0.00  0.00    +0.004 C 
ENDROOT
BRANCH   1  25
ATOM     25  C   UNL     1       2.584   5.370  -2.793  0.00  0.00    +0.237 C 
ATOM     26  O   UNL     1       1.445   5.044  -2.590  0.00  0.00    -0.281 OA
BRANCH  25  27
ATOM     27  S   UNL     1       3.740   4.524  -1.700  0.00  0.00    -0.036 S 
BRANCH  27  28
ATOM     28  C   UNL     1       2.861   3.236  -0.788  0.00  0.00    +0.258 C 
ATOM     29  F   UNL     1       3.804   2.295  -0.457  0.00  0.00    -0.221 F 
ENDBRANCH  27  28
ENDBRANCH  25  27
ENDBRANCH   1  25
BRANCH   1  30
ATOM     30  O   UNL     1       2.996   7.559  -3.381  0.00  0.00    -0.448 OA
BRANCH  30  31
ATOM     31  C   UNL     1       2.997   7.745  -2.017  0.00  0.00    +0.317 C 
ATOM     32  O   UNL     1       1.946   7.657  -1.332  0.00  0.00    -0.250 OA
BRANCH  31  34
ATOM     33  C   UNL     1       3.590   9.445  -0.444  0.00  0.00    +0.012 C 
ATOM     34  C   UNL     1       4.125   8.472  -1.357  0.00  0.00    +0.110 C 
ENDBRANCH  31  34
ENDBRANCH  30  31
ENDBRANCH   1  30
TORSDOF 6
ENDMDL
MODEL 3
REMARK VINA RESULT:      -8.0      2.268      7.890
REMARK  Name = 
REMARK  6 active torsions:
REMARK  status: ('A' for Active; 'I' for Inactive)
REMARK    1  A    between atoms: C_2  and  C_3
REMARK    2  A    between atoms: C_3  and  O_5
REMARK    3  A    between atoms: O_5  and  C_6
REMARK    4  A    between atoms: C_6  and  C_7
REMARK    5  A    between atoms: C_7  and  S_9
REMARK    6  A    between atoms: S_9  and  C_10
REMARK                            x       y       z     vdW  Elec       q    Type
REMARK                         _______ _______ _______ _____ _____    ______ ____
ROOT
ATOM      1  C   UNL     1       2.811   5.431  -7.632  0.00  0.00    +0.195 C 
ATOM      2  C   UNL     1       3.107   5.723  -6.236  0.00  0.00    +0.044 C 
ATOM      3  C   UNL     1       1.636   5.641  -5.572  0.00  0.00    +0.007 C 
ATOM      4  C   UNL     1       2.341   5.334  -4.064  0.00  0.00    +0.036 C 
ATOM      5  C   UNL     1       2.527   6.883  -3.726  0.00  0.00    +0.168 C 
ATOM      6  C   UNL     1       3.886   7.420  -4.457  0.00  0.00    +0.182 C 
ATOM      7  O   UNL     1       4.656   6.126  -4.266  0.00  0.00    -0.220 OA
ATOM      8  F   UNL     1       1.508   7.620  -4.096  0.00  0.00    -0.237 F 
ATOM      9  C   UNL     1       2.911   6.826  -2.299  0.00  0.00    +0.066 C 
ATOM     10  C   UNL     1       1.709   6.471  -1.476  0.00  0.00    -0.003 C 
ATOM     11  C   UNL     1       1.950   6.586  -0.165  0.00  0.00    +0.036 C 
ATOM     12  C   UNL     1       3.023   7.432   0.364  0.00  0.00    +0.195 C 
ATOM     13  C   UNL     1       4.109   7.859  -0.536  0.00  0.00    +0.038 C 
ATOM     14  O   UNL     1       3.103   7.722   1.596  0.00  0.00    -0.287 OA
ATOM     15  C   UNL     1       1.365   4.915  -1.822  0.00  0.00    +0.180 C 
ATOM     16  F   UNL     1      -0.042   5.048  -1.297  0.00  0.00    -0.233 F 
ATOM     17  C   UNL     1       3.867   5.670  -1.990  0.00  0.00    +0.011 C 
ATOM     18  C   UNL     1       3.657   7.983  -1.790  0.00  0.00    -0.017 C 
ATOM     19  C   UNL     1       0.880   5.308  -3.352  0.00  0.00    +0.042 C 
ATOM     20  C   UNL     1       1.599   4.085  -5.997  0.00  0.00    +0.004 C 
ATOM     21  C   UNL     1       3.896   4.542  -5.806  0.00  0.00    +0.004 C 
ATOM     22  C   UNL     1       3.424   7.060  -5.987  0.00  0.00    +0.039 C 
ATOM     23  C   UNL     1       1.628   4.317  -7.615  0.00  0.00    +0.045 C 
ATOM     24  C   UNL     1       0.414   5.410  -7.554  0.00  0.00    +0.004 C 
ENDROOT
BRANCH   1  25
ATOM     25  C   UNL     1       3.866   4.733  -8.402  0.00  0.00    +0.237 C 
ATOM     26  O   UNL     1       3.746   3.818  -9.173  0.00  0.00    -0.281 OA
BRANCH  25  27
ATOM     27  S   UNL     1       5.556   5.356  -8.342  0.00  0.00    -0.036 S 
BRANCH  27  28
ATOM     28  C   UNL     1       6.209   5.466 -10.023  0.00  0.00    +0.258 C 
ATOM     29  F   UNL     1       7.576   5.437  -9.901  0.00  0.00    -0.221 F 
ENDBRANCH  27  28
ENDBRANCH  25  27
ENDBRANCH   1  25
BRANCH   1  30
ATOM     30  O   UNL     1       2.398   6.508  -8.418  0.00  0.00    -0.448 OA
BRANCH  30  31
ATOM     31  C   UNL     1       2.581   6.416  -9.779  0.00  0.00    +0.317 C 
ATOM     32  O   UNL     1       3.469   7.073 -10.379  0.00  0.00    -0.250 OA
BRANCH  31  34
ATOM     33  C   UNL     1       0.462   6.885 -10.782  0.00  0.00    +0.012 C 
ATOM     34  C   UNL     1       1.487   5.885 -10.651  0.00  0.00    +0.110 C 
ENDBRANCH  31  34
ENDBRANCH  30  31
ENDBRANCH   1  30
TORSDOF 6
ENDMDL
MODEL 4
REMARK VINA RESULT:      -7.9      2.258      3.673
REMARK  Name = 
REMARK  6 active torsions:
REMARK  status: ('A' for Active; 'I' for Inactive)
REMARK    1  A    between atoms: C_2  and  C_3
REMARK    2  A    between atoms: C_3  and  O_5
REMARK    3  A    between atoms: O_5  and  C_6
REMARK    4  A    between atoms: C_6  and  C_7
REMARK    5  A    between atoms: C_7  and  S_9
REMARK    6  A    between atoms: S_9  and  C_10
REMARK                            x       y       z     vdW  Elec       q    Type
REMARK                         _______ _______ _______ _____ _____    ______ ____
ROOT
ATOM      1  C   UNL     1       2.907   5.925  -5.329  0.00  0.00    +0.195 C 
ATOM      2  C   UNL     1       3.042   6.035  -6.775  0.00  0.00    +0.044 C 
ATOM      3  C   UNL     1       1.660   5.362  -7.278  0.00  0.00    +0.007 C 
ATOM      4  C   UNL     1       1.789   6.206  -8.740  0.00  0.00    +0.036 C 
ATOM      5  C   UNL     1       2.708   5.090  -9.417  0.00  0.00    +0.168 C 
ATOM      6  C   UNL     1       4.252   5.320  -8.937  0.00  0.00    +0.182 C 
ATOM      7  O   UNL     1       4.156   6.834  -8.911  0.00  0.00    -0.220 OA
ATOM      8  F   UNL     1       2.335   3.866  -9.127  0.00  0.00    -0.237 F 
ATOM      9  C   UNL     1       2.722   5.538 -10.826  0.00  0.00    +0.066 C 
ATOM     10  C   UNL     1       1.386   5.261 -11.447  0.00  0.00    -0.003 C 
ATOM     11  C   UNL     1       1.397   5.473 -12.768  0.00  0.00    +0.036 C 
ATOM     12  C   UNL     1       2.632   5.454 -13.556  0.00  0.00    +0.195 C 
ATOM     13  C   UNL     1       3.924   5.599 -12.865  0.00  0.00    +0.038 C 
ATOM     14  O   UNL     1       2.618   5.424 -14.824  0.00  0.00    -0.287 OA
ATOM     15  C   UNL     1       0.335   6.292 -10.748  0.00  0.00    +0.180 C 
ATOM     16  F   UNL     1      -0.851   5.462 -11.167  0.00  0.00    -0.233 F 
ATOM     17  C   UNL     1       2.830   7.060 -10.960  0.00  0.00    +0.011 C 
ATOM     18  C   UNL     1       3.858   5.079 -11.633  0.00  0.00    -0.017 C 
ATOM     19  C   UNL     1       0.438   5.499  -9.302  0.00  0.00    +0.042 C 
ATOM     20  C   UNL     1       0.878   6.556  -6.527  0.00  0.00    +0.004 C 
ATOM     21  C   UNL     1       2.976   7.499  -7.008  0.00  0.00    +0.004 C 
ATOM     22  C   UNL     1       3.971   5.154  -7.331  0.00  0.00    +0.039 C 
ATOM     23  C   UNL     1       1.333   6.172  -5.006  0.00  0.00    +0.045 C 
ATOM     24  C   UNL     1       0.909   4.605  -5.195  0.00  0.00    +0.004 C 
ENDROOT
BRANCH   1  25
ATOM     25  C   UNL     1       3.548   6.987  -4.520  0.00  0.00    +0.237 C 
ATOM     26  O   UNL     1       4.555   7.600  -4.756  0.00  0.00    -0.281 OA
BRANCH  25  27
ATOM     27  S   UNL     1       2.707   7.598  -3.049  0.00  0.00    -0.036 S 
BRANCH  27  28
ATOM     28  C   UNL     1       3.898   8.457  -1.997  0.00  0.00    +0.258 C 
ATOM     29  F   UNL     1       4.994   7.635  -1.914  0.00  0.00    -0.221 F 
ENDBRANCH  27  28
ENDBRANCH  25  27
ENDBRANCH   1  25
BRANCH   1  30
ATOM     30  O   UNL     1       3.294   4.710  -4.760  0.00  0.00    -0.448 OA
BRANCH  30  31
ATOM     31  C   UNL     1       4.027   4.752  -3.596  0.00  0.00    +0.317 C 
ATOM     32  O   UNL     1       5.283   4.689  -3.596  0.00  0.00    -0.250 OA
BRANCH  31  34
ATOM     33  C   UNL     1       4.325   4.655  -1.226  0.00  0.00    +0.012 C 
ATOM     34  C   UNL     1       3.377   4.441  -2.285  0.00  0.00    +0.110 C 
ENDBRANCH  31  34
ENDBRANCH  30  31
ENDBRANCH   1  30
TORSDOF 6
ENDMDL
MODEL 5
REMARK VINA RESULT:      -7.5      2.519      4.016
REMARK  Name = 
REMARK  6 active torsions:
REMARK  status: ('A' for Active; 'I' for Inactive)
REMARK    1  A    between atoms: C_2  and  C_3
REMARK    2  A    between atoms: C_3  and  O_5
REMARK    3  A    between atoms: O_5  and  C_6
REMARK    4  A    between atoms: C_6  and  C_7
REMARK    5  A    between atoms: C_7  and  S_9
REMARK    6  A    between atoms: S_9  and  C_10
REMARK                            x       y       z     vdW  Elec       q    Type
REMARK                         _______ _______ _______ _____ _____    ______ ____
ROOT
ATOM      1  C   UNL     1       2.618   5.688  -5.615  0.00  0.00    +0.195 C 
ATOM      2  C   UNL     1       3.256   5.909  -6.906  0.00  0.00    +0.044 C 
ATOM      3  C   UNL     1       2.317   5.027  -7.883  0.00  0.00    +0.007 C 
ATOM      4  C   UNL     1       2.816   5.969  -9.199  0.00  0.00    +0.036 C 
ATOM      5  C   UNL     1       4.115   5.082  -9.467  0.00  0.00    +0.168 C 
ATOM      6  C   UNL     1       5.296   5.559  -8.444  0.00  0.00    +0.182 C 
ATOM      7  O   UNL     1       4.909   7.026  -8.475  0.00  0.00    -0.220 OA
ATOM      8  F   UNL     1       3.904   3.795  -9.324  0.00  0.00    -0.237 F 
ATOM      9  C   UNL     1       4.566   5.610 -10.772  0.00  0.00    +0.066 C 
ATOM     10  C   UNL     1       3.637   5.133 -11.848  0.00  0.00    -0.003 C 
ATOM     11  C   UNL     1       4.096   5.424 -13.070  0.00  0.00    +0.036 C 
ATOM     12  C   UNL     1       5.515   5.678 -13.335  0.00  0.00    +0.195 C 
ATOM     13  C   UNL     1       6.404   6.013 -12.210  0.00  0.00    +0.038 C 
ATOM     14  O   UNL     1       5.979   5.723 -14.514  0.00  0.00    -0.287 OA
ATOM     15  C   UNL     1       2.224   5.910 -11.608  0.00  0.00    +0.180 C 
ATOM     16  F   UNL     1       1.462   4.905 -12.432  0.00  0.00    -0.233 F 
ATOM     17  C   UNL     1       4.422   7.132 -10.875  0.00  0.00    +0.011 C 
ATOM     18  C   UNL     1       5.986   5.416 -11.087  0.00  0.00    -0.017 C 
ATOM     19  C   UNL     1       1.933   5.063 -10.219  0.00  0.00    +0.042 C 
ATOM     20  C   UNL     1       1.099   6.011  -7.497  0.00  0.00    +0.004 C 
ATOM     21  C   UNL     1       3.002   7.347  -7.164  0.00  0.00    +0.004 C 
ATOM     22  C   UNL     1       4.476   5.247  -7.060  0.00  0.00    +0.039 C 
ATOM     23  C   UNL     1       1.021   5.624  -5.911  0.00  0.00    +0.045 C 
ATOM     24  C   UNL     1       1.006   4.020  -6.227  0.00  0.00    +0.004 C 
ENDROOT
BRANCH   1  25
ATOM     25  C   UNL     1       2.695   6.798  -4.638  0.00  0.00    +0.237 C 
ATOM     26  O   UNL     1       1.834   7.211  -3.908  0.00  0.00    -0.281 OA
BRANCH  25  27
ATOM     27  S   UNL     1       4.282   7.597  -4.340  0.00  0.00    -0.036 S 
BRANCH  27  28
ATOM     28  C   UNL     1       4.352   8.163  -2.626  0.00  0.00    +0.258 C 
ATOM     29  F   UNL     1       5.435   7.536  -2.063  0.00  0.00    -0.221 F 
ENDBRANCH  27  28
ENDBRANCH  25  27
ENDBRANCH   1  25
BRANCH   1  30
ATOM     30  O   UNL     1       2.990   4.532  -4.928  0.00  0.00    -0.448 OA
BRANCH  30  31
ATOM     31  C   UNL     1       3.754   4.679  -3.791  0.00  0.00    +0.317 C 
ATOM     32  O   UNL     1       5.004   4.549  -3.807  0.00  0.00    -0.250 OA
BRANCH  31  34
ATOM     33  C   UNL     1       4.147   4.613  -1.434  0.00  0.00    +0.012 C 
ATOM     34  C   UNL     1       3.121   4.569  -2.441  0.00  0.00    +0.110 C 
ENDBRANCH  31  34
ENDBRANCH  30  31
ENDBRANCH   1  30
TORSDOF 6
ENDMDL
MODEL 6
REMARK VINA RESULT:      -7.3      2.685      4.166
REMARK  Name = 
REMARK  6 active torsions:
REMARK  status: ('A' for Active; 'I' for Inactive)
REMARK    1  A    between atoms: C_2  and  C_3
REMARK    2  A    between atoms: C_3  and  O_5
REMARK    3  A    between atoms: O_5  and  C_6
REMARK    4  A    between atoms: C_6  and  C_7
REMARK    5  A    between atoms: C_7  and  S_9
REMARK    6  A    between atoms: S_9  and  C_10
REMARK                            x       y       z     vdW  Elec       q    Type
REMARK                         _______ _______ _______ _____ _____    ______ ____
ROOT
ATOM      1  C   UNL     1       0.500   5.971  -5.816  0.00  0.00    +0.195 C 
ATOM      2  C   UNL     1       1.594   6.122  -6.765  0.00  0.00    +0.044 C 
ATOM      3  C   UNL     1       1.082   5.206  -7.994  0.00  0.00    +0.007 C 
ATOM      4  C   UNL     1       2.078   6.077  -9.050  0.00  0.00    +0.036 C 
ATOM      5  C   UNL     1       3.354   5.164  -8.757  0.00  0.00    +0.168 C 
ATOM      6  C   UNL     1       4.060   5.676  -7.375  0.00  0.00    +0.182 C 
ATOM      7  O   UNL     1       3.757   7.144  -7.612  0.00  0.00    -0.220 OA
ATOM      8  F   UNL     1       3.066   3.888  -8.656  0.00  0.00    -0.237 F 
ATOM      9  C   UNL     1       4.290   5.624  -9.805  0.00  0.00    +0.066 C 
ATOM     10  C   UNL     1       3.836   5.106 -11.137  0.00  0.00    -0.003 C 
ATOM     11  C   UNL     1       4.741   5.333 -12.095  0.00  0.00    +0.036 C 
ATOM     12  C   UNL     1       6.159   5.558 -11.799  0.00  0.00    +0.195 C 
ATOM     13  C   UNL     1       6.553   5.937 -10.430  0.00  0.00    +0.038 C 
ATOM     14  O   UNL     1       7.045   5.542 -12.705  0.00  0.00    -0.287 OA
ATOM     15  C   UNL     1       2.465   5.911 -11.495  0.00  0.00    +0.180 C 
ATOM     16  F   UNL     1       2.052   4.876 -12.510  0.00  0.00    -0.233 F 
ATOM     17  C   UNL     1       4.242   7.141 -10.015  0.00  0.00    +0.011 C 
ATOM     18  C   UNL     1       5.715   5.399  -9.535  0.00  0.00    -0.017 C 
ATOM     19  C   UNL     1       1.633   5.134 -10.296  0.00  0.00    +0.042 C 
ATOM     20  C   UNL     1      -0.162   6.221  -8.151  0.00  0.00    +0.004 C 
ATOM     21  C   UNL     1       1.502   7.550  -7.158  0.00  0.00    +0.004 C 
ATOM     22  C   UNL     1       2.759   5.440  -6.408  0.00  0.00    +0.039 C 
ATOM     23  C   UNL     1      -0.859   5.911  -6.706  0.00  0.00    +0.045 C 
ATOM     24  C   UNL     1      -0.797   4.294  -6.939  0.00  0.00    +0.004 C 
ENDROOT
BRANCH   1  25
ATOM     25  C   UNL     1       0.225   7.125  -4.930  0.00  0.00    +0.237 C 
ATOM     26  O   UNL     1       1.006   7.775  -4.286  0.00  0.00    -0.281 OA
BRANCH  25  27
ATOM     27  S   UNL     1      -1.445   7.796  -4.853  0.00  0.00    -0.036 S 
BRANCH  27  28
ATOM     28  C   UNL     1      -2.043   7.712  -3.151  0.00  0.00    +0.258 C 
ATOM     29  F   UNL     1      -3.134   6.880  -3.172  0.00  0.00    -0.221 F 
ENDBRANCH  27  28
ENDBRANCH  25  27
ENDBRANCH   1  25
BRANCH   1  30
ATOM     30  O   UNL     1       0.543   4.845  -4.993  0.00  0.00    -0.448 OA
BRANCH  30  31
ATOM     31  C   UNL     1       0.863   5.032  -3.666  0.00  0.00    +0.317 C 
ATOM     32  O   UNL     1       2.048   4.980  -3.252  0.00  0.00    -0.250 OA
BRANCH  31  34
ATOM     33  C   UNL     1       0.326   5.368  -1.361  0.00  0.00    +0.012 C 
ATOM     34  C   UNL     1      -0.185   4.874  -2.611  0.00  0.00    +0.110 C 
ENDBRANCH  31  34
ENDBRANCH  30  31
ENDBRANCH   1  30
TORSDOF 6
ENDMDL
MODEL 7
REMARK VINA RESULT:      -7.2      2.861      7.948
REMARK  Name = 
REMARK  6 active torsions:
REMARK  status: ('A' for Active; 'I' for Inactive)
REMARK    1  A    between atoms: C_2  and  C_3
REMARK    2  A    between atoms: C_3  and  O_5
REMARK    3  A    between atoms: O_5  and  C_6
REMARK    4  A    between atoms: C_6  and  C_7
REMARK    5  A    between atoms: C_7  and  S_9
REMARK    6  A    between atoms: S_9  and  C_10
REMARK                            x       y       z     vdW  Elec       q    Type
REMARK                         _______ _______ _______ _____ _____    ______ ____
ROOT
ATOM      1  C   UNL     1       1.687   5.769  -9.888  0.00  0.00    +0.195 C 
ATOM      2  C   UNL     1       1.551   5.900  -8.443  0.00  0.00    +0.044 C 
ATOM      3  C   UNL     1       2.964   5.305  -7.933  0.00  0.00    +0.007 C 
ATOM      4  C   UNL     1       2.798   6.170  -6.487  0.00  0.00    +0.036 C 
ATOM      5  C   UNL     1       1.937   5.023  -5.786  0.00  0.00    +0.168 C 
ATOM      6  C   UNL     1       0.382   5.167  -6.264  0.00  0.00    +0.182 C 
ATOM      7  O   UNL     1       0.404   6.683  -6.319  0.00  0.00    -0.220 OA
ATOM      8  F   UNL     1       2.369   3.813  -6.053  0.00  0.00    -0.237 F 
ATOM      9  C   UNL     1       1.904   5.497  -4.385  0.00  0.00    +0.066 C 
ATOM     10  C   UNL     1       3.254   5.297  -3.763  0.00  0.00    -0.003 C 
ATOM     11  C   UNL     1       3.236   5.534  -2.447  0.00  0.00    +0.036 C 
ATOM     12  C   UNL     1       2.006   5.469  -1.654  0.00  0.00    +0.195 C 
ATOM     13  C   UNL     1       0.706   5.537  -2.344  0.00  0.00    +0.038 C 
ATOM     14  O   UNL     1       2.024   5.464  -0.386  0.00  0.00    -0.287 OA
ATOM     15  C   UNL     1       4.251   6.365  -4.486  0.00  0.00    +0.180 C 
ATOM     16  F   UNL     1       5.477   5.602  -4.055  0.00  0.00    -0.233 F 
ATOM     17  C   UNL     1       1.722   7.014  -4.280  0.00  0.00    +0.011 C 
ATOM     18  C   UNL     1       0.794   4.998  -3.566  0.00  0.00    -0.017 C 
ATOM     19  C   UNL     1       4.183   5.540  -5.916  0.00  0.00    +0.042 C 
ATOM     20  C   UNL     1       3.685   6.522  -8.709  0.00  0.00    +0.004 C 
ATOM     21  C   UNL     1       1.545   7.369  -8.239  0.00  0.00    +0.004 C 
ATOM     22  C   UNL     1       0.667   4.985  -7.868  0.00  0.00    +0.039 C 
ATOM     23  C   UNL     1       3.246   6.086 -10.221  0.00  0.00    +0.045 C 
ATOM     24  C   UNL     1       3.746   4.546 -10.004  0.00  0.00    +0.004 C 
ENDROOT
BRANCH   1  25
ATOM     25  C   UNL     1       0.993   6.783 -10.714  0.00  0.00    +0.237 C 
ATOM     26  O   UNL     1      -0.003   7.404 -10.454  0.00  0.00    -0.281 OA
BRANCH  25  27
ATOM     27  S   UNL     1       1.742   7.315 -12.264  0.00  0.00    -0.036 S 
BRANCH  27  28
ATOM     28  C   UNL     1       0.440   7.809 -13.415  0.00  0.00    +0.258 C 
ATOM     29  F   UNL     1       0.789   9.056 -13.871  0.00  0.00    -0.221 F 
ENDBRANCH  27  28
ENDBRANCH  25  27
ENDBRANCH   1  25
BRANCH   1  30
ATOM     30  O   UNL     1       1.359   4.526 -10.432  0.00  0.00    -0.448 OA
BRANCH  30  31
ATOM     31  C   UNL     1       0.636   4.510 -11.604  0.00  0.00    +0.317 C 
ATOM     32  O   UNL     1      -0.617   4.415 -11.613  0.00  0.00    -0.250 OA
BRANCH  31  34
ATOM     33  C   UNL     1       0.327   4.160 -13.949  0.00  0.00    +0.012 C 
ATOM     34  C   UNL     1       1.307   4.172 -12.897  0.00  0.00    +0.110 C 
ENDBRANCH  31  34
ENDBRANCH  30  31
ENDBRANCH   1  30
TORSDOF 6
ENDMDL
MODEL 8
REMARK VINA RESULT:      -7.2      2.775      7.838
REMARK  Name = 
REMARK  6 active torsions:
REMARK  status: ('A' for Active; 'I' for Inactive)
REMARK    1  A    between atoms: C_2  and  C_3
REMARK    2  A    between atoms: C_3  and  O_5
REMARK    3  A    between atoms: O_5  and  C_6
REMARK    4  A    between atoms: C_6  and  C_7
REMARK    5  A    between atoms: C_7  and  S_9
REMARK    6  A    between atoms: S_9  and  C_10
REMARK                            x       y       z     vdW  Elec       q    Type
REMARK                         _______ _______ _______ _____ _____    ______ ____
ROOT
ATOM      1  C   UNL     1       1.655   5.605  -7.661  0.00  0.00    +0.195 C 
ATOM      2  C   UNL     1       1.311   5.653  -6.246  0.00  0.00    +0.044 C 
ATOM      3  C   UNL     1      -0.269   5.987  -6.311  0.00  0.00    +0.007 C 
ATOM      4  C   UNL     1      -0.465   5.328  -4.764  0.00  0.00    +0.036 C 
ATOM      5  C   UNL     1      -0.094   6.695  -4.028  0.00  0.00    +0.168 C 
ATOM      6  C   UNL     1       1.533   6.831  -3.963  0.00  0.00    +0.182 C 
ATOM      7  O   UNL     1       1.779   5.347  -3.770  0.00  0.00    -0.220 OA
ATOM      8  F   UNL     1      -0.601   7.754  -4.613  0.00  0.00    -0.237 F 
ATOM      9  C   UNL     1      -0.462   6.383  -2.630  0.00  0.00    +0.066 C 
ATOM     10  C   UNL     1      -1.956   6.358  -2.505  0.00  0.00    -0.003 C 
ATOM     11  C   UNL     1      -2.349   6.266  -1.230  0.00  0.00    +0.036 C 
ATOM     12  C   UNL     1      -1.490   6.667  -0.113  0.00  0.00    +0.195 C 
ATOM     13  C   UNL     1      -0.040   6.803  -0.338  0.00  0.00    +0.038 C 
ATOM     14  O   UNL     1      -1.938   6.797   1.066  0.00  0.00    -0.287 OA
ATOM     15  C   UNL     1      -2.459   5.038  -3.318  0.00  0.00    +0.180 C 
ATOM     16  F   UNL     1      -3.866   5.567  -3.426  0.00  0.00    -0.233 F 
ATOM     17  C   UNL     1      -0.081   4.957  -2.223  0.00  0.00    +0.011 C 
ATOM     18  C   UNL     1       0.205   7.184  -1.597  0.00  0.00    -0.017 C 
ATOM     19  C   UNL     1      -2.045   5.708  -4.770  0.00  0.00    +0.042 C 
ATOM     20  C   UNL     1      -0.473   4.574  -7.062  0.00  0.00    +0.004 C 
ATOM     21  C   UNL     1       1.488   4.246  -5.810  0.00  0.00    +0.004 C 
ATOM     22  C   UNL     1       1.784   6.786  -5.581  0.00  0.00    +0.039 C 
ATOM     23  C   UNL     1       0.377   4.936  -8.409  0.00  0.00    +0.045 C 
ATOM     24  C   UNL     1      -0.413   6.351  -8.618  0.00  0.00    +0.004 C 
ENDROOT
BRANCH   1  25
ATOM     25  C   UNL     1       2.745   4.680  -8.048  0.00  0.00    +0.237 C 
ATOM     26  O   UNL     1       2.702   3.754  -8.814  0.00  0.00    -0.281 OA
BRANCH  25  27
ATOM     27  S   UNL     1       4.416   4.990  -7.448  0.00  0.00    -0.036 S 
BRANCH  27  28
ATOM     28  C   UNL     1       5.586   4.770  -8.807  0.00  0.00    +0.258 C 
ATOM     29  F   UNL     1       6.496   5.790  -8.694  0.00  0.00    -0.221 F 
ENDBRANCH  27  28
ENDBRANCH  25  27
ENDBRANCH   1  25
BRANCH   1  30
ATOM     30  O   UNL     1       1.941   6.827  -8.272  0.00  0.00    -0.448 OA
BRANCH  30  31
ATOM     31  C   UNL     1       2.662   6.804  -9.445  0.00  0.00    +0.317 C 
ATOM     32  O   UNL     1       3.773   7.382  -9.556  0.00  0.00    -0.250 OA
BRANCH  31  34
ATOM     33  C   UNL     1       2.953   5.940 -11.655  0.00  0.00    +0.012 C 
ATOM     34  C   UNL     1       1.985   6.477 -10.738  0.00  0.00    +0.110 C 
ENDBRANCH  31  34
ENDBRANCH  30  31
ENDBRANCH   1  30
TORSDOF 6
ENDMDL
MODEL 9
REMARK VINA RESULT:      -7.2      3.218      7.575
REMARK  Name = 
REMARK  6 active torsions:
REMARK  status: ('A' for Active; 'I' for Inactive)
REMARK    1  A    between atoms: C_2  and  C_3
REMARK    2  A    between atoms: C_3  and  O_5
REMARK    3  A    between atoms: O_5  and  C_6
REMARK    4  A    between atoms: C_6  and  C_7
REMARK    5  A    between atoms: C_7  and  S_9
REMARK    6  A    between atoms: S_9  and  C_10
REMARK                            x       y       z     vdW  Elec       q    Type
REMARK                         _______ _______ _______ _____ _____    ______ ____
ROOT
ATOM      1  C   UNL     1       3.910   6.103 -10.139  0.00  0.00    +0.195 C 
ATOM      2  C   UNL     1       3.319   5.934  -8.819  0.00  0.00    +0.044 C 
ATOM      3  C   UNL     1       1.765   6.261  -9.118  0.00  0.00    +0.007 C 
ATOM      4  C   UNL     1       1.321   5.374  -7.746  0.00  0.00    +0.036 C 
ATOM      5  C   UNL     1       1.507   6.617  -6.762  0.00  0.00    +0.168 C 
ATOM      6  C   UNL     1       3.090   6.755  -6.385  0.00  0.00    +0.182 C 
ATOM      7  O   UNL     1       3.351   5.260  -6.372  0.00  0.00    -0.220 OA
ATOM      8  F   UNL     1       1.075   7.747  -7.267  0.00  0.00    -0.237 F 
ATOM      9  C   UNL     1       0.908   6.094  -5.515  0.00  0.00    +0.066 C 
ATOM     10  C   UNL     1      -0.583   6.038  -5.667  0.00  0.00    -0.003 C 
ATOM     11  C   UNL     1      -1.192   5.750  -4.512  0.00  0.00    +0.036 C 
ATOM     12  C   UNL     1      -0.559   5.984  -3.211  0.00  0.00    +0.195 C 
ATOM     13  C   UNL     1       0.902   6.165  -3.148  0.00  0.00    +0.038 C 
ATOM     14  O   UNL     1      -1.214   5.931  -2.127  0.00  0.00    -0.287 OA
ATOM     15  C   UNL     1      -0.887   4.851  -6.743  0.00  0.00    +0.180 C 
ATOM     16  F   UNL     1      -2.270   5.379  -7.024  0.00  0.00    -0.233 F 
ATOM     17  C   UNL     1       1.261   4.625  -5.261  0.00  0.00    +0.011 C 
ATOM     18  C   UNL     1       1.353   6.735  -4.272  0.00  0.00    -0.017 C 
ATOM     19  C   UNL     1      -0.246   5.737  -7.981  0.00  0.00    +0.042 C 
ATOM     20  C   UNL     1       1.747   4.976 -10.093  0.00  0.00    +0.004 C 
ATOM     21  C   UNL     1       3.465   4.478  -8.571  0.00  0.00    +0.004 C 
ATOM     22  C   UNL     1       3.626   6.957  -7.920  0.00  0.00    +0.039 C 
ATOM     23  C   UNL     1       2.809   5.545 -11.197  0.00  0.00    +0.045 C 
ATOM     24  C   UNL     1       2.019   6.969 -11.334  0.00  0.00    +0.004 C 
ENDROOT
BRANCH   1  25
ATOM     25  C   UNL     1       5.083   5.257 -10.455  0.00  0.00    +0.237 C 
ATOM     26  O   UNL     1       5.245   4.528 -11.398  0.00  0.00    -0.281 OA
BRANCH  25  27
ATOM     27  S   UNL     1       6.555   5.375  -9.424  0.00  0.00    -0.036 S 
BRANCH  27  28
ATOM     28  C   UNL     1       8.024   5.223 -10.464  0.00  0.00    +0.258 C 
ATOM     29  F   UNL     1       8.473   6.502 -10.678  0.00  0.00    -0.221 F 
ENDBRANCH  27  28
ENDBRANCH  25  27
ENDBRANCH   1  25
BRANCH   1  30
ATOM     30  O   UNL     1       4.256   7.406 -10.502  0.00  0.00    -0.448 OA
BRANCH  30  31
ATOM     31  C   UNL     1       5.354   7.575 -11.315  0.00  0.00    +0.317 C 
ATOM     32  O   UNL     1       6.260   8.404 -11.048  0.00  0.00    -0.250 OA
BRANCH  31  34
ATOM     33  C   UNL     1       6.625   7.250 -13.314  0.00  0.00    +0.012 C 
ATOM     34  C   UNL     1       5.315   7.115 -12.738  0.00  0.00    +0.110 C 
ENDBRANCH  31  34
ENDBRANCH  30  31
ENDBRANCH   1  30
TORSDOF 6
ENDMDL
