MODEL 1
REMARK VINA RESULT:      -7.6      0.000      0.000
REMARK  Name = 
REMARK  8 active torsions:
REMARK  status: ('A' for Active; 'I' for Inactive)
REMARK    1  A    between atoms: C_2  and  N_4
REMARK    2  A    between atoms: N_4  and  C_5
REMARK    3  A    between atoms: N_4  and  C_23
REMARK    4  A    between atoms: C_5  and  C_6
REMARK    5  A    between atoms: C_6  and  C_7
REMARK    6  A    between atoms: C_7  and  C_8
REMARK    7  A    between atoms: C_7  and  C_11
REMARK    8  A    between atoms: C_7  and  C_17
REMARK                            x       y       z     vdW  Elec       q    Type
REMARK                         _______ _______ _______ _____ _____    ______ ____
ROOT
ATOM      1  C   UNL     1       1.254   5.945  -7.019  0.00  0.00    +0.127 C 
ENDROOT
BRANCH   1   2
ATOM      2  C   UNL     1       1.187   5.996  -8.485  0.00  0.00    -0.009 A 
ATOM      3  C   UNL     1       0.160   5.526  -9.257  0.00  0.00    -0.003 A 
ATOM      4  C   UNL     1       0.475   5.047 -10.523  0.00  0.00    -0.000 A 
ATOM      5  C   UNL     1       1.560   5.545 -11.199  0.00  0.00    -0.000 A 
ATOM      6  C   UNL     1       2.378   6.422 -10.532  0.00  0.00    -0.000 A 
ATOM      7  C   UNL     1       2.220   6.629  -9.167  0.00  0.00    -0.003 A 
ENDBRANCH   1   2
BRANCH   1   8
ATOM      8  C   UNL     1      -0.039   6.147  -6.341  0.00  0.00    +0.070 A 
ATOM      9  N   UNL     1      -0.071   7.150  -5.429  0.00  0.00    -0.247 NA
ATOM     10  C   UNL     1      -1.179   7.476  -4.763  0.00  0.00    +0.098 A 
ATOM     11  C   UNL     1      -2.359   6.905  -5.156  0.00  0.00    +0.021 A 
ATOM     12  C   UNL     1      -2.346   5.767  -5.918  0.00  0.00    +0.003 A 
ATOM     13  C   UNL     1      -1.200   5.487  -6.633  0.00  0.00    +0.016 A 
ENDBRANCH   1   8
BRANCH   1  14
ATOM     14  C   UNL     1       1.718   4.576  -6.626  0.00  0.00    +0.269 C 
ATOM     15  O   UNL     1       0.972   3.955  -5.823  0.00  0.00    -0.271 OA
ATOM     16  N   UNL     1       2.441   3.835  -7.586  0.00  0.00    -0.087 NA
ENDBRANCH   1  14
BRANCH   1  17
ATOM     17  C   UNL     1       2.274   6.908  -6.487  0.00  0.00    +0.036 C 
BRANCH  17  18
ATOM     18  C   UNL     1       3.169   6.341  -5.437  0.00  0.00    +0.073 C 
BRANCH  18  19
ATOM     19  N   UNL     1       3.029   6.921  -4.137  0.00  0.00    -0.275 NA
BRANCH  19  20
ATOM     20  C   UNL     1       4.046   7.843  -3.751  0.00  0.00    +0.058 C 
ATOM     21  C   UNL     1       4.202   8.067  -2.287  0.00  0.00    +0.017 C 
ATOM     22  C   UNL     1       5.359   7.455  -4.372  0.00  0.00    +0.017 C 
ENDBRANCH  19  20
BRANCH  19  24
ATOM     23  C   UNL     1       3.672   4.792  -3.683  0.00  0.00    +0.017 C 
ATOM     24  C   UNL     1       3.092   5.814  -3.182  0.00  0.00    +0.058 C 
ATOM     25  C   UNL     1       1.689   5.448  -2.730  0.00  0.00    +0.017 C 
ENDBRANCH  19  24
ENDBRANCH  18  19
ENDBRANCH  17  18
ENDBRANCH   1  17
TORSDOF 8
ENDMDL
MODEL 2
REMARK VINA RESULT:      -7.5      1.729      5.647
REMARK  Name = 
REMARK  8 active torsions:
REMARK  status: ('A' for Active; 'I' for Inactive)
REMARK    1  A    between atoms: C_2  and  N_4
REMARK    2  A    between atoms: N_4  and  C_5
REMARK    3  A    between atoms: N_4  and  C_23
REMARK    4  A    between atoms: C_5  and  C_6
REMARK    5  A    between atoms: C_6  and  C_7
REMARK    6  A    between atoms: C_7  and  C_8
REMARK    7  A    between atoms: C_7  and  C_11
REMARK    8  A    between atoms: C_7  and  C_17
REMARK                            x       y       z     vdW  Elec       q    Type
REMARK                         _______ _______ _______ _____ _____    ______ ____
ROOT
ATOM      1  C   UNL     1       3.155   5.667  -6.856  0.00  0.00    +0.127 C 
ENDROOT
BRANCH   1   2
ATOM      2  C   UNL     1       3.908   5.890  -5.615  0.00  0.00    -0.009 A 
ATOM      3  C   UNL     1       4.371   4.916  -4.773  0.00  0.00    -0.003 A 
ATOM      4  C   UNL     1       4.454   5.223  -3.420  0.00  0.00    -0.000 A 
ATOM      5  C   UNL     1       4.661   6.518  -3.017  0.00  0.00    -0.000 A 
ATOM      6  C   UNL     1       4.651   7.494  -3.983  0.00  0.00    -0.000 A 
ATOM      7  C   UNL     1       4.244   7.196  -5.277  0.00  0.00    -0.003 A 
ENDBRANCH   1   2
BRANCH   1   8
ATOM      8  C   UNL     1       3.932   5.891  -8.090  0.00  0.00    +0.070 A 
ATOM      9  N   UNL     1       3.367   6.731  -8.992  0.00  0.00    -0.247 NA
ATOM     10  C   UNL     1       3.967   7.058 -10.137  0.00  0.00    +0.098 A 
ATOM     11  C   UNL     1       5.272   6.685 -10.310  0.00  0.00    +0.021 A 
ATOM     12  C   UNL     1       5.807   5.689  -9.535  0.00  0.00    +0.003 A 
ATOM     13  C   UNL     1       5.189   5.411  -8.333  0.00  0.00    +0.016 A 
ENDBRANCH   1   8
BRANCH   1  14
ATOM     14  C   UNL     1       2.733   4.231  -6.888  0.00  0.00    +0.269 C 
ATOM     15  O   UNL     1       2.048   3.839  -5.906  0.00  0.00    -0.271 OA
ATOM     16  N   UNL     1       2.488   3.655  -8.154  0.00  0.00    -0.087 NA
ENDBRANCH   1  14
BRANCH   1  17
ATOM     17  C   UNL     1       1.896   6.482  -6.883  0.00  0.00    +0.036 C 
BRANCH  17  18
ATOM     18  C   UNL     1       1.033   6.323  -5.676  0.00  0.00    +0.073 C 
BRANCH  18  19
ATOM     19  N   UNL     1      -0.355   6.604  -5.879  0.00  0.00    -0.275 NA
BRANCH  19  20
ATOM     20  C   UNL     1      -1.129   6.811  -4.699  0.00  0.00    +0.058 C 
ATOM     21  C   UNL     1      -0.484   6.414  -3.417  0.00  0.00    +0.017 C 
ATOM     22  C   UNL     1      -1.607   8.235  -4.636  0.00  0.00    +0.017 C 
ENDBRANCH  19  20
BRANCH  19  24
ATOM     23  C   UNL     1      -0.708   5.451  -7.803  0.00  0.00    +0.017 C 
ATOM     24  C   UNL     1      -0.921   5.429  -6.543  0.00  0.00    +0.058 C 
ATOM     25  C   UNL     1      -2.413   5.355  -6.268  0.00  0.00    +0.017 C 
ENDBRANCH  19  24
ENDBRANCH  18  19
ENDBRANCH  17  18
ENDBRANCH   1  17
TORSDOF 8
ENDMDL
MODEL 3
REMARK VINA RESULT:      -7.4      1.791      5.832
REMARK  Name = 
REMARK  8 active torsions:
REMARK  status: ('A' for Active; 'I' for Inactive)
REMARK    1  A    between atoms: C_2  and  N_4
REMARK    2  A    between atoms: N_4  and  C_5
REMARK    3  A    between atoms: N_4  and  C_23
REMARK    4  A    between atoms: C_5  and  C_6
REMARK    5  A    between atoms: C_6  and  C_7
REMARK    6  A    between atoms: C_7  and  C_8
REMARK    7  A    between atoms: C_7  and  C_11
REMARK    8  A    between atoms: C_7  and  C_17
REMARK                            x       y       z     vdW  Elec       q    Type
REMARK                         _______ _______ _______ _____ _____    ______ ____
ROOT
ATOM      1  C   UNL     1       2.961   6.167  -5.932  0.00  0.00    +0.127 C 
ENDROOT
BRANCH   1   2
ATOM      2  C   UNL     1       3.717   6.876  -4.893  0.00  0.00    -0.009 A 
ATOM      3  C   UNL     1       5.039   7.221  -4.958  0.00  0.00    -0.003 A 
ATOM      4  C   UNL     1       5.752   7.266  -3.766  0.00  0.00    -0.000 A 
ATOM      5  C   UNL     1       5.109   7.556  -2.588  0.00  0.00    -0.000 A 
ATOM      6  C   UNL     1       3.741   7.668  -2.620  0.00  0.00    -0.000 A 
ATOM      7  C   UNL     1       3.034   7.299  -3.758  0.00  0.00    -0.003 A 
ENDBRANCH   1   2
BRANCH   1   8
ATOM      8  C   UNL     1       3.661   6.049  -7.224  0.00  0.00    +0.070 A 
ATOM      9  N   UNL     1       3.113   6.745  -8.252  0.00  0.00    -0.247 NA
ATOM     10  C   UNL     1       3.655   6.766  -9.470  0.00  0.00    +0.098 A 
ATOM     11  C   UNL     1       4.902   6.225  -9.630  0.00  0.00    +0.021 A 
ATOM     12  C   UNL     1       5.395   5.356  -8.693  0.00  0.00    +0.003 A 
ATOM     13  C   UNL     1       4.844   5.397  -7.428  0.00  0.00    +0.016 A 
ENDBRANCH   1   8
BRANCH   1  14
ATOM     14  C   UNL     1       2.729   4.765  -5.458  0.00  0.00    +0.269 C 
ATOM     15  O   UNL     1       2.245   3.973  -6.310  0.00  0.00    -0.271 OA
ATOM     16  N   UNL     1       3.617   4.253  -4.488  0.00  0.00    -0.087 NA
ENDBRANCH   1  14
BRANCH   1  17
ATOM     17  C   UNL     1       1.605   6.778  -6.132  0.00  0.00    +0.036 C 
BRANCH  17  18
ATOM     18  C   UNL     1       0.543   6.230  -5.238  0.00  0.00    +0.073 C 
BRANCH  18  19
ATOM     19  N   UNL     1      -0.795   6.592  -5.588  0.00  0.00    -0.275 NA
BRANCH  19  20
ATOM     20  C   UNL     1      -1.654   6.936  -4.503  0.00  0.00    +0.058 C 
ATOM     21  C   UNL     1      -1.251   6.424  -3.164  0.00  0.00    +0.017 C 
ATOM     22  C   UNL     1      -1.867   8.423  -4.462  0.00  0.00    +0.017 C 
ENDBRANCH  19  20
BRANCH  19  24
ATOM     23  C   UNL     1      -0.964   5.263  -7.421  0.00  0.00    +0.017 C 
ATOM     24  C   UNL     1      -1.387   5.414  -6.225  0.00  0.00    +0.058 C 
ATOM     25  C   UNL     1      -2.901   5.536  -6.219  0.00  0.00    +0.017 C 
ENDBRANCH  19  24
ENDBRANCH  18  19
ENDBRANCH  17  18
ENDBRANCH   1  17
TORSDOF 8
ENDMDL
MODEL 4
REMARK VINA RESULT:      -7.4      1.618      4.168
REMARK  Name = 
REMARK  8 active torsions:
REMARK  status: ('A' for Active; 'I' for Inactive)
REMARK    1  A    between atoms: C_2  and  N_4
REMARK    2  A    between atoms: N_4  and  C_5
REMARK    3  A    between atoms: N_4  and  C_23
REMARK    4  A    between atoms: C_5  and  C_6
REMARK    5  A    between atoms: C_6  and  C_7
REMARK    6  A    between atoms: C_7  and  C_8
REMARK    7  A    between atoms: C_7  and  C_11
REMARK    8  A    between atoms: C_7  and  C_17
REMARK                            x       y       z     vdW  Elec       q    Type
REMARK                         _______ _______ _______ _____ _____    ______ ____
ROOT
ATOM      1  C   UNL     1       1.241   6.068  -6.392  0.00  0.00    +0.127 C 
ENDROOT
BRANCH   1   2
ATOM      2  C   UNL     1      -0.068   6.344  -5.790  0.00  0.00    -0.009 A 
ATOM      3  C   UNL     1      -1.170   5.536  -5.860  0.00  0.00    -0.003 A 
ATOM      4  C   UNL     1      -2.418   6.148  -5.850  0.00  0.00    -0.000 A 
ATOM      5  C   UNL     1      -2.592   7.351  -5.213  0.00  0.00    -0.000 A 
ATOM      6  C   UNL     1      -1.475   7.973  -4.712  0.00  0.00    -0.000 A 
ATOM      7  C   UNL     1      -0.208   7.495  -5.022  0.00  0.00    -0.003 A 
ENDBRANCH   1   2
BRANCH   1   8
ATOM      8  C   UNL     1       1.181   5.547  -7.771  0.00  0.00    +0.070 A 
ATOM      9  N   UNL     1       2.236   4.786  -8.154  0.00  0.00    -0.247 NA
ATOM     10  C   UNL     1       2.305   4.215  -9.358  0.00  0.00    +0.098 A 
ATOM     11  C   UNL     1       1.191   4.246 -10.151  0.00  0.00    +0.021 A 
ATOM     12  C   UNL     1       0.195   5.153  -9.896  0.00  0.00    +0.003 A 
ATOM     13  C   UNL     1       0.123   5.684  -8.625  0.00  0.00    +0.016 A 
ENDBRANCH   1   8
BRANCH   1  14
ATOM     14  C   UNL     1       1.995   7.360  -6.470  0.00  0.00    +0.269 C 
ATOM     15  O   UNL     1       3.090   7.393  -5.848  0.00  0.00    -0.271 OA
ATOM     16  N   UNL     1       1.871   8.113  -7.658  0.00  0.00    -0.087 NA
ENDBRANCH   1  14
BRANCH   1  17
ATOM     17  C   UNL     1       2.056   5.151  -5.529  0.00  0.00    +0.036 C 
BRANCH  17  18
ATOM     18  C   UNL     1       1.527   4.976  -4.144  0.00  0.00    +0.073 C 
BRANCH  18  19
ATOM     19  N   UNL     1       2.244   5.678  -3.125  0.00  0.00    -0.275 NA
BRANCH  19  20
ATOM     20  C   UNL     1       3.579   5.237  -2.883  0.00  0.00    +0.058 C 
ATOM     21  C   UNL     1       4.640   6.276  -2.992  0.00  0.00    +0.017 C 
ATOM     22  C   UNL     1       3.659   4.532  -1.558  0.00  0.00    +0.017 C 
ENDBRANCH  19  20
BRANCH  19  24
ATOM     23  C   UNL     1       0.324   5.034  -2.099  0.00  0.00    +0.017 C 
ATOM     24  C   UNL     1       1.507   5.462  -1.879  0.00  0.00    +0.058 C 
ATOM     25  C   UNL     1       1.454   6.755  -1.085  0.00  0.00    +0.017 C 
ENDBRANCH  19  24
ENDBRANCH  18  19
ENDBRANCH  17  18
ENDBRANCH   1  17
TORSDOF 8
ENDMDL
MODEL 5
REMARK VINA RESULT:      -7.4      1.533      5.248
REMARK  Name = 
REMARK  8 active torsions:
REMARK  status: ('A' for Active; 'I' for Inactive)
REMARK    1  A    between atoms: C_2  and  N_4
REMARK    2  A    between atoms: N_4  and  C_5
REMARK    3  A    between atoms: N_4  and  C_23
REMARK    4  A    between atoms: C_5  and  C_6
REMARK    5  A    between atoms: C_6  and  C_7
REMARK    6  A    between atoms: C_7  and  C_8
REMARK    7  A    between atoms: C_7  and  C_11
REMARK    8  A    between atoms: C_7  and  C_17
REMARK                            x       y       z     vdW  Elec       q    Type
REMARK                         _______ _______ _______ _____ _____    ______ ____
ROOT
ATOM      1  C   UNL     1       2.118   5.820  -6.151  0.00  0.00    +0.127 C 
ENDROOT
BRANCH   1   2
ATOM      2  C   UNL     1       3.108   5.994  -5.082  0.00  0.00    -0.009 A 
ATOM      3  C   UNL     1       3.496   5.038  -4.184  0.00  0.00    -0.003 A 
ATOM      4  C   UNL     1       3.881   5.462  -2.918  0.00  0.00    -0.000 A 
ATOM      5  C   UNL     1       4.427   6.709  -2.745  0.00  0.00    -0.000 A 
ATOM      6  C   UNL     1       4.454   7.549  -3.831  0.00  0.00    -0.000 A 
ATOM      7  C   UNL     1       3.769   7.215  -4.993  0.00  0.00    -0.003 A 
ENDBRANCH   1   2
BRANCH   1   8
ATOM      8  C   UNL     1       2.659   5.965  -7.515  0.00  0.00    +0.070 A 
ATOM      9  N   UNL     1       1.766   6.345  -8.462  0.00  0.00    -0.247 NA
ATOM     10  C   UNL     1       2.115   6.553  -9.732  0.00  0.00    +0.098 A 
ATOM     11  C   UNL     1       3.449   6.568 -10.039  0.00  0.00    +0.021 A 
ATOM     12  C   UNL     1       4.354   6.004  -9.179  0.00  0.00    +0.003 A 
ATOM     13  C   UNL     1       3.977   5.851  -7.861  0.00  0.00    +0.016 A 
ENDBRANCH   1   8
BRANCH   1  14
ATOM     14  C   UNL     1       1.586   4.423  -6.064  0.00  0.00    +0.269 C 
ATOM     15  O   UNL     1       0.334   4.307  -6.145  0.00  0.00    -0.271 OA
ATOM     16  N   UNL     1       2.393   3.387  -6.582  0.00  0.00    -0.087 NA
ENDBRANCH   1  14
BRANCH   1  17
ATOM     17  C   UNL     1       0.944   6.734  -5.961  0.00  0.00    +0.036 C 
BRANCH  17  18
ATOM     18  C   UNL     1       0.489   6.869  -4.546  0.00  0.00    +0.073 C 
BRANCH  18  19
ATOM     19  N   UNL     1      -0.726   6.185  -4.230  0.00  0.00    -0.275 NA
BRANCH  19  20
ATOM     20  C   UNL     1      -1.933   6.893  -4.508  0.00  0.00    +0.058 C 
ATOM     21  C   UNL     1      -1.838   8.379  -4.483  0.00  0.00    +0.017 C 
ATOM     22  C   UNL     1      -2.523   6.419  -5.806  0.00  0.00    +0.017 C 
ENDBRANCH  19  20
BRANCH  19  24
ATOM     23  C   UNL     1       0.235   5.162  -2.445  0.00  0.00    +0.017 C 
ATOM     24  C   UNL     1      -0.706   5.957  -2.784  0.00  0.00    +0.058 C 
ATOM     25  C   UNL     1      -2.046   5.399  -2.335  0.00  0.00    +0.017 C 
ENDBRANCH  19  24
ENDBRANCH  18  19
ENDBRANCH  17  18
ENDBRANCH   1  17
TORSDOF 8
ENDMDL
MODEL 6
REMARK VINA RESULT:      -7.4      1.415      5.659
REMARK  Name = 
REMARK  8 active torsions:
REMARK  status: ('A' for Active; 'I' for Inactive)
REMARK    1  A    between atoms: C_2  and  N_4
REMARK    2  A    between atoms: N_4  and  C_5
REMARK    3  A    between atoms: N_4  and  C_23
REMARK    4  A    between atoms: C_5  and  C_6
REMARK    5  A    between atoms: C_6  and  C_7
REMARK    6  A    between atoms: C_7  and  C_8
REMARK    7  A    between atoms: C_7  and  C_11
REMARK    8  A    between atoms: C_7  and  C_17
REMARK                            x       y       z     vdW  Elec       q    Type
REMARK                         _______ _______ _______ _____ _____    ______ ____
ROOT
ATOM      1  C   UNL     1       2.036   5.984  -6.786  0.00  0.00    +0.127 C 
ENDROOT
BRANCH   1   2
ATOM      2  C   UNL     1       0.608   6.204  -6.529  0.00  0.00    -0.009 A 
ATOM      3  C   UNL     1       0.079   7.146  -5.688  0.00  0.00    -0.003 A 
ATOM      4  C   UNL     1      -1.120   6.842  -5.055  0.00  0.00    -0.000 A 
ATOM      5  C   UNL     1      -2.018   5.992  -5.650  0.00  0.00    -0.000 A 
ATOM      6  C   UNL     1      -1.631   5.366  -6.809  0.00  0.00    -0.000 A 
ATOM      7  C   UNL     1      -0.312   5.439  -7.238  0.00  0.00    -0.003 A 
ENDBRANCH   1   2
BRANCH   1   8
ATOM      8  C   UNL     1       2.911   6.232  -5.624  0.00  0.00    +0.070 A 
ATOM      9  N   UNL     1       2.661   5.468  -4.531  0.00  0.00    -0.247 NA
ATOM     10  C   UNL     1       3.392   5.552  -3.419  0.00  0.00    +0.098 A 
ATOM     11  C   UNL     1       4.543   6.292  -3.458  0.00  0.00    +0.021 A 
ATOM     12  C   UNL     1       4.725   7.219  -4.451  0.00  0.00    +0.003 A 
ATOM     13  C   UNL     1       3.988   7.073  -5.608  0.00  0.00    +0.016 A 
ENDBRANCH   1   8
BRANCH   1  14
ATOM     14  C   UNL     1       2.224   4.542  -7.145  0.00  0.00    +0.269 C 
ATOM     15  O   UNL     1       3.262   4.274  -7.805  0.00  0.00    -0.271 OA
ATOM     16  N   UNL     1       1.732   3.578  -6.238  0.00  0.00    -0.087 NA
ENDBRANCH   1  14
BRANCH   1  17
ATOM     17  C   UNL     1       2.506   6.781  -7.966  0.00  0.00    +0.036 C 
BRANCH  17  18
ATOM     18  C   UNL     1       1.556   6.800  -9.116  0.00  0.00    +0.073 C 
BRANCH  18  19
ATOM     19  N   UNL     1       1.936   5.992 -10.233  0.00  0.00    -0.275 NA
BRANCH  19  20
ATOM     20  C   UNL     1       2.920   6.550 -11.102  0.00  0.00    +0.058 C 
ATOM     21  C   UNL     1       4.312   6.585 -10.575  0.00  0.00    +0.017 C 
ATOM     22  C   UNL     1       2.875   5.867 -12.441  0.00  0.00    +0.017 C 
ENDBRANCH  19  20
BRANCH  19  24
ATOM     23  C   UNL     1      -0.125   6.738 -10.828  0.00  0.00    +0.017 C 
ATOM     24  C   UNL     1       0.728   5.810 -11.041  0.00  0.00    +0.058 C 
ATOM     25  C   UNL     1       0.111   4.456 -10.741  0.00  0.00    +0.017 C 
ENDBRANCH  19  24
ENDBRANCH  18  19
ENDBRANCH  17  18
ENDBRANCH   1  17
TORSDOF 8
ENDMDL
MODEL 7
REMARK VINA RESULT:      -7.3      1.575      5.734
REMARK  Name = 
REMARK  8 active torsions:
REMARK  status: ('A' for Active; 'I' for Inactive)
REMARK    1  A    between atoms: C_2  and  N_4
REMARK    2  A    between atoms: N_4  and  C_5
REMARK    3  A    between atoms: N_4  and  C_23
REMARK    4  A    between atoms: C_5  and  C_6
REMARK    5  A    between atoms: C_6  and  C_7
REMARK    6  A    between atoms: C_7  and  C_8
REMARK    7  A    between atoms: C_7  and  C_11
REMARK    8  A    between atoms: C_7  and  C_17
REMARK                            x       y       z     vdW  Elec       q    Type
REMARK                         _______ _______ _______ _____ _____    ______ ____
ROOT
ATOM      1  C   UNL     1       1.943   6.309  -5.407  0.00  0.00    +0.127 C 
ENDROOT
BRANCH   1   2
ATOM      2  C   UNL     1       0.615   6.403  -4.790  0.00  0.00    -0.009 A 
ATOM      3  C   UNL     1       0.234   5.819  -3.612  0.00  0.00    -0.003 A 
ATOM      4  C   UNL     1      -1.095   5.436  -3.484  0.00  0.00    -0.000 A 
ATOM      5  C   UNL     1      -2.076   6.109  -4.169  0.00  0.00    -0.000 A 
ATOM      6  C   UNL     1      -1.681   7.070  -5.067  0.00  0.00    -0.000 A 
ATOM      7  C   UNL     1      -0.341   7.202  -5.408  0.00  0.00    -0.003 A 
ENDBRANCH   1   2
BRANCH   1   8
ATOM      8  C   UNL     1       3.032   6.897  -4.605  0.00  0.00    +0.070 A 
ATOM      9  N   UNL     1       2.744   7.115  -3.298  0.00  0.00    -0.247 NA
ATOM     10  C   UNL     1       3.639   7.606  -2.440  0.00  0.00    +0.098 A 
ATOM     11  C   UNL     1       4.940   7.709  -2.855  0.00  0.00    +0.021 A 
ATOM     12  C   UNL     1       5.233   7.691  -4.194  0.00  0.00    +0.003 A 
ATOM     13  C   UNL     1       4.305   7.130  -5.046  0.00  0.00    +0.016 A 
ENDBRANCH   1   8
BRANCH   1  14
ATOM     14  C   UNL     1       2.279   4.857  -5.559  0.00  0.00    +0.269 C 
ATOM     15  O   UNL     1       3.211   4.431  -4.826  0.00  0.00    -0.271 OA
ATOM     16  N   UNL     1       1.224   3.978  -5.890  0.00  0.00    -0.087 NA
ENDBRANCH   1  14
BRANCH   1  17
ATOM     17  C   UNL     1       1.945   6.893  -6.788  0.00  0.00    +0.036 C 
BRANCH  17  18
ATOM     18  C   UNL     1       2.342   5.937  -7.862  0.00  0.00    +0.073 C 
BRANCH  18  19
ATOM     19  N   UNL     1       2.082   6.377  -9.197  0.00  0.00    -0.275 NA
BRANCH  19  20
ATOM     20  C   UNL     1       0.883   5.887  -9.795  0.00  0.00    +0.058 C 
ATOM     21  C   UNL     1      -0.180   5.440  -8.853  0.00  0.00    +0.017 C 
ATOM     22  C   UNL     1       0.341   6.895 -10.770  0.00  0.00    +0.017 C 
ENDBRANCH  19  20
BRANCH  19  24
ATOM     23  C   UNL     1       3.700   4.819  -9.524  0.00  0.00    +0.017 C 
ATOM     24  C   UNL     1       3.186   5.878 -10.019  0.00  0.00    +0.058 C 
ATOM     25  C   UNL     1       4.246   6.956 -10.160  0.00  0.00    +0.017 C 
ENDBRANCH  19  24
ENDBRANCH  18  19
ENDBRANCH  17  18
ENDBRANCH   1  17
TORSDOF 8
ENDMDL
MODEL 8
REMARK VINA RESULT:      -7.1      2.474      4.312
REMARK  Name = 
REMARK  8 active torsions:
REMARK  status: ('A' for Active; 'I' for Inactive)
REMARK    1  A    between atoms: C_2  and  N_4
REMARK    2  A    between atoms: N_4  and  C_5
REMARK    3  A    between atoms: N_4  and  C_23
REMARK    4  A    between atoms: C_5  and  C_6
REMARK    5  A    between atoms: C_6  and  C_7
REMARK    6  A    between atoms: C_7  and  C_8
REMARK    7  A    between atoms: C_7  and  C_11
REMARK    8  A    between atoms: C_7  and  C_17
REMARK                            x       y       z     vdW  Elec       q    Type
REMARK                         _______ _______ _______ _____ _____    ______ ____
ROOT
ATOM      1  C   UNL     1       3.356   5.856  -9.727  0.00  0.00    +0.127 C 
ENDROOT
BRANCH   1   2
ATOM      2  C   UNL     1       4.357   6.197 -10.745  0.00  0.00    -0.009 A 
ATOM      3  C   UNL     1       4.657   5.455 -11.855  0.00  0.00    -0.003 A 
ATOM      4  C   UNL     1       5.962   5.509 -12.331  0.00  0.00    -0.000 A 
ATOM      5  C   UNL     1       6.722   6.635 -12.133  0.00  0.00    -0.000 A 
ATOM      6  C   UNL     1       6.194   7.630 -11.348  0.00  0.00    -0.000 A 
ATOM      7  C   UNL     1       5.029   7.408 -10.624  0.00  0.00    -0.003 A 
ENDBRANCH   1   2
BRANCH   1   8
ATOM      8  C   UNL     1       1.991   5.662 -10.253  0.00  0.00    +0.070 A 
ATOM      9  N   UNL     1       1.432   6.749 -10.841  0.00  0.00    -0.247 NA
ATOM     10  C   UNL     1       0.219   6.716 -11.395  0.00  0.00    +0.098 A 
ATOM     11  C   UNL     1      -0.391   5.500 -11.541  0.00  0.00    +0.021 A 
ATOM     12  C   UNL     1       0.037   4.429 -10.800  0.00  0.00    +0.003 A 
ATOM     13  C   UNL     1       1.315   4.475 -10.284  0.00  0.00    +0.016 A 
ENDBRANCH   1   8
BRANCH   1  14
ATOM     14  C   UNL     1       3.751   4.549  -9.111  0.00  0.00    +0.269 C 
ATOM     15  O   UNL     1       4.899   4.512  -8.595  0.00  0.00    -0.271 OA
ATOM     16  N   UNL     1       2.726   3.768  -8.534  0.00  0.00    -0.087 NA
ENDBRANCH   1  14
BRANCH   1  17
ATOM     17  C   UNL     1       3.343   6.864  -8.616  0.00  0.00    +0.036 C 
BRANCH  17  18
ATOM     18  C   UNL     1       2.046   6.960  -7.885  0.00  0.00    +0.073 C 
BRANCH  18  19
ATOM     19  N   UNL     1       2.150   6.981  -6.460  0.00  0.00    -0.275 NA
BRANCH  19  20
ATOM     20  C   UNL     1       3.344   6.426  -5.912  0.00  0.00    +0.058 C 
ATOM     21  C   UNL     1       4.066   7.277  -4.926  0.00  0.00    +0.017 C 
ATOM     22  C   UNL     1       3.067   5.065  -5.337  0.00  0.00    +0.017 C 
ENDBRANCH  19  20
BRANCH  19  24
ATOM     23  C   UNL     1       0.255   5.806  -6.891  0.00  0.00    +0.017 C 
ATOM     24  C   UNL     1       1.046   6.163  -5.953  0.00  0.00    +0.058 C 
ATOM     25  C   UNL     1       0.281   6.935  -4.893  0.00  0.00    +0.017 C 
ENDBRANCH  19  24
ENDBRANCH  18  19
ENDBRANCH  17  18
ENDBRANCH   1  17
TORSDOF 8
ENDMDL
MODEL 9
REMARK VINA RESULT:      -7.0      2.300      4.674
REMARK  Name = 
REMARK  8 active torsions:
REMARK  status: ('A' for Active; 'I' for Inactive)
REMARK    1  A    between atoms: C_2  and  N_4
REMARK    2  A    between atoms: N_4  and  C_5
REMARK    3  A    between atoms: N_4  and  C_23
REMARK    4  A    between atoms: C_5  and  C_6
REMARK    5  A    between atoms: C_6  and  C_7
REMARK    6  A    between atoms: C_7  and  C_8
REMARK    7  A    between atoms: C_7  and  C_11
REMARK    8  A    between atoms: C_7  and  C_17
REMARK                            x       y       z     vdW  Elec       q    Type
REMARK                         _______ _______ _______ _____ _____    ______ ____
ROOT
ATOM      1  C   UNL     1       2.139   6.054  -9.508  0.00  0.00    +0.127 C 
ENDROOT
BRANCH   1   2
ATOM      2  C   UNL     1       3.600   6.186  -9.483  0.00  0.00    -0.009 A 
ATOM      3  C   UNL     1       4.372   6.738 -10.468  0.00  0.00    -0.003 A 
ATOM      4  C   UNL     1       5.658   6.237 -10.635  0.00  0.00    -0.000 A 
ATOM      5  C   UNL     1       6.334   5.702  -9.567  0.00  0.00    -0.000 A 
ATOM      6  C   UNL     1       5.650   5.566  -8.384  0.00  0.00    -0.000 A 
ATOM      7  C   UNL     1       4.277   5.774  -8.340  0.00  0.00    -0.003 A 
ENDBRANCH   1   2
BRANCH   1   8
ATOM      8  C   UNL     1       1.514   6.416 -10.794  0.00  0.00    +0.070 A 
ATOM      9  N   UNL     1       0.370   7.138 -10.705  0.00  0.00    -0.247 NA
ATOM     10  C   UNL     1      -0.288   7.571 -11.782  0.00  0.00    +0.098 A 
ATOM     11  C   UNL     1       0.319   7.443 -13.002  0.00  0.00    +0.021 A 
ATOM     12  C   UNL     1       1.357   6.562 -13.160  0.00  0.00    +0.003 A 
ATOM     13  C   UNL     1       2.047   6.176 -12.029  0.00  0.00    +0.016 A 
ENDBRANCH   1   8
BRANCH   1  14
ATOM     14  C   UNL     1       1.801   4.613  -9.276  0.00  0.00    +0.269 C 
ATOM     15  O   UNL     1       0.871   4.148  -9.986  0.00  0.00    -0.271 OA
ATOM     16  N   UNL     1       2.854   3.753  -8.894  0.00  0.00    -0.087 NA
ENDBRANCH   1  14
BRANCH   1  17
ATOM     17  C   UNL     1       1.503   6.825  -8.389  0.00  0.00    +0.036 C 
BRANCH  17  18
ATOM     18  C   UNL     1       0.804   5.981  -7.377  0.00  0.00    +0.073 C 
BRANCH  18  19
ATOM     19  N   UNL     1       0.808   6.498  -6.044  0.00  0.00    -0.275 NA
BRANCH  19  20
ATOM     20  C   UNL     1       1.776   5.938  -5.159  0.00  0.00    +0.058 C 
ATOM     21  C   UNL     1       2.224   4.553  -5.474  0.00  0.00    +0.017 C 
ATOM     22  C   UNL     1       2.955   6.862  -5.029  0.00  0.00    +0.017 C 
ENDBRANCH  19  20
BRANCH  19  24
ATOM     23  C   UNL     1      -1.287   5.677  -6.348  0.00  0.00    +0.017 C 
ATOM     24  C   UNL     1      -0.503   6.181  -5.474  0.00  0.00    +0.058 C 
ATOM     25  C   UNL     1      -1.121   7.436  -4.883  0.00  0.00    +0.017 C 
ENDBRANCH  19  24
ENDBRANCH  18  19
ENDBRANCH  17  18
ENDBRANCH   1  17
TORSDOF 8
ENDMDL
