MODEL 1
REMARK VINA RESULT:      -7.4      0.000      0.000
REMARK  Name = 
REMARK  9 active torsions:
REMARK  status: ('A' for Active; 'I' for Inactive)
REMARK    1  A    between atoms: C_2  and  C_4
REMARK    2  A    between atoms: C_4  and  C_6
REMARK    3  A    between atoms: C_6  and  O_8
REMARK    4  A    between atoms: O_8  and  C_9
REMARK    5  A    between atoms: C_9  and  C_10
REMARK    6  A    between atoms: C_10  and  C_11
REMARK    7  A    between atoms: C_10  and  O_13
REMARK    8  A    between atoms: O_13  and  C_14
REMARK    9  A    between atoms: C_14  and  N_15
REMARK                            x       y       z     vdW  Elec       q    Type
REMARK                         _______ _______ _______ _____ _____    ______ ____
ROOT
ATOM      1  O   UNL     1       3.268   7.222  -8.948  0.00  0.00    -0.328 OA
ENDROOT
BRANCH   1   2
ATOM      2  C   UNL     1       3.919   6.055  -8.830  0.00  0.00    +0.258 C 
BRANCH   2   3
ATOM      3  N   UNL     1       5.016   5.856  -9.738  0.00  0.00    -0.268 N 
ATOM      4  C   UNL     1       5.029   5.807 -11.070  0.00  0.00    +0.172 A 
ATOM      5  N   UNL     1       4.039   5.570 -11.950  0.00  0.00    -0.192 NA
ATOM      6  C   UNL     1       4.360   5.188 -13.209  0.00  0.00    +0.261 A 
ATOM      7  N   UNL     1       5.638   4.954 -13.593  0.00  0.00    -0.171 NA
ATOM      8  C   UNL     1       6.645   5.154 -12.711  0.00  0.00    +0.302 A 
ATOM      9  O   UNL     1       7.853   4.976 -13.001  0.00  0.00    -0.263 OA
ATOM     10  N   UNL     1       3.335   4.930 -14.144  0.00  0.00    -0.086 NA
ATOM     11  C   UNL     1       6.335   5.607 -11.434  0.00  0.00    +0.175 A 
ATOM     12  N   UNL     1       7.066   5.713 -10.307  0.00  0.00    -0.217 NA
ATOM     13  C   UNL     1       6.224   5.400  -9.321  0.00  0.00    +0.182 A 
ENDBRANCH   2   3
ENDBRANCH   1   2
BRANCH   1  14
ATOM     14  C   UNL     1       2.400   7.499  -7.738  0.00  0.00    +0.194 C 
BRANCH  14  15
ATOM     15  C   UNL     1       3.425   6.685  -6.733  0.00  0.00    +0.215 C 
ATOM     16  O   UNL     1       3.537   7.499  -5.609  0.00  0.00    -0.218 OA
ENDBRANCH  14  15
BRANCH  14  17
ATOM     17  C   UNL     1       1.445   6.174  -7.972  0.00  0.00    +0.241 C 
BRANCH  17  18
ATOM     18  O   UNL     1       0.487   6.205  -6.948  0.00  0.00    -0.445 OA
BRANCH  18  19
ATOM     19  C   UNL     1       0.194   5.073  -6.178  0.00  0.00    +0.335 C 
ATOM     20  O   UNL     1       1.049   4.182  -5.986  0.00  0.00    -0.248 OA
BRANCH  19  21
ATOM     21  C   UNL     1      -0.664   5.563  -4.905  0.00  0.00    +0.190 C 
ATOM     22  N   UNL     1       0.228   6.846  -4.697  0.00  0.00    -0.121 NA
BRANCH  21  24
ATOM     23  C   UNL     1      -2.743   5.447  -6.140  0.00  0.00    +0.002 C 
ATOM     24  C   UNL     1      -1.749   6.381  -5.834  0.00  0.00    +0.029 C 
ATOM     25  C   UNL     1      -2.305   7.354  -4.845  0.00  0.00    +0.002 C 
ENDBRANCH  21  24
ENDBRANCH  19  21
ENDBRANCH  18  19
ENDBRANCH  17  18
ENDBRANCH  14  17
ENDBRANCH   1  14
TORSDOF 9
ENDMDL
MODEL 2
REMARK VINA RESULT:      -7.2      2.459      9.100
REMARK  Name = 
REMARK  9 active torsions:
REMARK  status: ('A' for Active; 'I' for Inactive)
REMARK    1  A    between atoms: C_2  and  C_4
REMARK    2  A    between atoms: C_4  and  C_6
REMARK    3  A    between atoms: C_6  and  O_8
REMARK    4  A    between atoms: O_8  and  C_9
REMARK    5  A    between atoms: C_9  and  C_10
REMARK    6  A    between atoms: C_10  and  C_11
REMARK    7  A    between atoms: C_10  and  O_13
REMARK    8  A    between atoms: O_13  and  C_14
REMARK    9  A    between atoms: C_14  and  N_15
REMARK                            x       y       z     vdW  Elec       q    Type
REMARK                         _______ _______ _______ _____ _____    ______ ____
ROOT
ATOM      1  O   UNL     1       2.265   5.486  -6.498  0.00  0.00    -0.328 OA
ENDROOT
BRANCH   1   2
ATOM      2  C   UNL     1       1.536   6.528  -6.072  0.00  0.00    +0.258 C 
BRANCH   2   3
ATOM      3  N   UNL     1       0.374   6.201  -5.291  0.00  0.00    -0.268 N 
ATOM      4  C   UNL     1       0.238   6.061  -3.973  0.00  0.00    +0.172 A 
ATOM      5  N   UNL     1       1.154   5.825  -3.015  0.00  0.00    -0.192 NA
ATOM      6  C   UNL     1       0.742   5.340  -1.820  0.00  0.00    +0.261 A 
ATOM      7  N   UNL     1      -0.549   5.003  -1.580  0.00  0.00    -0.171 NA
ATOM      8  C   UNL     1      -1.479   5.200  -2.542  0.00  0.00    +0.302 A 
ATOM      9  O   UNL     1      -2.693   4.930  -2.385  0.00  0.00    -0.263 OA
ATOM     10  N   UNL     1       1.689   5.081  -0.806  0.00  0.00    -0.086 NA
ATOM     11  C   UNL     1      -1.080   5.757  -3.752  0.00  0.00    +0.175 A 
ATOM     12  N   UNL     1      -1.706   5.896  -4.937  0.00  0.00    -0.217 NA
ATOM     13  C   UNL     1      -0.756   5.702  -5.852  0.00  0.00    +0.182 A 
ENDBRANCH   2   3
ENDBRANCH   1   2
BRANCH   1  14
ATOM     14  C   UNL     1       2.700   5.663  -7.938  0.00  0.00    +0.194 C 
BRANCH  14  15
ATOM     15  C   UNL     1       2.537   4.051  -8.255  0.00  0.00    +0.215 C 
ATOM     16  O   UNL     1       2.323   3.467  -7.010  0.00  0.00    -0.218 OA
ENDBRANCH  14  15
BRANCH  14  17
ATOM     17  C   UNL     1       4.307   5.517  -7.595  0.00  0.00    +0.241 C 
BRANCH  17  18
ATOM     18  O   UNL     1       4.909   5.035  -8.766  0.00  0.00    -0.445 OA
BRANCH  18  19
ATOM     19  C   UNL     1       5.999   5.686  -9.356  0.00  0.00    +0.335 C 
ATOM     20  O   UNL     1       7.173   5.377  -9.063  0.00  0.00    -0.248 OA
BRANCH  19  21
ATOM     21  C   UNL     1       5.653   5.888 -10.917  0.00  0.00    +0.190 C 
ATOM     22  N   UNL     1       4.820   7.198 -10.645  0.00  0.00    -0.121 NA
BRANCH  21  24
ATOM     23  C   UNL     1       7.487   6.283 -12.448  0.00  0.00    +0.002 C 
ATOM     24  C   UNL     1       7.031   6.739 -11.208  0.00  0.00    +0.029 C 
ATOM     25  C   UNL     1       6.489   8.121 -11.385  0.00  0.00    +0.002 C 
ENDBRANCH  21  24
ENDBRANCH  19  21
ENDBRANCH  18  19
ENDBRANCH  17  18
ENDBRANCH  14  17
ENDBRANCH   1  14
TORSDOF 9
ENDMDL
MODEL 3
REMARK VINA RESULT:      -7.2      2.958      8.892
REMARK  Name = 
REMARK  9 active torsions:
REMARK  status: ('A' for Active; 'I' for Inactive)
REMARK    1  A    between atoms: C_2  and  C_4
REMARK    2  A    between atoms: C_4  and  C_6
REMARK    3  A    between atoms: C_6  and  O_8
REMARK    4  A    between atoms: O_8  and  C_9
REMARK    5  A    between atoms: C_9  and  C_10
REMARK    6  A    between atoms: C_10  and  C_11
REMARK    7  A    between atoms: C_10  and  O_13
REMARK    8  A    between atoms: O_13  and  C_14
REMARK    9  A    between atoms: C_14  and  N_15
REMARK                            x       y       z     vdW  Elec       q    Type
REMARK                         _______ _______ _______ _____ _____    ______ ____
ROOT
ATOM      1  O   UNL     1       2.905   5.307  -6.963  0.00  0.00    -0.328 OA
ENDROOT
BRANCH   1   2
ATOM      2  C   UNL     1       3.220   5.715  -5.724  0.00  0.00    +0.258 C 
BRANCH   2   3
ATOM      3  N   UNL     1       2.187   5.569  -4.735  0.00  0.00    -0.268 N 
ATOM      4  C   UNL     1       2.243   5.705  -3.410  0.00  0.00    +0.172 A 
ATOM      5  N   UNL     1       3.291   5.661  -2.566  0.00  0.00    -0.192 NA
ATOM      6  C   UNL     1       3.062   5.437  -1.251  0.00  0.00    +0.261 A 
ATOM      7  N   UNL     1       1.825   5.171  -0.764  0.00  0.00    -0.171 NA
ATOM      8  C   UNL     1       0.764   5.177  -1.603  0.00  0.00    +0.302 A 
ATOM      9  O   UNL     1      -0.410   4.958  -1.221  0.00  0.00    -0.263 OA
ATOM     10  N   UNL     1       4.148   5.382  -0.351  0.00  0.00    -0.086 NA
ATOM     11  C   UNL     1       0.976   5.468  -2.945  0.00  0.00    +0.175 A 
ATOM     12  N   UNL     1       0.185   5.367  -4.032  0.00  0.00    -0.217 NA
ATOM     13  C   UNL     1       0.999   4.977  -5.014  0.00  0.00    +0.182 A 
ENDBRANCH   2   3
ENDBRANCH   1   2
BRANCH   1  14
ATOM     14  C   UNL     1       3.391   6.285  -8.012  0.00  0.00    +0.194 C 
BRANCH  14  15
ATOM     15  C   UNL     1       1.908   7.001  -8.127  0.00  0.00    +0.215 C 
ATOM     16  O   UNL     1       2.148   8.350  -7.884  0.00  0.00    -0.218 OA
ENDBRANCH  14  15
BRANCH  14  17
ATOM     17  C   UNL     1       3.089   5.266  -9.273  0.00  0.00    +0.241 C 
BRANCH  17  18
ATOM     18  O   UNL     1       4.333   4.742  -9.650  0.00  0.00    -0.445 OA
BRANCH  18  19
ATOM     19  C   UNL     1       5.491   5.529  -9.662  0.00  0.00    +0.335 C 
ATOM     20  O   UNL     1       6.444   5.290  -8.890  0.00  0.00    -0.248 OA
BRANCH  19  21
ATOM     21  C   UNL     1       5.846   5.843 -11.202  0.00  0.00    +0.190 C 
ATOM     22  N   UNL     1       5.145   7.254 -11.160  0.00  0.00    -0.121 NA
BRANCH  21  24
ATOM     23  C   UNL     1       8.168   6.052 -11.853  0.00  0.00    +0.002 C 
ATOM     24  C   UNL     1       7.316   6.482 -10.832  0.00  0.00    +0.029 C 
ATOM     25  C   UNL     1       7.055   7.942 -11.018  0.00  0.00    +0.002 C 
ENDBRANCH  21  24
ENDBRANCH  19  21
ENDBRANCH  18  19
ENDBRANCH  17  18
ENDBRANCH  14  17
ENDBRANCH   1  14
TORSDOF 9
ENDMDL
MODEL 4
REMARK VINA RESULT:      -7.0      2.506      8.686
REMARK  Name = 
REMARK  9 active torsions:
REMARK  status: ('A' for Active; 'I' for Inactive)
REMARK    1  A    between atoms: C_2  and  C_4
REMARK    2  A    between atoms: C_4  and  C_6
REMARK    3  A    between atoms: C_6  and  O_8
REMARK    4  A    between atoms: O_8  and  C_9
REMARK    5  A    between atoms: C_9  and  C_10
REMARK    6  A    between atoms: C_10  and  C_11
REMARK    7  A    between atoms: C_10  and  O_13
REMARK    8  A    between atoms: O_13  and  C_14
REMARK    9  A    between atoms: C_14  and  N_15
REMARK                            x       y       z     vdW  Elec       q    Type
REMARK                         _______ _______ _______ _____ _____    ______ ____
ROOT
ATOM      1  O   UNL     1       1.167   5.992  -7.156  0.00  0.00    -0.328 OA
ENDROOT
BRANCH   1   2
ATOM      2  C   UNL     1       1.004   6.866  -6.152  0.00  0.00    +0.258 C 
BRANCH   2   3
ATOM      3  N   UNL     1       1.345   6.384  -4.840  0.00  0.00    -0.268 N 
ATOM      4  C   UNL     1       0.608   5.714  -3.955  0.00  0.00    +0.172 A 
ATOM      5  N   UNL     1      -0.727   5.592  -3.836  0.00  0.00    -0.192 NA
ATOM      6  C   UNL     1      -1.245   5.192  -2.651  0.00  0.00    +0.261 A 
ATOM      7  N   UNL     1      -0.475   4.991  -1.553  0.00  0.00    -0.171 NA
ATOM      8  C   UNL     1       0.866   5.142  -1.644  0.00  0.00    +0.302 A 
ATOM      9  O   UNL     1       1.642   4.955  -0.677  0.00  0.00    -0.263 OA
ATOM     10  N   UNL     1      -2.643   5.063  -2.505  0.00  0.00    -0.086 NA
ATOM     11  C   UNL     1       1.417   5.491  -2.872  0.00  0.00    +0.175 A 
ATOM     12  N   UNL     1       2.653   5.892  -3.230  0.00  0.00    -0.217 NA
ATOM     13  C   UNL     1       2.454   6.805  -4.183  0.00  0.00    +0.182 A 
ENDBRANCH   2   3
ENDBRANCH   1   2
BRANCH   1  14
ATOM     14  C   UNL     1       2.324   6.383  -8.052  0.00  0.00    +0.194 C 
BRANCH  14  15
ATOM     15  C   UNL     1       1.392   6.280  -9.411  0.00  0.00    +0.215 C 
ATOM     16  O   UNL     1       0.447   5.301  -9.117  0.00  0.00    -0.218 OA
ENDBRANCH  14  15
BRANCH  14  17
ATOM     17  C   UNL     1       2.876   4.837  -8.213  0.00  0.00    +0.241 C 
BRANCH  17  18
ATOM     18  O   UNL     1       3.733   4.849  -9.323  0.00  0.00    -0.445 OA
BRANCH  18  19
ATOM     19  C   UNL     1       4.982   5.480  -9.282  0.00  0.00    +0.335 C 
ATOM     20  O   UNL     1       5.848   5.147  -8.447  0.00  0.00    -0.248 OA
BRANCH  19  21
ATOM     21  C   UNL     1       5.465   5.693 -10.805  0.00  0.00    +0.190 C 
ATOM     22  N   UNL     1       4.886   7.158 -10.868  0.00  0.00    -0.121 NA
BRANCH  21  24
ATOM     23  C   UNL     1       7.854   5.490 -11.138  0.00  0.00    +0.002 C 
ATOM     24  C   UNL     1       6.956   6.224 -10.357  0.00  0.00    +0.029 C 
ATOM     25  C   UNL     1       6.930   7.630 -10.865  0.00  0.00    +0.002 C 
ENDBRANCH  21  24
ENDBRANCH  19  21
ENDBRANCH  18  19
ENDBRANCH  17  18
ENDBRANCH  14  17
ENDBRANCH   1  14
TORSDOF 9
ENDMDL
MODEL 5
REMARK VINA RESULT:      -7.0      4.768      7.282
REMARK  Name = 
REMARK  9 active torsions:
REMARK  status: ('A' for Active; 'I' for Inactive)
REMARK    1  A    between atoms: C_2  and  C_4
REMARK    2  A    between atoms: C_4  and  C_6
REMARK    3  A    between atoms: C_6  and  O_8
REMARK    4  A    between atoms: O_8  and  C_9
REMARK    5  A    between atoms: C_9  and  C_10
REMARK    6  A    between atoms: C_10  and  C_11
REMARK    7  A    between atoms: C_10  and  O_13
REMARK    8  A    between atoms: O_13  and  C_14
REMARK    9  A    between atoms: C_14  and  N_15
REMARK                            x       y       z     vdW  Elec       q    Type
REMARK                         _______ _______ _______ _____ _____    ______ ____
ROOT
ATOM      1  O   UNL     1       3.042   5.474  -6.248  0.00  0.00    -0.328 OA
ENDROOT
BRANCH   1   2
ATOM      2  C   UNL     1       4.203   5.375  -5.583  0.00  0.00    +0.258 C 
BRANCH   2   3
ATOM      3  N   UNL     1       4.309   6.167  -4.388  0.00  0.00    -0.268 N 
ATOM      4  C   UNL     1       4.325   5.791  -3.109  0.00  0.00    +0.172 A 
ATOM      5  N   UNL     1       3.900   4.658  -2.521  0.00  0.00    -0.192 NA
ATOM      6  C   UNL     1       3.662   4.662  -1.188  0.00  0.00    +0.261 A 
ATOM      7  N   UNL     1       3.754   5.786  -0.438  0.00  0.00    -0.171 NA
ATOM      8  C   UNL     1       4.146   6.944  -1.018  0.00  0.00    +0.302 A 
ATOM      9  O   UNL     1       4.272   8.018  -0.383  0.00  0.00    -0.263 OA
ATOM     10  N   UNL     1       3.211   3.484  -0.554  0.00  0.00    -0.086 NA
ATOM     11  C   UNL     1       4.455   6.940  -2.373  0.00  0.00    +0.175 A 
ATOM     12  N   UNL     1       4.681   7.934  -3.255  0.00  0.00    -0.217 NA
ATOM     13  C   UNL     1       4.133   7.512  -4.395  0.00  0.00    +0.182 A 
ENDBRANCH   2   3
ENDBRANCH   1   2
BRANCH   1  14
ATOM     14  C   UNL     1       2.405   4.117  -6.462  0.00  0.00    +0.194 C 
BRANCH  14  15
ATOM     15  C   UNL     1       2.131   4.423  -8.061  0.00  0.00    +0.215 C 
ATOM     16  O   UNL     1       3.131   3.723  -8.731  0.00  0.00    -0.218 OA
ENDBRANCH  14  15
BRANCH  14  17
ATOM     17  C   UNL     1       0.898   4.622  -6.021  0.00  0.00    +0.241 C 
BRANCH  17  18
ATOM     18  O   UNL     1       0.910   4.693  -4.621  0.00  0.00    -0.445 OA
BRANCH  18  19
ATOM     19  C   UNL     1       0.284   5.738  -3.931  0.00  0.00    +0.335 C 
ATOM     20  O   UNL     1       0.740   6.900  -3.964  0.00  0.00    -0.248 OA
BRANCH  19  21
ATOM     21  C   UNL     1      -1.306   5.560  -4.124  0.00  0.00    +0.190 C 
ATOM     22  N   UNL     1      -1.533   5.219  -2.602  0.00  0.00    -0.121 NA
BRANCH  21  24
ATOM     23  C   UNL     1      -2.395   7.548  -4.973  0.00  0.00    +0.002 C 
ATOM     24  C   UNL     1      -1.609   7.159  -3.885  0.00  0.00    +0.029 C 
ATOM     25  C   UNL     1      -2.478   7.113  -2.669  0.00  0.00    +0.002 C 
ENDBRANCH  21  24
ENDBRANCH  19  21
ENDBRANCH  18  19
ENDBRANCH  17  18
ENDBRANCH  14  17
ENDBRANCH   1  14
TORSDOF 9
ENDMDL
MODEL 6
REMARK VINA RESULT:      -7.0      2.485      8.105
REMARK  Name = 
REMARK  9 active torsions:
REMARK  status: ('A' for Active; 'I' for Inactive)
REMARK    1  A    between atoms: C_2  and  C_4
REMARK    2  A    between atoms: C_4  and  C_6
REMARK    3  A    between atoms: C_6  and  O_8
REMARK    4  A    between atoms: O_8  and  C_9
REMARK    5  A    between atoms: C_9  and  C_10
REMARK    6  A    between atoms: C_10  and  C_11
REMARK    7  A    between atoms: C_10  and  O_13
REMARK    8  A    between atoms: O_13  and  C_14
REMARK    9  A    between atoms: C_14  and  N_15
REMARK                            x       y       z     vdW  Elec       q    Type
REMARK                         _______ _______ _______ _____ _____    ______ ____
ROOT
ATOM      1  O   UNL     1       2.944   5.057  -9.518  0.00  0.00    -0.328 OA
ENDROOT
BRANCH   1   2
ATOM      2  C   UNL     1       2.144   4.215  -8.849  0.00  0.00    +0.258 C 
BRANCH   2   3
ATOM      3  N   UNL     1       2.031   4.448  -7.434  0.00  0.00    -0.268 N 
ATOM      4  C   UNL     1       0.949   4.637  -6.680  0.00  0.00    +0.172 A 
ATOM      5  N   UNL     1      -0.297   5.022  -7.013  0.00  0.00    -0.192 NA
ATOM      6  C   UNL     1      -1.108   5.517  -6.048  0.00  0.00    +0.261 A 
ATOM      7  N   UNL     1      -0.685   5.719  -4.777  0.00  0.00    -0.171 NA
ATOM      8  C   UNL     1       0.576   5.371  -4.432  0.00  0.00    +0.302 A 
ATOM      9  O   UNL     1       1.030   5.511  -3.271  0.00  0.00    -0.263 OA
ATOM     10  N   UNL     1      -2.417   5.930  -6.379  0.00  0.00    -0.086 NA
ATOM     11  C   UNL     1       1.399   4.802  -5.397  0.00  0.00    +0.175 A 
ATOM     12  N   UNL     1       2.720   4.535  -5.419  0.00  0.00    -0.217 NA
ATOM     13  C   UNL     1       3.100   4.789  -6.672  0.00  0.00    +0.182 A 
ENDBRANCH   2   3
ENDBRANCH   1   2
BRANCH   1  14
ATOM     14  C   UNL     1       2.148   6.099 -10.275  0.00  0.00    +0.194 C 
BRANCH  14  15
ATOM     15  C   UNL     1       0.966   5.012 -10.659  0.00  0.00    +0.215 C 
ATOM     16  O   UNL     1       0.923   5.015 -12.050  0.00  0.00    -0.218 OA
ENDBRANCH  14  15
BRANCH  14  17
ATOM     17  C   UNL     1       2.950   5.853 -11.695  0.00  0.00    +0.241 C 
BRANCH  17  18
ATOM     18  O   UNL     1       4.306   6.073 -11.414  0.00  0.00    -0.445 OA
BRANCH  18  19
ATOM     19  C   UNL     1       5.322   5.505 -12.193  0.00  0.00    +0.335 C 
ATOM     20  O   UNL     1       5.056   4.758 -13.158  0.00  0.00    -0.248 OA
BRANCH  19  21
ATOM     21  C   UNL     1       6.446   6.638 -12.420  0.00  0.00    +0.190 C 
ATOM     22  N   UNL     1       5.922   7.512 -11.218  0.00  0.00    -0.121 NA
BRANCH  21  24
ATOM     23  C   UNL     1       8.733   5.870 -12.215  0.00  0.00    +0.002 C 
ATOM     24  C   UNL     1       7.548   5.866 -11.473  0.00  0.00    +0.029 C 
ATOM     25  C   UNL     1       7.694   6.837 -10.345  0.00  0.00    +0.002 C 
ENDBRANCH  21  24
ENDBRANCH  19  21
ENDBRANCH  18  19
ENDBRANCH  17  18
ENDBRANCH  14  17
ENDBRANCH   1  14
TORSDOF 9
ENDMDL
MODEL 7
REMARK VINA RESULT:      -7.0      4.603      8.290
REMARK  Name = 
REMARK  9 active torsions:
REMARK  status: ('A' for Active; 'I' for Inactive)
REMARK    1  A    between atoms: C_2  and  C_4
REMARK    2  A    between atoms: C_4  and  C_6
REMARK    3  A    between atoms: C_6  and  O_8
REMARK    4  A    between atoms: O_8  and  C_9
REMARK    5  A    between atoms: C_9  and  C_10
REMARK    6  A    between atoms: C_10  and  C_11
REMARK    7  A    between atoms: C_10  and  O_13
REMARK    8  A    between atoms: O_13  and  C_14
REMARK    9  A    between atoms: C_14  and  N_15
REMARK                            x       y       z     vdW  Elec       q    Type
REMARK                         _______ _______ _______ _____ _____    ______ ____
ROOT
ATOM      1  O   UNL     1       1.434   6.913  -6.815  0.00  0.00    -0.328 OA
ENDROOT
BRANCH   1   2
ATOM      2  C   UNL     1       0.798   5.733  -6.781  0.00  0.00    +0.258 C 
BRANCH   2   3
ATOM      3  N   UNL     1      -0.434   5.707  -6.039  0.00  0.00    -0.268 N 
ATOM      4  C   UNL     1      -0.642   5.725  -4.723  0.00  0.00    +0.172 A 
ATOM      5  N   UNL     1       0.176   5.420  -3.699  0.00  0.00    -0.192 NA
ATOM      6  C   UNL     1      -0.364   5.140  -2.490  0.00  0.00    +0.261 A 
ATOM      7  N   UNL     1      -1.703   5.074  -2.291  0.00  0.00    -0.171 NA
ATOM      8  C   UNL     1      -2.543   5.344  -3.317  0.00  0.00    +0.302 A 
ATOM      9  O   UNL     1      -3.791   5.320  -3.203  0.00  0.00    -0.263 OA
ATOM     10  N   UNL     1       0.478   4.813  -1.405  0.00  0.00    -0.086 NA
ATOM     11  C   UNL     1      -2.001   5.695  -4.549  0.00  0.00    +0.175 A 
ATOM     12  N   UNL     1      -2.545   5.829  -5.774  0.00  0.00    -0.217 NA
ATOM     13  C   UNL     1      -1.615   5.372  -6.614  0.00  0.00    +0.182 A 
ENDBRANCH   2   3
ENDBRANCH   1   2
BRANCH   1  14
ATOM     14  C   UNL     1       2.799   6.792  -7.459  0.00  0.00    +0.194 C 
BRANCH  14  15
ATOM     15  C   UNL     1       2.160   6.180  -8.853  0.00  0.00    +0.215 C 
ATOM     16  O   UNL     1       3.213   5.495  -9.453  0.00  0.00    -0.218 OA
ENDBRANCH  14  15
BRANCH  14  17
ATOM     17  C   UNL     1       3.090   5.292  -6.838  0.00  0.00    +0.241 C 
BRANCH  17  18
ATOM     18  O   UNL     1       4.241   5.420  -6.046  0.00  0.00    -0.445 OA
BRANCH  18  19
ATOM     19  C   UNL     1       4.259   5.027  -4.703  0.00  0.00    +0.335 C 
ATOM     20  O   UNL     1       5.256   4.462  -4.207  0.00  0.00    -0.248 OA
BRANCH  19  21
ATOM     21  C   UNL     1       3.572   6.206  -3.845  0.00  0.00    +0.190 C 
ATOM     22  N   UNL     1       3.543   5.340  -2.528  0.00  0.00    -0.121 NA
BRANCH  21  24
ATOM     23  C   UNL     1       5.104   8.038  -4.241  0.00  0.00    +0.002 C 
ATOM     24  C   UNL     1       5.016   6.888  -3.451  0.00  0.00    +0.029 C 
ATOM     25  C   UNL     1       4.765   7.306  -2.037  0.00  0.00    +0.002 C 
ENDBRANCH  21  24
ENDBRANCH  19  21
ENDBRANCH  18  19
ENDBRANCH  17  18
ENDBRANCH  14  17
ENDBRANCH   1  14
TORSDOF 9
ENDMDL
MODEL 8
REMARK VINA RESULT:      -6.8      1.912      3.296
REMARK  Name = 
REMARK  9 active torsions:
REMARK  status: ('A' for Active; 'I' for Inactive)
REMARK    1  A    between atoms: C_2  and  C_4
REMARK    2  A    between atoms: C_4  and  C_6
REMARK    3  A    between atoms: C_6  and  O_8
REMARK    4  A    between atoms: O_8  and  C_9
REMARK    5  A    between atoms: C_9  and  C_10
REMARK    6  A    between atoms: C_10  and  C_11
REMARK    7  A    between atoms: C_10  and  O_13
REMARK    8  A    between atoms: O_13  and  C_14
REMARK    9  A    between atoms: C_14  and  N_15
REMARK                            x       y       z     vdW  Elec       q    Type
REMARK                         _______ _______ _______ _____ _____    ______ ____
ROOT
ATOM      1  O   UNL     1       2.826   5.524  -8.579  0.00  0.00    -0.328 OA
ENDROOT
BRANCH   1   2
ATOM      2  C   UNL     1       3.608   6.535  -8.986  0.00  0.00    +0.258 C 
BRANCH   2   3
ATOM      3  N   UNL     1       4.731   6.167  -9.805  0.00  0.00    -0.268 N 
ATOM      4  C   UNL     1       4.818   6.026 -11.127  0.00  0.00    +0.172 A 
ATOM      5  N   UNL     1       3.863   5.827 -12.055  0.00  0.00    -0.192 NA
ATOM      6  C   UNL     1       4.217   5.331 -13.263  0.00  0.00    +0.261 A 
ATOM      7  N   UNL     1       5.486   4.946 -13.547  0.00  0.00    -0.171 NA
ATOM      8  C   UNL     1       6.453   5.106 -12.615  0.00  0.00    +0.302 A 
ATOM      9  O   UNL     1       7.651   4.791 -12.813  0.00  0.00    -0.263 OA
ATOM     10  N   UNL     1       3.229   5.111 -14.247  0.00  0.00    -0.086 NA
ATOM     11  C   UNL     1       6.116   5.674 -11.392  0.00  0.00    +0.175 A 
ATOM     12  N   UNL     1       6.786   5.785 -10.228  0.00  0.00    -0.217 NA
ATOM     13  C   UNL     1       5.859   5.624  -9.282  0.00  0.00    +0.182 A 
ENDBRANCH   2   3
ENDBRANCH   1   2
BRANCH   1  14
ATOM     14  C   UNL     1       2.901   5.332  -7.078  0.00  0.00    +0.194 C 
BRANCH  14  15
ATOM     15  C   UNL     1       1.344   4.786  -7.004  0.00  0.00    +0.215 C 
ATOM     16  O   UNL     1       1.337   3.884  -5.944  0.00  0.00    -0.218 OA
ENDBRANCH  14  15
BRANCH  14  17
ATOM     17  C   UNL     1       2.459   6.885  -6.738  0.00  0.00    +0.241 C 
BRANCH  17  18
ATOM     18  O   UNL     1       2.496   6.998  -5.341  0.00  0.00    -0.445 OA
BRANCH  18  19
ATOM     19  C   UNL     1       3.705   7.037  -4.636  0.00  0.00    +0.335 C 
ATOM     20  O   UNL     1       4.570   7.904  -4.882  0.00  0.00    -0.248 OA
BRANCH  19  21
ATOM     21  C   UNL     1       3.372   6.740  -3.088  0.00  0.00    +0.190 C 
ATOM     22  N   UNL     1       1.828   6.588  -3.367  0.00  0.00    -0.121 NA
BRANCH  21  24
ATOM     23  C   UNL     1       4.878   5.013  -3.869  0.00  0.00    +0.002 C 
ATOM     24  C   UNL     1       3.632   5.123  -3.245  0.00  0.00    +0.029 C 
ATOM     25  C   UNL     1       3.783   4.711  -1.815  0.00  0.00    +0.002 C 
ENDBRANCH  21  24
ENDBRANCH  19  21
ENDBRANCH  18  19
ENDBRANCH  17  18
ENDBRANCH  14  17
ENDBRANCH   1  14
TORSDOF 9
ENDMDL
MODEL 9
REMARK VINA RESULT:      -6.6      2.456      8.418
REMARK  Name = 
REMARK  9 active torsions:
REMARK  status: ('A' for Active; 'I' for Inactive)
REMARK    1  A    between atoms: C_2  and  C_4
REMARK    2  A    between atoms: C_4  and  C_6
REMARK    3  A    between atoms: C_6  and  O_8
REMARK    4  A    between atoms: O_8  and  C_9
REMARK    5  A    between atoms: C_9  and  C_10
REMARK    6  A    between atoms: C_10  and  C_11
REMARK    7  A    between atoms: C_10  and  O_13
REMARK    8  A    between atoms: O_13  and  C_14
REMARK    9  A    between atoms: C_14  and  N_15
REMARK                            x       y       z     vdW  Elec       q    Type
REMARK                         _______ _______ _______ _____ _____    ______ ____
ROOT
ATOM      1  O   UNL     1       1.231   6.386  -8.503  0.00  0.00    -0.328 OA
ENDROOT
BRANCH   1   2
ATOM      2  C   UNL     1       0.244   5.515  -8.247  0.00  0.00    +0.258 C 
BRANCH   2   3
ATOM      3  N   UNL     1      -0.344   5.603  -6.937  0.00  0.00    -0.268 N 
ATOM      4  C   UNL     1       0.233   5.772  -5.748  0.00  0.00    +0.172 A 
ATOM      5  N   UNL     1       1.501   5.561  -5.348  0.00  0.00    -0.192 NA
ATOM      6  C   UNL     1       1.757   5.431  -4.026  0.00  0.00    +0.261 A 
ATOM      7  N   UNL     1       0.773   5.421  -3.093  0.00  0.00    -0.171 NA
ATOM      8  C   UNL     1      -0.511   5.597  -3.479  0.00  0.00    +0.302 A 
ATOM      9  O   UNL     1      -1.471   5.619  -2.672  0.00  0.00    -0.263 OA
ATOM     10  N   UNL     1       3.080   5.204  -3.588  0.00  0.00    -0.086 NA
ATOM     11  C   UNL     1      -0.782   5.796  -4.828  0.00  0.00    +0.175 A 
ATOM     12  N   UNL     1      -1.932   5.807  -5.530  0.00  0.00    -0.217 NA
ATOM     13  C   UNL     1      -1.628   5.237  -6.697  0.00  0.00    +0.182 A 
ENDBRANCH   2   3
ENDBRANCH   1   2
BRANCH   1  14
ATOM     14  C   UNL     1       2.007   5.998  -9.745  0.00  0.00    +0.194 C 
BRANCH  14  15
ATOM     15  C   UNL     1       0.771   5.057 -10.304  0.00  0.00    +0.215 C 
ATOM     16  O   UNL     1       0.954   5.016 -11.683  0.00  0.00    -0.218 OA
ENDBRANCH  14  15
BRANCH  14  17
ATOM     17  C   UNL     1       2.761   4.722  -9.020  0.00  0.00    +0.241 C 
BRANCH  17  18
ATOM     18  O   UNL     1       3.975   4.555  -9.702  0.00  0.00    -0.445 OA
BRANCH  18  19
ATOM     19  C   UNL     1       5.034   5.459  -9.551  0.00  0.00    +0.335 C 
ATOM     20  O   UNL     1       5.873   5.326  -8.635  0.00  0.00    -0.248 OA
BRANCH  19  21
ATOM     21  C   UNL     1       5.593   5.797 -11.024  0.00  0.00    +0.190 C 
ATOM     22  N   UNL     1       5.159   7.309 -10.929  0.00  0.00    -0.121 NA
BRANCH  21  24
ATOM     23  C   UNL     1       7.966   5.433 -11.339  0.00  0.00    +0.002 C 
ATOM     24  C   UNL     1       7.110   6.123 -10.476  0.00  0.00    +0.029 C 
ATOM     25  C   UNL     1       7.219   7.584 -10.773  0.00  0.00    +0.002 C 
ENDBRANCH  21  24
ENDBRANCH  19  21
ENDBRANCH  18  19
ENDBRANCH  17  18
ENDBRANCH  14  17
ENDBRANCH   1  14
TORSDOF 9
ENDMDL
