MODEL 1
REMARK VINA RESULT:      -9.1      0.000      0.000
REMARK  Name = 
REMARK  7 active torsions:
REMARK  status: ('A' for Active; 'I' for Inactive)
REMARK    1  A    between atoms: S_2  and  O_5
REMARK    2  A    between atoms: O_5  and  C_6
REMARK    3  A    between atoms: C_9  and  C_10
REMARK    4  A    between atoms: C_10  and  C_11
REMARK    5  A    between atoms: C_10  and  C_22
REMARK    6  A    between atoms: C_14  and  O_15
REMARK    7  A    between atoms: O_15  and  S_16
REMARK                            x       y       z     vdW  Elec       q    Type
REMARK                         _______ _______ _______ _____ _____    ______ ____
ROOT
ATOM      1  C   UNL     1       0.955   5.228  -8.245  0.00  0.00    +0.085 C 
ENDROOT
BRANCH   1   2
ATOM      2  C   UNL     1       2.361   5.358  -7.825  0.00  0.00    +0.067 A 
ATOM      3  N   UNL     1       2.798   4.767  -6.687  0.00  0.00    -0.248 NA
ATOM      4  C   UNL     1       4.007   5.190  -6.244  0.00  0.00    +0.098 A 
ATOM      5  C   UNL     1       4.965   5.580  -7.157  0.00  0.00    +0.021 A 
ATOM      6  C   UNL     1       4.633   5.537  -8.505  0.00  0.00    +0.003 A 
ATOM      7  C   UNL     1       3.301   5.508  -8.836  0.00  0.00    +0.015 A 
ENDBRANCH   1   2
BRANCH   1   8
ATOM      8  C   UNL     1       0.720   5.531  -9.665  0.00  0.00    -0.013 A 
ATOM      9  C   UNL     1       0.392   4.457 -10.484  0.00  0.00    -0.000 A 
ATOM     10  C   UNL     1       0.166   4.677 -11.837  0.00  0.00    +0.039 A 
ATOM     11  C   UNL     1       0.468   5.918 -12.383  0.00  0.00    +0.171 A 
ATOM     12  C   UNL     1       0.416   6.985 -11.502  0.00  0.00    +0.039 A 
ATOM     13  C   UNL     1       0.307   6.772 -10.133  0.00  0.00    -0.000 A 
BRANCH  11  14
ATOM     14  O   UNL     1       0.969   6.046 -13.681  0.00  0.00    -0.359 OA
BRANCH  14  15
ATOM     15  S   UNL     1       2.554   5.497 -13.980  0.00  0.00    +0.042 S 
ATOM     16  O   UNL     1       3.473   5.551 -12.565  0.00  0.00    -0.259 OA
ATOM     17  O   UNL     1       3.259   6.318 -15.006  0.00  0.00    -0.336 OA
ATOM     18  O   UNL     1       2.506   4.086 -14.474  0.00  0.00    -0.336 OA
ENDBRANCH  14  15
ENDBRANCH  11  14
ENDBRANCH   1   8
BRANCH   1  22
ATOM     19  C   UNL     1      -1.615   6.292  -5.053  0.00  0.00    +0.171 A 
ATOM     20  C   UNL     1      -0.317   6.780  -5.155  0.00  0.00    +0.039 A 
ATOM     21  C   UNL     1       0.418   6.676  -6.322  0.00  0.00    -0.000 A 
ATOM     22  C   UNL     1      -0.006   5.851  -7.325  0.00  0.00    -0.013 A 
ATOM     23  C   UNL     1      -1.238   5.220  -7.190  0.00  0.00    -0.000 A 
ATOM     24  C   UNL     1      -1.992   5.395  -6.035  0.00  0.00    +0.039 A 
BRANCH  19  25
ATOM     25  O   UNL     1      -2.558   7.009  -4.311  0.00  0.00    -0.359 OA
BRANCH  25  27
ATOM     26  O   UNL     1      -4.369   6.616  -2.526  0.00  0.00    -0.336 OA
ATOM     27  S   UNL     1      -2.875   6.488  -2.713  0.00  0.00    +0.042 S 
ATOM     28  O   UNL     1      -2.506   4.860  -2.631  0.00  0.00    -0.259 OA
ATOM     29  O   UNL     1      -2.107   7.285  -1.718  0.00  0.00    -0.336 OA
ENDBRANCH  25  27
ENDBRANCH  19  25
ENDBRANCH   1  22
TORSDOF 7
ENDMDL
MODEL 2
REMARK VINA RESULT:      -9.1      2.769      8.638
REMARK  Name = 
REMARK  7 active torsions:
REMARK  status: ('A' for Active; 'I' for Inactive)
REMARK    1  A    between atoms: S_2  and  O_5
REMARK    2  A    between atoms: O_5  and  C_6
REMARK    3  A    between atoms: C_9  and  C_10
REMARK    4  A    between atoms: C_10  and  C_11
REMARK    5  A    between atoms: C_10  and  C_22
REMARK    6  A    between atoms: C_14  and  O_15
REMARK    7  A    between atoms: O_15  and  S_16
REMARK                            x       y       z     vdW  Elec       q    Type
REMARK                         _______ _______ _______ _____ _____    ______ ____
ROOT
ATOM      1  C   UNL     1       2.968   6.835  -6.576  0.00  0.00    +0.085 C 
ENDROOT
BRANCH   1   2
ATOM      2  C   UNL     1       3.848   6.684  -5.404  0.00  0.00    +0.067 A 
ATOM      3  N   UNL     1       4.443   7.765  -4.844  0.00  0.00    -0.248 NA
ATOM      4  C   UNL     1       5.448   7.488  -3.979  0.00  0.00    +0.098 A 
ATOM      5  C   UNL     1       5.389   6.339  -3.217  0.00  0.00    +0.021 A 
ATOM      6  C   UNL     1       4.294   5.501  -3.390  0.00  0.00    +0.003 A 
ATOM      7  C   UNL     1       3.566   5.630  -4.546  0.00  0.00    +0.015 A 
ENDBRANCH   1   2
BRANCH   1   8
ATOM      8  C   UNL     1       1.563   6.484  -6.323  0.00  0.00    -0.013 A 
ATOM      9  C   UNL     1       0.754   7.490  -5.808  0.00  0.00    -0.000 A 
ATOM     10  C   UNL     1      -0.582   7.220  -5.540  0.00  0.00    +0.039 A 
ATOM     11  C   UNL     1      -1.033   5.907  -5.598  0.00  0.00    +0.171 A 
ATOM     12  C   UNL     1      -0.326   5.071  -6.444  0.00  0.00    +0.039 A 
ATOM     13  C   UNL     1       0.885   5.474  -6.994  0.00  0.00    -0.000 A 
BRANCH  11  14
ATOM     14  O   UNL     1      -2.012   5.429  -4.722  0.00  0.00    -0.359 OA
BRANCH  14  15
ATOM     15  S   UNL     1      -1.711   5.550  -3.050  0.00  0.00    +0.042 S 
ATOM     16  O   UNL     1      -1.823   7.157  -2.545  0.00  0.00    -0.259 OA
ATOM     17  O   UNL     1      -0.355   5.055  -2.676  0.00  0.00    -0.336 OA
ATOM     18  O   UNL     1      -2.720   4.736  -2.303  0.00  0.00    -0.336 OA
ENDBRANCH  14  15
ENDBRANCH  11  14
ENDBRANCH   1   8
BRANCH   1  22
ATOM     19  C   UNL     1       5.158   5.925 -10.085  0.00  0.00    +0.171 A 
ATOM     20  C   UNL     1       5.452   5.346  -8.855  0.00  0.00    +0.039 A 
ATOM     21  C   UNL     1       4.578   5.409  -7.785  0.00  0.00    -0.000 A 
ATOM     22  C   UNL     1       3.520   6.273  -7.817  0.00  0.00    -0.013 A 
ATOM     23  C   UNL     1       3.283   6.990  -8.984  0.00  0.00    -0.000 A 
ATOM     24  C   UNL     1       4.137   6.858 -10.073  0.00  0.00    +0.039 A 
BRANCH  19  25
ATOM     25  O   UNL     1       5.543   5.270 -11.258  0.00  0.00    -0.359 OA
BRANCH  25  27
ATOM     26  O   UNL     1       7.614   4.589 -12.624  0.00  0.00    -0.336 OA
ATOM     27  S   UNL     1       6.956   5.822 -12.048  0.00  0.00    +0.042 S 
ATOM     28  O   UNL     1       6.476   6.770 -13.337  0.00  0.00    -0.259 OA
ATOM     29  O   UNL     1       7.849   6.560 -11.114  0.00  0.00    -0.336 OA
ENDBRANCH  25  27
ENDBRANCH  19  25
ENDBRANCH   1  22
TORSDOF 7
ENDMDL
MODEL 3
REMARK VINA RESULT:      -8.8      3.073      9.508
REMARK  Name = 
REMARK  7 active torsions:
REMARK  status: ('A' for Active; 'I' for Inactive)
REMARK    1  A    between atoms: S_2  and  O_5
REMARK    2  A    between atoms: O_5  and  C_6
REMARK    3  A    between atoms: C_9  and  C_10
REMARK    4  A    between atoms: C_10  and  C_11
REMARK    5  A    between atoms: C_10  and  C_22
REMARK    6  A    between atoms: C_14  and  O_15
REMARK    7  A    between atoms: O_15  and  S_16
REMARK                            x       y       z     vdW  Elec       q    Type
REMARK                         _______ _______ _______ _____ _____    ______ ____
ROOT
ATOM      1  C   UNL     1       3.378   5.335  -6.939  0.00  0.00    +0.085 C 
ENDROOT
BRANCH   1   2
ATOM      2  C   UNL     1       1.928   5.424  -7.188  0.00  0.00    +0.067 A 
ATOM      3  N   UNL     1       1.387   4.894  -8.311  0.00  0.00    -0.248 NA
ATOM      4  C   UNL     1       0.119   5.288  -8.583  0.00  0.00    +0.098 A 
ATOM      5  C   UNL     1      -0.743   5.564  -7.542  0.00  0.00    +0.021 A 
ATOM      6  C   UNL     1      -0.256   5.442  -6.246  0.00  0.00    +0.003 A 
ATOM      7  C   UNL     1       1.106   5.455  -6.070  0.00  0.00    +0.015 A 
ENDBRANCH   1   2
BRANCH   1   8
ATOM      8  C   UNL     1       3.791   5.813  -5.611  0.00  0.00    -0.013 A 
ATOM      9  C   UNL     1       4.315   4.862  -4.743  0.00  0.00    -0.000 A 
ATOM     10  C   UNL     1       4.716   5.249  -3.470  0.00  0.00    +0.039 A 
ATOM     11  C   UNL     1       4.402   6.525  -3.019  0.00  0.00    +0.171 A 
ATOM     12  C   UNL     1       4.245   7.484  -4.004  0.00  0.00    +0.039 A 
ATOM     13  C   UNL     1       4.171   7.122  -5.344  0.00  0.00    -0.000 A 
BRANCH  11  14
ATOM     14  O   UNL     1       4.085   6.771  -1.680  0.00  0.00    -0.359 OA
BRANCH  14  15
ATOM     15  S   UNL     1       2.619   6.144  -1.081  0.00  0.00    +0.042 S 
ATOM     16  O   UNL     1       2.170   6.947   0.335  0.00  0.00    -0.259 OA
ATOM     17  O   UNL     1       2.706   4.689  -0.765  0.00  0.00    -0.336 OA
ATOM     18  O   UNL     1       1.545   6.330  -2.105  0.00  0.00    -0.336 OA
ENDBRANCH  14  15
ENDBRANCH  11  14
ENDBRANCH   1   8
BRANCH   1  22
ATOM     19  C   UNL     1       5.518   5.954 -10.540  0.00  0.00    +0.171 A 
ATOM     20  C   UNL     1       4.235   6.454 -10.343  0.00  0.00    +0.039 A 
ATOM     21  C   UNL     1       3.652   6.510  -9.090  0.00  0.00    -0.000 A 
ATOM     22  C   UNL     1       4.209   5.826  -8.046  0.00  0.00    -0.013 A 
ATOM     23  C   UNL     1       5.423   5.180  -8.248  0.00  0.00    -0.000 A 
ATOM     24  C   UNL     1       6.025   5.196  -9.501  0.00  0.00    +0.039 A 
BRANCH  19  25
ATOM     25  O   UNL     1       6.351   6.563 -11.482  0.00  0.00    -0.359 OA
BRANCH  25  27
ATOM     26  O   UNL     1       7.768   4.646 -12.453  0.00  0.00    -0.336 OA
ATOM     27  S   UNL     1       6.745   5.671 -12.887  0.00  0.00    +0.042 S 
ATOM     28  O   UNL     1       5.376   4.834 -13.354  0.00  0.00    -0.259 OA
ATOM     29  O   UNL     1       7.252   6.557 -13.970  0.00  0.00    -0.336 OA
ENDBRANCH  25  27
ENDBRANCH  19  25
ENDBRANCH   1  22
TORSDOF 7
ENDMDL
MODEL 4
REMARK VINA RESULT:      -8.6      3.153      8.812
REMARK  Name = 
REMARK  7 active torsions:
REMARK  status: ('A' for Active; 'I' for Inactive)
REMARK    1  A    between atoms: S_2  and  O_5
REMARK    2  A    between atoms: O_5  and  C_6
REMARK    3  A    between atoms: C_9  and  C_10
REMARK    4  A    between atoms: C_10  and  C_11
REMARK    5  A    between atoms: C_10  and  C_22
REMARK    6  A    between atoms: C_14  and  O_15
REMARK    7  A    between atoms: O_15  and  S_16
REMARK                            x       y       z     vdW  Elec       q    Type
REMARK                         _______ _______ _______ _____ _____    ______ ____
ROOT
ATOM      1  C   UNL     1       2.607   5.295  -9.715  0.00  0.00    +0.085 C 
ENDROOT
BRANCH   1   2
ATOM      2  C   UNL     1       1.659   5.937 -10.641  0.00  0.00    +0.067 A 
ATOM      3  N   UNL     1       1.488   5.456 -11.896  0.00  0.00    -0.248 NA
ATOM      4  C   UNL     1       0.833   6.283 -12.747  0.00  0.00    +0.098 A 
ATOM      5  C   UNL     1      -0.147   7.122 -12.258  0.00  0.00    +0.021 A 
ATOM      6  C   UNL     1      -0.405   7.092 -10.893  0.00  0.00    +0.003 A 
ATOM      7  C   UNL     1       0.558   6.561 -10.071  0.00  0.00    +0.015 A 
ENDBRANCH   1   2
BRANCH   1   8
ATOM      8  C   UNL     1       2.310   5.526  -8.293  0.00  0.00    -0.013 A 
ATOM      9  C   UNL     1       2.114   4.397  -7.507  0.00  0.00    -0.000 A 
ATOM     10  C   UNL     1       1.821   4.549  -6.157  0.00  0.00    +0.039 A 
ATOM     11  C   UNL     1       1.531   5.814  -5.664  0.00  0.00    +0.171 A 
ATOM     12  C   UNL     1       2.095   6.869  -6.361  0.00  0.00    +0.039 A 
ATOM     13  C   UNL     1       2.699   6.664  -7.596  0.00  0.00    -0.000 A 
BRANCH  11  14
ATOM     14  O   UNL     1       0.588   6.008  -4.652  0.00  0.00    -0.359 OA
BRANCH  14  15
ATOM     15  S   UNL     1      -1.019   6.338  -5.114  0.00  0.00    +0.042 S 
ATOM     16  O   UNL     1      -2.101   5.517  -4.111  0.00  0.00    -0.259 OA
ATOM     17  O   UNL     1      -1.305   5.925  -6.518  0.00  0.00    -0.336 OA
ATOM     18  O   UNL     1      -1.276   7.807  -5.004  0.00  0.00    -0.336 OA
ENDBRANCH  14  15
ENDBRANCH  11  14
ENDBRANCH   1   8
BRANCH   1  22
ATOM     19  C   UNL     1       6.631   6.539 -10.158  0.00  0.00    +0.171 A 
ATOM     20  C   UNL     1       6.256   5.543  -9.263  0.00  0.00    +0.039 A 
ATOM     21  C   UNL     1       5.015   4.935  -9.317  0.00  0.00    -0.000 A 
ATOM     22  C   UNL     1       4.019   5.480 -10.077  0.00  0.00    -0.013 A 
ATOM     23  C   UNL     1       4.319   6.580 -10.874  0.00  0.00    -0.000 A 
ATOM     24  C   UNL     1       5.594   7.132 -10.855  0.00  0.00    +0.039 A 
BRANCH  19  25
ATOM     25  O   UNL     1       7.948   6.578 -10.624  0.00  0.00    -0.359 OA
BRANCH  25  27
ATOM     26  O   UNL     1       7.627   6.805 -13.167  0.00  0.00    -0.336 OA
ATOM     27  S   UNL     1       8.269   5.885 -12.155  0.00  0.00    +0.042 S 
ATOM     28  O   UNL     1       9.920   5.956 -12.404  0.00  0.00    -0.259 OA
ATOM     29  O   UNL     1       7.751   4.493 -12.242  0.00  0.00    -0.336 OA
ENDBRANCH  25  27
ENDBRANCH  19  25
ENDBRANCH   1  22
TORSDOF 7
ENDMDL
MODEL 5
REMARK VINA RESULT:      -8.6      3.609      9.122
REMARK  Name = 
REMARK  7 active torsions:
REMARK  status: ('A' for Active; 'I' for Inactive)
REMARK    1  A    between atoms: S_2  and  O_5
REMARK    2  A    between atoms: O_5  and  C_6
REMARK    3  A    between atoms: C_9  and  C_10
REMARK    4  A    between atoms: C_10  and  C_11
REMARK    5  A    between atoms: C_10  and  C_22
REMARK    6  A    between atoms: C_14  and  O_15
REMARK    7  A    between atoms: O_15  and  S_16
REMARK                            x       y       z     vdW  Elec       q    Type
REMARK                         _______ _______ _______ _____ _____    ______ ____
ROOT
ATOM      1  C   UNL     1       1.842   5.199  -6.168  0.00  0.00    +0.085 C 
ENDROOT
BRANCH   1   2
ATOM      2  C   UNL     1       0.459   5.653  -5.940  0.00  0.00    +0.067 A 
ATOM      3  N   UNL     1       0.210   6.911  -5.501  0.00  0.00    -0.248 NA
ATOM      4  C   UNL     1      -1.048   7.124  -5.044  0.00  0.00    +0.098 A 
ATOM      5  C   UNL     1      -2.101   6.437  -5.612  0.00  0.00    +0.021 A 
ATOM      6  C   UNL     1      -1.815   5.533  -6.627  0.00  0.00    +0.003 A 
ATOM      7  C   UNL     1      -0.524   5.077  -6.733  0.00  0.00    +0.015 A 
ENDBRANCH   1   2
BRANCH   1   8
ATOM      8  C   UNL     1       2.815   5.721  -5.198  0.00  0.00    -0.013 A 
ATOM      9  C   UNL     1       3.730   4.811  -4.682  0.00  0.00    -0.000 A 
ATOM     10  C   UNL     1       4.671   5.240  -3.754  0.00  0.00    +0.039 A 
ATOM     11  C   UNL     1       4.553   6.513  -3.210  0.00  0.00    +0.171 A 
ATOM     12  C   UNL     1       3.905   7.444  -4.003  0.00  0.00    +0.039 A 
ATOM     13  C   UNL     1       3.220   7.049  -5.146  0.00  0.00    -0.000 A 
BRANCH  11  14
ATOM     14  O   UNL     1       4.901   6.776  -1.882  0.00  0.00    -0.359 OA
BRANCH  14  15
ATOM     15  S   UNL     1       4.103   5.896  -0.661  0.00  0.00    +0.042 S 
ATOM     16  O   UNL     1       4.342   6.624   0.843  0.00  0.00    -0.259 OA
ATOM     17  O   UNL     1       4.586   4.489  -0.562  0.00  0.00    -0.336 OA
ATOM     18  O   UNL     1       2.636   5.859  -0.954  0.00  0.00    -0.336 OA
ENDBRANCH  14  15
ENDBRANCH  11  14
ENDBRANCH   1   8
BRANCH   1  22
ATOM     19  C   UNL     1       3.931   5.612  -9.828  0.00  0.00    +0.171 A 
ATOM     20  C   UNL     1       3.732   4.377  -9.222  0.00  0.00    +0.039 A 
ATOM     21  C   UNL     1       2.818   4.197  -8.200  0.00  0.00    -0.000 A 
ATOM     22  C   UNL     1       2.278   5.282  -7.569  0.00  0.00    -0.013 A 
ATOM     23  C   UNL     1       2.578   6.550  -8.054  0.00  0.00    -0.000 A 
ATOM     24  C   UNL     1       3.447   6.702  -9.128  0.00  0.00    +0.039 A 
BRANCH  19  25
ATOM     25  O   UNL     1       4.168   5.668 -11.205  0.00  0.00    -0.359 OA
BRANCH  25  27
ATOM     26  O   UNL     1       6.658   5.495 -10.579  0.00  0.00    -0.336 OA
ATOM     27  S   UNL     1       5.775   5.937 -11.724  0.00  0.00    +0.042 S 
ATOM     28  O   UNL     1       6.072   4.902 -13.002  0.00  0.00    -0.259 OA
ATOM     29  O   UNL     1       5.996   7.361 -12.096  0.00  0.00    -0.336 OA
ENDBRANCH  25  27
ENDBRANCH  19  25
ENDBRANCH   1  22
TORSDOF 7
ENDMDL
MODEL 6
REMARK VINA RESULT:      -8.4      2.169      2.864
REMARK  Name = 
REMARK  7 active torsions:
REMARK  status: ('A' for Active; 'I' for Inactive)
REMARK    1  A    between atoms: S_2  and  O_5
REMARK    2  A    between atoms: O_5  and  C_6
REMARK    3  A    between atoms: C_9  and  C_10
REMARK    4  A    between atoms: C_10  and  C_11
REMARK    5  A    between atoms: C_10  and  C_22
REMARK    6  A    between atoms: C_14  and  O_15
REMARK    7  A    between atoms: O_15  and  S_16
REMARK                            x       y       z     vdW  Elec       q    Type
REMARK                         _______ _______ _______ _____ _____    ______ ____
ROOT
ATOM      1  C   UNL     1       2.004   5.164  -6.053  0.00  0.00    +0.085 C 
ENDROOT
BRANCH   1   2
ATOM      2  C   UNL     1       3.124   5.598  -5.200  0.00  0.00    +0.067 A 
ATOM      3  N   UNL     1       3.770   4.711  -4.406  0.00  0.00    -0.248 NA
ATOM      4  C   UNL     1       4.568   5.259  -3.458  0.00  0.00    +0.098 A 
ATOM      5  C   UNL     1       5.210   6.452  -3.718  0.00  0.00    +0.021 A 
ATOM      6  C   UNL     1       4.990   7.052  -4.952  0.00  0.00    +0.003 A 
ATOM      7  C   UNL     1       3.878   6.669  -5.661  0.00  0.00    +0.015 A 
ENDBRANCH   1   2
BRANCH   1   8
ATOM      8  C   UNL     1       2.170   5.491  -7.477  0.00  0.00    -0.013 A 
ATOM      9  C   UNL     1       2.323   4.419  -8.348  0.00  0.00    -0.000 A 
ATOM     10  C   UNL     1       2.492   4.663  -9.706  0.00  0.00    +0.039 A 
ATOM     11  C   UNL     1       2.708   5.964 -10.139  0.00  0.00    +0.171 A 
ATOM     12  C   UNL     1       2.183   6.957  -9.330  0.00  0.00    +0.039 A 
ATOM     13  C   UNL     1       1.695   6.658  -8.063  0.00  0.00    -0.000 A 
BRANCH  11  14
ATOM     14  O   UNL     1       3.554   6.248 -11.215  0.00  0.00    -0.359 OA
BRANCH  14  15
ATOM     15  S   UNL     1       5.219   6.415 -10.894  0.00  0.00    +0.042 S 
ATOM     16  O   UNL     1       5.577   5.868  -9.338  0.00  0.00    -0.259 OA
ATOM     17  O   UNL     1       5.681   7.830 -10.992  0.00  0.00    -0.336 OA
ATOM     18  O   UNL     1       5.998   5.607 -11.884  0.00  0.00    -0.336 OA
ENDBRANCH  14  15
ENDBRANCH  11  14
ENDBRANCH   1   8
BRANCH   1  22
ATOM     19  C   UNL     1      -1.808   6.755  -5.121  0.00  0.00    +0.171 A 
ATOM     20  C   UNL     1      -1.642   5.696  -6.007  0.00  0.00    +0.039 A 
ATOM     21  C   UNL     1      -0.456   4.989  -6.094  0.00  0.00    -0.000 A 
ATOM     22  C   UNL     1       0.676   5.481  -5.509  0.00  0.00    -0.013 A 
ATOM     23  C   UNL     1       0.578   6.633  -4.737  0.00  0.00    -0.000 A 
ATOM     24  C   UNL     1      -0.640   7.288  -4.607  0.00  0.00    +0.039 A 
BRANCH  19  25
ATOM     25  O   UNL     1      -3.038   6.923  -4.480  0.00  0.00    -0.359 OA
BRANCH  25  27
ATOM     26  O   UNL     1      -4.624   6.525  -2.492  0.00  0.00    -0.336 OA
ATOM     27  S   UNL     1      -3.159   6.420  -2.849  0.00  0.00    +0.042 S 
ATOM     28  O   UNL     1      -2.753   4.800  -2.790  0.00  0.00    -0.259 OA
ATOM     29  O   UNL     1      -2.295   7.244  -1.960  0.00  0.00    -0.336 OA
ENDBRANCH  25  27
ENDBRANCH  19  25
ENDBRANCH   1  22
TORSDOF 7
ENDMDL
MODEL 7
REMARK VINA RESULT:      -8.4      2.910      8.698
REMARK  Name = 
REMARK  7 active torsions:
REMARK  status: ('A' for Active; 'I' for Inactive)
REMARK    1  A    between atoms: S_2  and  O_5
REMARK    2  A    between atoms: O_5  and  C_6
REMARK    3  A    between atoms: C_9  and  C_10
REMARK    4  A    between atoms: C_10  and  C_11
REMARK    5  A    between atoms: C_10  and  C_22
REMARK    6  A    between atoms: C_14  and  O_15
REMARK    7  A    between atoms: O_15  and  S_16
REMARK                            x       y       z     vdW  Elec       q    Type
REMARK                         _______ _______ _______ _____ _____    ______ ____
ROOT
ATOM      1  C   UNL     1       1.531   5.550  -6.882  0.00  0.00    +0.085 C 
ENDROOT
BRANCH   1   2
ATOM      2  C   UNL     1       0.180   5.934  -6.436  0.00  0.00    +0.067 A 
ATOM      3  N   UNL     1      -0.849   5.056  -6.518  0.00  0.00    -0.248 NA
ATOM      4  C   UNL     1      -2.083   5.597  -6.368  0.00  0.00    +0.098 A 
ATOM      5  C   UNL     1      -2.251   6.685  -5.536  0.00  0.00    +0.021 A 
ATOM      6  C   UNL     1      -1.126   7.192  -4.897  0.00  0.00    +0.003 A 
ATOM      7  C   UNL     1       0.105   6.871  -5.414  0.00  0.00    +0.015 A 
ENDBRANCH   1   2
BRANCH   1   8
ATOM      8  C   UNL     1       2.593   5.850  -5.910  0.00  0.00    -0.013 A 
ATOM      9  C   UNL     1       3.161   4.764  -5.255  0.00  0.00    -0.000 A 
ATOM     10  C   UNL     1       4.164   4.981  -4.319  0.00  0.00    +0.039 A 
ATOM     11  C   UNL     1       4.438   6.279  -3.908  0.00  0.00    +0.171 A 
ATOM     12  C   UNL     1       4.136   7.272  -4.825  0.00  0.00    +0.039 A 
ATOM     13  C   UNL     1       3.392   6.985  -5.963  0.00  0.00    -0.000 A 
BRANCH  11  14
ATOM     14  O   UNL     1       4.816   6.568  -2.593  0.00  0.00    -0.359 OA
BRANCH  14  15
ATOM     15  S   UNL     1       3.583   6.903  -1.467  0.00  0.00    +0.042 S 
ATOM     16  O   UNL     1       3.843   6.047  -0.035  0.00  0.00    -0.259 OA
ATOM     17  O   UNL     1       2.230   6.532  -1.973  0.00  0.00    -0.336 OA
ATOM     18  O   UNL     1       3.574   8.368  -1.161  0.00  0.00    -0.336 OA
ENDBRANCH  14  15
ENDBRANCH  11  14
ENDBRANCH   1   8
BRANCH   1  22
ATOM     19  C   UNL     1       1.926   5.935 -11.080  0.00  0.00    +0.171 A 
ATOM     20  C   UNL     1       0.932   6.593 -10.364  0.00  0.00    +0.039 A 
ATOM     21  C   UNL     1       0.970   6.707  -8.987  0.00  0.00    -0.000 A 
ATOM     22  C   UNL     1       1.842   5.945  -8.262  0.00  0.00    -0.013 A 
ATOM     23  C   UNL     1       2.756   5.151  -8.946  0.00  0.00    -0.000 A 
ATOM     24  C   UNL     1       2.744   5.106 -10.335  0.00  0.00    +0.039 A 
BRANCH  19  25
ATOM     25  O   UNL     1       2.327   6.444 -12.319  0.00  0.00    -0.359 OA
BRANCH  25  27
ATOM     26  O   UNL     1       0.767   4.639 -13.284  0.00  0.00    -0.336 OA
ATOM     27  S   UNL     1       1.874   5.573 -13.719  0.00  0.00    +0.042 S 
ATOM     28  O   UNL     1       1.205   6.661 -14.796  0.00  0.00    -0.259 OA
ATOM     29  O   UNL     1       3.032   4.846 -14.307  0.00  0.00    -0.336 OA
ENDBRANCH  25  27
ENDBRANCH  19  25
ENDBRANCH   1  22
TORSDOF 7
ENDMDL
MODEL 8
REMARK VINA RESULT:      -8.3      2.241      4.203
REMARK  Name = 
REMARK  7 active torsions:
REMARK  status: ('A' for Active; 'I' for Inactive)
REMARK    1  A    between atoms: S_2  and  O_5
REMARK    2  A    between atoms: O_5  and  C_6
REMARK    3  A    between atoms: C_9  and  C_10
REMARK    4  A    between atoms: C_10  and  C_11
REMARK    5  A    between atoms: C_10  and  C_22
REMARK    6  A    between atoms: C_14  and  O_15
REMARK    7  A    between atoms: O_15  and  S_16
REMARK                            x       y       z     vdW  Elec       q    Type
REMARK                         _______ _______ _______ _____ _____    ______ ____
ROOT
ATOM      1  C   UNL     1       1.871   6.628  -8.747  0.00  0.00    +0.085 C 
ENDROOT
BRANCH   1   2
ATOM      2  C   UNL     1       0.972   6.297  -9.867  0.00  0.00    +0.067 A 
ATOM      3  N   UNL     1       0.369   7.277 -10.581  0.00  0.00    -0.248 NA
ATOM      4  C   UNL     1      -0.650   6.869 -11.375  0.00  0.00    +0.098 A 
ATOM      5  C   UNL     1      -0.604   5.615 -11.948  0.00  0.00    +0.021 A 
ATOM      6  C   UNL     1       0.493   4.811 -11.662  0.00  0.00    +0.003 A 
ATOM      7  C   UNL     1       1.240   5.119 -10.552  0.00  0.00    +0.015 A 
ENDBRANCH   1   2
BRANCH   1   8
ATOM      8  C   UNL     1       3.293   6.379  -9.023  0.00  0.00    -0.013 A 
ATOM      9  C   UNL     1       3.919   7.255  -9.901  0.00  0.00    -0.000 A 
ATOM     10  C   UNL     1       5.261   7.069 -10.209  0.00  0.00    +0.039 A 
ATOM     11  C   UNL     1       5.896   5.904  -9.798  0.00  0.00    +0.171 A 
ATOM     12  C   UNL     1       5.367   5.303  -8.668  0.00  0.00    +0.039 A 
ATOM     13  C   UNL     1       4.147   5.719  -8.148  0.00  0.00    -0.000 A 
BRANCH  11  14
ATOM     14  O   UNL     1       6.877   5.288 -10.580  0.00  0.00    -0.359 OA
BRANCH  14  15
ATOM     15  S   UNL     1       6.747   5.425 -12.273  0.00  0.00    +0.042 S 
ATOM     16  O   UNL     1       6.859   7.043 -12.744  0.00  0.00    -0.259 OA
ATOM     17  O   UNL     1       5.453   4.895 -12.792  0.00  0.00    -0.336 OA
ATOM     18  O   UNL     1       7.853   4.654 -12.921  0.00  0.00    -0.336 OA
ENDBRANCH  14  15
ENDBRANCH  11  14
ENDBRANCH   1   8
BRANCH   1  22
ATOM     19  C   UNL     1      -0.106   5.868  -5.080  0.00  0.00    +0.171 A 
ATOM     20  C   UNL     1      -0.409   5.172  -6.246  0.00  0.00    +0.039 A 
ATOM     21  C   UNL     1       0.414   5.204  -7.357  0.00  0.00    -0.000 A 
ATOM     22  C   UNL     1       1.410   6.135  -7.442  0.00  0.00    -0.013 A 
ATOM     23  C   UNL     1       1.644   6.959  -6.347  0.00  0.00    -0.000 A 
ATOM     24  C   UNL     1       0.847   6.861  -5.213  0.00  0.00    +0.039 A 
BRANCH  19  25
ATOM     25  O   UNL     1      -0.397   5.287  -3.843  0.00  0.00    -0.359 OA
BRANCH  25  27
ATOM     26  O   UNL     1      -1.993   7.146  -3.054  0.00  0.00    -0.336 OA
ATOM     27  S   UNL     1      -1.915   5.638  -3.138  0.00  0.00    +0.042 S 
ATOM     28  O   UNL     1      -3.096   5.144  -4.212  0.00  0.00    -0.259 OA
ATOM     29  O   UNL     1      -2.063   4.986  -1.809  0.00  0.00    -0.336 OA
ENDBRANCH  25  27
ENDBRANCH  19  25
ENDBRANCH   1  22
TORSDOF 7
ENDMDL
MODEL 9
REMARK VINA RESULT:      -8.3      3.663      5.352
REMARK  Name = 
REMARK  7 active torsions:
REMARK  status: ('A' for Active; 'I' for Inactive)
REMARK    1  A    between atoms: S_2  and  O_5
REMARK    2  A    between atoms: O_5  and  C_6
REMARK    3  A    between atoms: C_9  and  C_10
REMARK    4  A    between atoms: C_10  and  C_11
REMARK    5  A    between atoms: C_10  and  C_22
REMARK    6  A    between atoms: C_14  and  O_15
REMARK    7  A    between atoms: O_15  and  S_16
REMARK                            x       y       z     vdW  Elec       q    Type
REMARK                         _______ _______ _______ _____ _____    ______ ____
ROOT
ATOM      1  C   UNL     1       2.680   6.799  -6.576  0.00  0.00    +0.085 C 
ENDROOT
BRANCH   1   2
ATOM      2  C   UNL     1       1.294   6.306  -6.650  0.00  0.00    +0.067 A 
ATOM      3  N   UNL     1       0.316   6.884  -5.912  0.00  0.00    -0.248 NA
ATOM      4  C   UNL     1      -0.837   6.176  -5.826  0.00  0.00    +0.098 A 
ATOM      5  C   UNL     1      -1.234   5.394  -6.891  0.00  0.00    +0.021 A 
ATOM      6  C   UNL     1      -0.410   5.354  -8.009  0.00  0.00    +0.003 A 
ATOM      7  C   UNL     1       0.898   5.742  -7.856  0.00  0.00    +0.015 A 
ENDBRANCH   1   2
BRANCH   1   8
ATOM      8  C   UNL     1       3.507   6.449  -7.741  0.00  0.00    -0.013 A 
ATOM      9  C   UNL     1       4.176   5.232  -7.685  0.00  0.00    -0.000 A 
ATOM     10  C   UNL     1       4.980   4.847  -8.751  0.00  0.00    +0.039 A 
ATOM     11  C   UNL     1       5.261   5.765  -9.755  0.00  0.00    +0.171 A 
ATOM     12  C   UNL     1       4.310   6.754  -9.942  0.00  0.00    +0.039 A 
ATOM     13  C   UNL     1       3.283   6.935  -9.023  0.00  0.00    -0.000 A 
BRANCH  11  14
ATOM     14  O   UNL     1       6.502   5.792 -10.397  0.00  0.00    -0.359 OA
BRANCH  14  15
ATOM     15  S   UNL     1       6.533   5.515 -12.078  0.00  0.00    +0.042 S 
ATOM     16  O   UNL     1       6.702   6.972 -12.913  0.00  0.00    -0.259 OA
ATOM     17  O   UNL     1       5.290   4.855 -12.572  0.00  0.00    -0.336 OA
ATOM     18  O   UNL     1       7.690   4.627 -12.413  0.00  0.00    -0.336 OA
ENDBRANCH  14  15
ENDBRANCH  11  14
ENDBRANCH   1   8
BRANCH   1  22
ATOM     19  C   UNL     1       3.933   6.757  -2.531  0.00  0.00    +0.171 A 
ATOM     20  C   UNL     1       3.015   5.841  -3.034  0.00  0.00    +0.039 A 
ATOM     21  C   UNL     1       2.824   5.662  -4.393  0.00  0.00    -0.000 A 
ATOM     22  C   UNL     1       3.331   6.569  -5.279  0.00  0.00    -0.013 A 
ATOM     23  C   UNL     1       4.131   7.597  -4.793  0.00  0.00    -0.000 A 
ATOM     24  C   UNL     1       4.367   7.715  -3.429  0.00  0.00    +0.039 A 
BRANCH  19  25
ATOM     25  O   UNL     1       4.669   6.430  -1.390  0.00  0.00    -0.359 OA
BRANCH  25  27
ATOM     26  O   UNL     1       4.171   8.531   0.010  0.00  0.00    -0.336 OA
ATOM     27  S   UNL     1       4.110   7.024   0.113  0.00  0.00    +0.042 S 
ATOM     28  O   UNL     1       2.499   6.606   0.254  0.00  0.00    -0.259 OA
ATOM     29  O   UNL     1       4.924   6.499   1.244  0.00  0.00    -0.336 OA
ENDBRANCH  25  27
ENDBRANCH  19  25
ENDBRANCH   1  22
TORSDOF 7
ENDMDL
