MODEL 1
REMARK VINA RESULT:      -9.0      0.000      0.000
REMARK  Name = 
REMARK  6 active torsions:
REMARK  status: ('A' for Active; 'I' for Inactive)
REMARK    1  A    between atoms: C_2  and  N_4
REMARK    2  A    between atoms: C_2  and  C_32
REMARK    3  A    between atoms: C_5  and  C_7
REMARK    4  A    between atoms: N_21  and  C_22
REMARK    5  A    between atoms: C_22  and  C_23
REMARK    6  A    between atoms: C_34  and  C_35
REMARK                            x       y       z     vdW  Elec       q    Type
REMARK                         _______ _______ _______ _____ _____    ______ ____
ROOT
ATOM      1  C   UNL     1       0.877   5.990  -2.598  0.00  0.00    +0.074 C 
ATOM      2  C   UNL     1       1.679   6.977  -3.403  0.00  0.00    +0.066 C 
ATOM      3  C   UNL     1       2.782   6.047  -3.826  0.00  0.00    +0.152 C 
ATOM      4  C   UNL     1       3.587   7.050  -4.835  0.00  0.00    +0.091 C 
ATOM      5  N   UNL     1       4.375   5.852  -5.473  0.00  0.00    -0.271 NA
ATOM      6  C   UNL     1       5.325   5.376  -4.609  0.00  0.00    +0.073 C 
ATOM      7  C   UNL     1       4.758   4.694  -3.376  0.00  0.00    +0.028 C 
ATOM      8  C   UNL     1       4.804   7.509  -3.820  0.00  0.00    +0.045 C 
ATOM      9  C   UNL     1       4.125   7.788  -2.507  0.00  0.00    -0.021 A 
ATOM     10  C   UNL     1       4.535   8.777  -1.620  0.00  0.00    -0.001 A 
ATOM     11  C   UNL     1       4.336   8.566  -0.251  0.00  0.00    +0.045 A 
ATOM     12  C   UNL     1       3.887   7.334   0.226  0.00  0.00    +0.229 A 
ATOM     13  C   UNL     1       3.558   6.305  -0.648  0.00  0.00    +0.174 A 
ATOM     14  O   UNL     1       3.549   4.899  -0.592  0.00  0.00    -0.468 OA
ATOM     15  C   UNL     1       2.763   4.525  -1.886  0.00  0.00    +0.232 C 
ATOM     16  O   UNL     1       3.883   7.018   1.588  0.00  0.00    -0.283 OA
ATOM     17  C   UNL     1       4.002   6.557  -1.894  0.00  0.00    +0.017 A 
ATOM     18  O   UNL     1       2.194   5.111  -4.692  0.00  0.00    -0.223 OA
ATOM     19  C   UNL     1       3.667   5.522  -2.832  0.00  0.00    +0.094 C 
ATOM     20  C   UNL     1       1.582   5.603  -1.566  0.00  0.00    +0.214 C 
ATOM     21  O   UNL     1       0.831   5.136  -0.477  0.00  0.00    -0.288 OA
ENDROOT
BRANCH   1  23
ATOM     22  N   UNL     1      -1.493   6.837  -2.902  0.00  0.00    -0.196 NA
ATOM     23  C   UNL     1      -0.518   5.793  -2.873  0.00  0.00    +0.264 C 
ATOM     24  O   UNL     1      -1.038   4.693  -2.494  0.00  0.00    -0.269 OA
BRANCH  22  26
ATOM     25  C   UNL     1      -3.085   7.532  -3.454  0.00  0.00    +0.031 C 
ATOM     26  C   UNL     1      -2.737   6.699  -3.561  0.00  0.00    +0.150 C 
ATOM     27  C   UNL     1      -3.503   5.604  -2.836  0.00  0.00    +0.031 C 
BRANCH  26  28
ATOM     28  C   UNL     1      -2.568   6.287  -4.980  0.00  0.00    +0.254 A 
ATOM     29  O   UNL     1      -2.829   5.072  -5.431  0.00  0.00    -0.335 OA
ATOM     30  N   UNL     1      -1.998   4.770  -6.399  0.00  0.00    -0.056 NA
ATOM     31  C   UNL     1      -1.237   5.855  -6.689  0.00  0.00    +0.203 A 
ATOM     32  N   UNL     1      -1.840   6.838  -5.972  0.00  0.00    -0.189 NA
BRANCH  31  33
ATOM     33  C   UNL     1       0.147   5.841  -7.198  0.00  0.00    +0.039 A 
ATOM     34  C   UNL     1       0.383   5.172  -8.392  0.00  0.00    +0.003 A 
ATOM     35  C   UNL     1       1.358   5.593  -9.289  0.00  0.00    +0.000 A 
ATOM     36  C   UNL     1       1.772   6.919  -9.254  0.00  0.00    +0.000 A 
ATOM     37  C   UNL     1       1.666   7.538  -8.016  0.00  0.00    +0.000 A 
ATOM     38  C   UNL     1       0.986   6.926  -6.974  0.00  0.00    +0.003 A 
ENDBRANCH  31  33
ENDBRANCH  26  28
ENDBRANCH  22  26
ENDBRANCH   1  23
BRANCH   5  39
ATOM     39  C   UNL     1       4.576   6.077  -6.822  0.00  0.00    +0.072 C 
BRANCH  39  40
ATOM     40  C   UNL     1       5.120   4.914  -7.626  0.00  0.00    +0.016 C 
ATOM     41  C   UNL     1       4.825   5.110  -9.140  0.00  0.00    +0.001 C 
ATOM     42  C   UNL     1       6.241   5.346  -8.600  0.00  0.00    +0.001 C 
ENDBRANCH  39  40
ENDBRANCH   5  39
TORSDOF 6
ENDMDL
MODEL 2
REMARK VINA RESULT:      -9.0      2.838      7.518
REMARK  Name = 
REMARK  6 active torsions:
REMARK  status: ('A' for Active; 'I' for Inactive)
REMARK    1  A    between atoms: C_2  and  N_4
REMARK    2  A    between atoms: C_2  and  C_32
REMARK    3  A    between atoms: C_5  and  C_7
REMARK    4  A    between atoms: N_21  and  C_22
REMARK    5  A    between atoms: C_22  and  C_23
REMARK    6  A    between atoms: C_34  and  C_35
REMARK                            x       y       z     vdW  Elec       q    Type
REMARK                         _______ _______ _______ _____ _____    ______ ____
ROOT
ATOM      1  C   UNL     1       3.574   6.473  -4.217  0.00  0.00    +0.074 C 
ATOM      2  C   UNL     1       2.534   7.382  -4.816  0.00  0.00    +0.066 C 
ATOM      3  C   UNL     1       1.419   6.378  -4.915  0.00  0.00    +0.152 C 
ATOM      4  C   UNL     1       0.224   7.376  -5.414  0.00  0.00    +0.091 C 
ATOM      5  N   UNL     1      -0.876   6.317  -5.051  0.00  0.00    -0.271 NA
ATOM      6  C   UNL     1      -0.875   5.283  -5.949  0.00  0.00    +0.073 C 
ATOM      7  C   UNL     1       0.365   4.409  -5.890  0.00  0.00    +0.028 C 
ATOM      8  C   UNL     1       0.252   7.020  -7.025  0.00  0.00    +0.045 C 
ATOM      9  C   UNL     1       1.711   6.993  -7.388  0.00  0.00    -0.021 A 
ATOM     10  C   UNL     1       2.209   7.401  -8.620  0.00  0.00    -0.001 A 
ATOM     11  C   UNL     1       3.357   6.772  -9.114  0.00  0.00    +0.045 A 
ATOM     12  C   UNL     1       3.899   5.660  -8.469  0.00  0.00    +0.229 A 
ATOM     13  C   UNL     1       3.355   5.186  -7.281  0.00  0.00    +0.174 A 
ATOM     14  O   UNL     1       3.276   3.938  -6.635  0.00  0.00    -0.468 OA
ATOM     15  C   UNL     1       2.768   4.337  -5.215  0.00  0.00    +0.232 C 
ATOM     16  O   UNL     1       4.907   4.881  -9.045  0.00  0.00    -0.283 OA
ATOM     17  C   UNL     1       2.145   5.727  -7.044  0.00  0.00    +0.017 A 
ATOM     18  O   UNL     1       1.056   6.065  -3.596  0.00  0.00    -0.223 OA
ATOM     19  C   UNL     1       1.556   5.274  -5.814  0.00  0.00    +0.094 C 
ATOM     20  C   UNL     1       3.869   5.532  -5.078  0.00  0.00    +0.214 C 
ATOM     21  O   UNL     1       5.137   4.956  -4.915  0.00  0.00    -0.288 OA
ENDROOT
BRANCH   1  23
ATOM     22  N   UNL     1       3.589   7.299  -1.821  0.00  0.00    -0.196 NA
ATOM     23  C   UNL     1       4.246   6.840  -3.003  0.00  0.00    +0.264 C 
ATOM     24  O   UNL     1       5.406   7.358  -3.112  0.00  0.00    -0.269 OA
BRANCH  22  26
ATOM     25  C   UNL     1       4.970   7.716  -0.706  0.00  0.00    +0.031 C 
ATOM     26  C   UNL     1       4.200   7.260  -0.546  0.00  0.00    +0.150 C 
ATOM     27  C   UNL     1       4.400   5.794  -0.196  0.00  0.00    +0.031 C 
BRANCH  26  28
ATOM     28  C   UNL     1       3.336   7.873   0.500  0.00  0.00    +0.254 A 
ATOM     29  O   UNL     1       3.069   7.303   1.662  0.00  0.00    -0.335 OA
ATOM     30  N   UNL     1       1.854   7.617   2.043  0.00  0.00    -0.056 NA
ATOM     31  C   UNL     1       1.334   8.519   1.173  0.00  0.00    +0.203 A 
ATOM     32  N   UNL     1       2.409   8.846   0.410  0.00  0.00    -0.189 NA
BRANCH  31  33
ATOM     33  C   UNL     1      -0.090   8.676   0.825  0.00  0.00    +0.039 A 
ATOM     34  C   UNL     1      -0.770   7.547   0.388  0.00  0.00    +0.003 A 
ATOM     35  C   UNL     1      -2.121   7.354   0.655  0.00  0.00    +0.000 A 
ATOM     36  C   UNL     1      -2.689   8.014   1.738  0.00  0.00    +0.000 A 
ATOM     37  C   UNL     1      -2.088   9.217   2.078  0.00  0.00    +0.000 A 
ATOM     38  C   UNL     1      -0.881   9.593   1.508  0.00  0.00    +0.003 A 
ENDBRANCH  31  33
ENDBRANCH  26  28
ENDBRANCH  22  26
ENDBRANCH   1  23
BRANCH   5  39
ATOM     39  C   UNL     1      -2.010   6.950  -4.576  0.00  0.00    +0.072 C 
BRANCH  39  40
ATOM     40  C   UNL     1      -2.212   6.933  -3.074  0.00  0.00    +0.016 C 
ATOM     41  C   UNL     1      -3.633   6.411  -2.719  0.00  0.00    +0.001 C 
ATOM     42  C   UNL     1      -2.412   5.503  -2.523  0.00  0.00    +0.001 C 
ENDBRANCH  39  40
ENDBRANCH   5  39
TORSDOF 6
ENDMDL
MODEL 3
REMARK VINA RESULT:      -8.8      3.114      6.977
REMARK  Name = 
REMARK  6 active torsions:
REMARK  status: ('A' for Active; 'I' for Inactive)
REMARK    1  A    between atoms: C_2  and  N_4
REMARK    2  A    between atoms: C_2  and  C_32
REMARK    3  A    between atoms: C_5  and  C_7
REMARK    4  A    between atoms: N_21  and  C_22
REMARK    5  A    between atoms: C_22  and  C_23
REMARK    6  A    between atoms: C_34  and  C_35
REMARK                            x       y       z     vdW  Elec       q    Type
REMARK                         _______ _______ _______ _____ _____    ______ ____
ROOT
ATOM      1  C   UNL     1       3.070   6.260  -7.941  0.00  0.00    +0.074 C 
ATOM      2  C   UNL     1       2.927   7.205  -6.778  0.00  0.00    +0.066 C 
ATOM      3  C   UNL     1       3.347   6.256  -5.690  0.00  0.00    +0.152 C 
ATOM      4  C   UNL     1       3.356   7.300  -4.432  0.00  0.00    +0.091 C 
ATOM      5  N   UNL     1       4.191   6.304  -3.552  0.00  0.00    -0.271 NA
ATOM      6  C   UNL     1       3.419   5.251  -3.138  0.00  0.00    +0.073 C 
ATOM      7  C   UNL     1       2.988   4.320  -4.256  0.00  0.00    +0.028 C 
ATOM      8  C   UNL     1       1.899   6.907  -3.765  0.00  0.00    +0.045 C 
ATOM      9  C   UNL     1       0.958   6.800  -4.934  0.00  0.00    -0.021 A 
ATOM     10  C   UNL     1      -0.385   7.155  -4.879  0.00  0.00    -0.001 A 
ATOM     11  C   UNL     1      -1.290   6.460  -5.690  0.00  0.00    +0.045 A 
ATOM     12  C   UNL     1      -0.887   5.337  -6.413  0.00  0.00    +0.229 A 
ATOM     13  C   UNL     1       0.438   4.918  -6.405  0.00  0.00    +0.174 A 
ATOM     14  O   UNL     1       1.108   3.690  -6.563  0.00  0.00    -0.468 OA
ATOM     15  C   UNL     1       2.592   4.144  -6.714  0.00  0.00    +0.232 C 
ATOM     16  O   UNL     1      -1.801   4.498  -7.057  0.00  0.00    -0.283 OA
ATOM     17  C   UNL     1       1.139   5.523  -5.428  0.00  0.00    +0.017 A 
ATOM     18  O   UNL     1       4.709   5.990  -5.907  0.00  0.00    -0.223 OA
ATOM     19  C   UNL     1       2.520   5.126  -5.397  0.00  0.00    +0.094 C 
ATOM     20  C   UNL     1       2.205   5.287  -7.812  0.00  0.00    +0.214 C 
ATOM     21  O   UNL     1       1.843   4.654  -9.010  0.00  0.00    -0.288 OA
ENDROOT
BRANCH   1  23
ATOM     22  N   UNL     1       5.251   6.276  -9.234  0.00  0.00    -0.196 NA
ATOM     23  C   UNL     1       3.873   6.621  -9.075  0.00  0.00    +0.264 C 
ATOM     24  O   UNL     1       3.610   7.729  -9.647  0.00  0.00    -0.269 OA
BRANCH  22  26
ATOM     25  C   UNL     1       6.667   5.839 -10.295  0.00  0.00    +0.031 C 
ATOM     26  C   UNL     1       5.894   6.274 -10.494  0.00  0.00    +0.150 C 
ATOM     27  C   UNL     1       6.079   7.727 -10.899  0.00  0.00    +0.031 C 
BRANCH  26  28
ATOM     28  C   UNL     1       5.069   5.602 -11.534  0.00  0.00    +0.254 A 
ATOM     29  O   UNL     1       5.219   5.798 -12.833  0.00  0.00    -0.335 OA
ATOM     30  N   UNL     1       4.056   5.713 -13.432  0.00  0.00    -0.056 NA
ATOM     31  C   UNL     1       3.116   5.332 -12.530  0.00  0.00    +0.203 A 
ATOM     32  N   UNL     1       3.865   5.003 -11.446  0.00  0.00    -0.189 NA
BRANCH  31  33
ATOM     33  C   UNL     1       1.686   5.691 -12.553  0.00  0.00    +0.039 A 
ATOM     34  C   UNL     1       0.770   4.687 -12.266  0.00  0.00    +0.003 A 
ATOM     35  C   UNL     1      -0.432   4.953 -11.621  0.00  0.00    +0.000 A 
ATOM     36  C   UNL     1      -0.533   6.097 -10.839  0.00  0.00    +0.000 A 
ATOM     37  C   UNL     1       0.286   7.149 -11.223  0.00  0.00    +0.000 A 
ATOM     38  C   UNL     1       1.278   6.964 -12.174  0.00  0.00    +0.003 A 
ENDBRANCH  31  33
ENDBRANCH  26  28
ENDBRANCH  22  26
ENDBRANCH   1  23
BRANCH   5  39
ATOM     39  C   UNL     1       5.072   7.002  -2.747  0.00  0.00    +0.072 C 
BRANCH  39  40
ATOM     40  C   UNL     1       4.494   7.616  -1.488  0.00  0.00    +0.016 C 
ATOM     41  C   UNL     1       4.387   6.552  -0.359  0.00  0.00    +0.001 C 
ATOM     42  C   UNL     1       5.500   7.607  -0.313  0.00  0.00    +0.001 C 
ENDBRANCH  39  40
ENDBRANCH   5  39
TORSDOF 6
ENDMDL
MODEL 4
REMARK VINA RESULT:      -8.6      4.111      7.974
REMARK  Name = 
REMARK  6 active torsions:
REMARK  status: ('A' for Active; 'I' for Inactive)
REMARK    1  A    between atoms: C_2  and  N_4
REMARK    2  A    between atoms: C_2  and  C_32
REMARK    3  A    between atoms: C_5  and  C_7
REMARK    4  A    between atoms: N_21  and  C_22
REMARK    5  A    between atoms: C_22  and  C_23
REMARK    6  A    between atoms: C_34  and  C_35
REMARK                            x       y       z     vdW  Elec       q    Type
REMARK                         _______ _______ _______ _____ _____    ______ ____
ROOT
ATOM      1  C   UNL     1       3.902   5.551  -7.377  0.00  0.00    +0.074 C 
ATOM      2  C   UNL     1       3.666   6.708  -6.443  0.00  0.00    +0.066 C 
ATOM      3  C   UNL     1       3.686   5.936  -5.152  0.00  0.00    +0.152 C 
ATOM      4  C   UNL     1       3.591   7.189  -4.107  0.00  0.00    +0.091 C 
ATOM      5  N   UNL     1       4.048   6.283  -2.908  0.00  0.00    -0.271 NA
ATOM      6  C   UNL     1       3.048   5.427  -2.533  0.00  0.00    +0.073 C 
ATOM      7  C   UNL     1       2.723   4.361  -3.563  0.00  0.00    +0.028 C 
ATOM      8  C   UNL     1       1.981   7.105  -3.755  0.00  0.00    +0.045 C 
ATOM      9  C   UNL     1       1.308   6.894  -5.083  0.00  0.00    -0.021 A 
ATOM     10  C   UNL     1       0.059   7.412  -5.406  0.00  0.00    -0.001 A 
ATOM     11  C   UNL     1      -0.750   6.690  -6.292  0.00  0.00    +0.045 A 
ATOM     12  C   UNL     1      -0.386   5.412  -6.715  0.00  0.00    +0.229 A 
ATOM     13  C   UNL     1       0.822   4.845  -6.325  0.00  0.00    +0.174 A 
ATOM     14  O   UNL     1       1.305   3.539  -6.126  0.00  0.00    -0.468 OA
ATOM     15  C   UNL     1       2.840   3.776  -5.987  0.00  0.00    +0.232 C 
ATOM     16  O   UNL     1      -1.263   4.581  -7.419  0.00  0.00    -0.283 OA
ATOM     17  C   UNL     1       1.385   5.535  -5.315  0.00  0.00    +0.017 A 
ATOM     18  O   UNL     1       5.002   5.473  -4.994  0.00  0.00    -0.223 OA
ATOM     19  C   UNL     1       2.645   4.989  -4.894  0.00  0.00    +0.094 C 
ATOM     20  C   UNL     1       2.885   4.730  -7.309  0.00  0.00    +0.214 C 
ATOM     21  O   UNL     1       2.692   3.931  -8.445  0.00  0.00    -0.288 OA
ENDROOT
BRANCH   1  23
ATOM     22  N   UNL     1       4.854   6.080  -9.666  0.00  0.00    -0.196 NA
ATOM     23  C   UNL     1       4.976   5.594  -8.328  0.00  0.00    +0.264 C 
ATOM     24  O   UNL     1       5.858   4.677  -8.254  0.00  0.00    -0.269 OA
BRANCH  22  26
ATOM     25  C   UNL     1       6.630   6.465  -9.807  0.00  0.00    +0.031 C 
ATOM     26  C   UNL     1       5.969   6.493 -10.431  0.00  0.00    +0.150 C 
ATOM     27  C   UNL     1       5.658   7.888 -10.951  0.00  0.00    +0.031 C 
BRANCH  26  28
ATOM     28  C   UNL     1       6.197   5.602 -11.600  0.00  0.00    +0.254 A 
ATOM     29  O   UNL     1       7.370   5.076 -11.908  0.00  0.00    -0.335 OA
ATOM     30  N   UNL     1       7.484   4.973 -13.211  0.00  0.00    -0.056 NA
ATOM     31  C   UNL     1       6.308   5.328 -13.789  0.00  0.00    +0.203 A 
ATOM     32  N   UNL     1       5.473   5.427 -12.723  0.00  0.00    -0.189 NA
BRANCH  31  33
ATOM     33  C   UNL     1       6.140   5.946 -15.117  0.00  0.00    +0.039 A 
ATOM     34  C   UNL     1       5.137   6.897 -15.257  0.00  0.00    +0.003 A 
ATOM     35  C   UNL     1       5.262   7.974 -16.127  0.00  0.00    +0.000 A 
ATOM     36  C   UNL     1       6.536   8.387 -16.500  0.00  0.00    +0.000 A 
ATOM     37  C   UNL     1       7.504   7.393 -16.495  0.00  0.00    +0.000 A 
ATOM     38  C   UNL     1       7.241   6.150 -15.939  0.00  0.00    +0.003 A 
ENDBRANCH  31  33
ENDBRANCH  26  28
ENDBRANCH  22  26
ENDBRANCH   1  23
BRANCH   5  39
ATOM     39  C   UNL     1       4.836   7.010  -2.035  0.00  0.00    +0.072 C 
BRANCH  39  40
ATOM     40  C   UNL     1       4.516   6.869  -0.561  0.00  0.00    +0.016 C 
ATOM     41  C   UNL     1       5.551   7.646   0.301  0.00  0.00    +0.001 C 
ATOM     42  C   UNL     1       4.143   8.220   0.093  0.00  0.00    +0.001 C 
ENDBRANCH  39  40
ENDBRANCH   5  39
TORSDOF 6
ENDMDL
MODEL 5
REMARK VINA RESULT:      -8.5      2.136      5.210
REMARK  Name = 
REMARK  6 active torsions:
REMARK  status: ('A' for Active; 'I' for Inactive)
REMARK    1  A    between atoms: C_2  and  N_4
REMARK    2  A    between atoms: C_2  and  C_32
REMARK    3  A    between atoms: C_5  and  C_7
REMARK    4  A    between atoms: N_21  and  C_22
REMARK    5  A    between atoms: C_22  and  C_23
REMARK    6  A    between atoms: C_34  and  C_35
REMARK                            x       y       z     vdW  Elec       q    Type
REMARK                         _______ _______ _______ _____ _____    ______ ____
ROOT
ATOM      1  C   UNL     1       0.259   5.996  -5.409  0.00  0.00    +0.074 C 
ATOM      2  C   UNL     1       0.946   6.941  -6.357  0.00  0.00    +0.066 C 
ATOM      3  C   UNL     1       1.278   5.944  -7.433  0.00  0.00    +0.152 C 
ATOM      4  C   UNL     1       1.885   6.971  -8.551  0.00  0.00    +0.091 C 
ATOM      5  N   UNL     1       1.762   5.887  -9.680  0.00  0.00    -0.271 NA
ATOM      6  C   UNL     1       2.716   4.916  -9.532  0.00  0.00    +0.073 C 
ATOM      7  C   UNL     1       2.528   4.043  -8.305  0.00  0.00    +0.028 C 
ATOM      8  C   UNL     1       3.493   6.724  -8.278  0.00  0.00    +0.045 C 
ATOM      9  C   UNL     1       3.633   6.723  -6.780  0.00  0.00    -0.021 A 
ATOM     10  C   UNL     1       4.746   7.214  -6.108  0.00  0.00    -0.001 A 
ATOM     11  C   UNL     1       5.102   6.622  -4.891  0.00  0.00    +0.045 A 
ATOM     12  C   UNL     1       4.457   5.470  -4.439  0.00  0.00    +0.229 A 
ATOM     13  C   UNL     1       3.398   4.917  -5.149  0.00  0.00    +0.174 A 
ATOM     14  O   UNL     1       2.855   3.629  -5.309  0.00  0.00    -0.468 OA
ATOM     15  C   UNL     1       1.505   3.930  -6.030  0.00  0.00    +0.232 C 
ATOM     16  O   UNL     1       4.924   4.734  -3.346  0.00  0.00    -0.283 OA
ATOM     17  C   UNL     1       3.311   5.439  -6.388  0.00  0.00    +0.017 A 
ATOM     18  O   UNL     1       0.052   5.542  -7.986  0.00  0.00    -0.223 OA
ATOM     19  C   UNL     1       2.217   4.903  -7.149  0.00  0.00    +0.094 C 
ATOM     20  C   UNL     1       1.125   5.115  -4.976  0.00  0.00    +0.214 C 
ATOM     21  O   UNL     1       0.811   4.533  -3.740  0.00  0.00    -0.288 OA
ENDROOT
BRANCH   1  23
ATOM     22  N   UNL     1      -1.730   5.548  -3.901  0.00  0.00    -0.196 NA
ATOM     23  C   UNL     1      -1.064   6.283  -4.931  0.00  0.00    +0.264 C 
ATOM     24  O   UNL     1      -1.900   6.751  -5.771  0.00  0.00    -0.269 OA
BRANCH  22  26
ATOM     25  C   UNL     1      -3.422   5.395  -3.239  0.00  0.00    +0.031 C 
ATOM     26  C   UNL     1      -2.823   6.076  -3.174  0.00  0.00    +0.150 C 
ATOM     27  C   UNL     1      -3.248   7.354  -3.880  0.00  0.00    +0.031 C 
BRANCH  26  28
ATOM     28  C   UNL     1      -2.442   6.421  -1.778  0.00  0.00    +0.254 A 
ATOM     29  O   UNL     1      -2.535   7.637  -1.268  0.00  0.00    -0.335 OA
ATOM     30  N   UNL     1      -1.566   7.832  -0.406  0.00  0.00    -0.056 NA
ATOM     31  C   UNL     1      -0.875   6.676  -0.243  0.00  0.00    +0.203 A 
ATOM     32  N   UNL     1      -1.648   5.775  -0.901  0.00  0.00    -0.189 NA
BRANCH  31  33
ATOM     33  C   UNL     1       0.557   6.553   0.087  0.00  0.00    +0.039 A 
ATOM     34  C   UNL     1       1.325   5.706  -0.703  0.00  0.00    +0.003 A 
ATOM     35  C   UNL     1       2.665   5.963  -0.968  0.00  0.00    +0.000 A 
ATOM     36  C   UNL     1       3.128   7.270  -0.865  0.00  0.00    +0.000 A 
ATOM     37  C   UNL     1       2.441   8.070   0.037  0.00  0.00    +0.000 A 
ATOM     38  C   UNL     1       1.252   7.639   0.605  0.00  0.00    +0.003 A 
ENDBRANCH  31  33
ENDBRANCH  26  28
ENDBRANCH  22  26
ENDBRANCH   1  23
BRANCH   5  39
ATOM     39  C   UNL     1       1.423   6.485 -10.880  0.00  0.00    +0.072 C 
BRANCH  39  40
ATOM     40  C   UNL     1       0.135   6.015 -11.527  0.00  0.00    +0.016 C 
ATOM     41  C   UNL     1       0.431   4.972 -12.642  0.00  0.00    +0.001 C 
ATOM     42  C   UNL     1      -0.128   4.510 -11.290  0.00  0.00    +0.001 C 
ENDBRANCH  39  40
ENDBRANCH   5  39
TORSDOF 6
ENDMDL
MODEL 6
REMARK VINA RESULT:      -8.4      2.763      6.608
REMARK  Name = 
REMARK  6 active torsions:
REMARK  status: ('A' for Active; 'I' for Inactive)
REMARK    1  A    between atoms: C_2  and  N_4
REMARK    2  A    between atoms: C_2  and  C_32
REMARK    3  A    between atoms: C_5  and  C_7
REMARK    4  A    between atoms: N_21  and  C_22
REMARK    5  A    between atoms: C_22  and  C_23
REMARK    6  A    between atoms: C_34  and  C_35
REMARK                            x       y       z     vdW  Elec       q    Type
REMARK                         _______ _______ _______ _____ _____    ______ ____
ROOT
ATOM      1  C   UNL     1       1.360   6.154  -7.499  0.00  0.00    +0.074 C 
ATOM      2  C   UNL     1       1.635   7.085  -8.649  0.00  0.00    +0.066 C 
ATOM      3  C   UNL     1       1.237   6.156  -9.763  0.00  0.00    +0.152 C 
ATOM      4  C   UNL     1       1.372   7.193 -11.019  0.00  0.00    +0.091 C 
ATOM      5  N   UNL     1       0.545   6.242 -11.954  0.00  0.00    -0.271 NA
ATOM      6  C   UNL     1       1.282   5.146 -12.314  0.00  0.00    +0.073 C 
ATOM      7  C   UNL     1       1.583   4.196 -11.169  0.00  0.00    +0.028 C 
ATOM      8  C   UNL     1       2.847   6.716 -11.585  0.00  0.00    +0.045 C 
ATOM      9  C   UNL     1       3.699   6.561 -10.355  0.00  0.00    -0.021 A 
ATOM     10  C   UNL     1       5.060   6.840 -10.318  0.00  0.00    -0.001 A 
ATOM     11  C   UNL     1       5.867   6.099  -9.448  0.00  0.00    +0.045 A 
ATOM     12  C   UNL     1       5.354   5.004  -8.753  0.00  0.00    +0.229 A 
ATOM     13  C   UNL     1       4.011   4.659  -8.851  0.00  0.00    +0.174 A 
ATOM     14  O   UNL     1       3.264   3.472  -8.739  0.00  0.00    -0.468 OA
ATOM     15  C   UNL     1       1.801   4.010  -8.689  0.00  0.00    +0.232 C 
ATOM     16  O   UNL     1       6.173   4.117  -8.048  0.00  0.00    -0.283 OA
ATOM     17  C   UNL     1       3.413   5.298  -9.874  0.00  0.00    +0.017 A 
ATOM     18  O   UNL     1      -0.149   5.968  -9.639  0.00  0.00    -0.223 OA
ATOM     19  C   UNL     1       2.017   4.981  -9.999  0.00  0.00    +0.094 C 
ATOM     20  C   UNL     1       2.176   5.134  -7.568  0.00  0.00    +0.214 C 
ATOM     21  O   UNL     1       2.419   4.486  -6.348  0.00  0.00    -0.288 OA
ENDROOT
BRANCH   1  23
ATOM     22  N   UNL     1      -0.832   6.097  -6.227  0.00  0.00    -0.196 NA
ATOM     23  C   UNL     1       0.504   6.565  -6.422  0.00  0.00    +0.264 C 
ATOM     24  O   UNL     1       0.638   7.757  -5.992  0.00  0.00    -0.269 OA
BRANCH  22  26
ATOM     25  C   UNL     1      -2.203   5.631  -5.120  0.00  0.00    +0.031 C 
ATOM     26  C   UNL     1      -1.494   6.182  -4.980  0.00  0.00    +0.150 C 
ATOM     27  C   UNL     1      -1.866   7.642  -4.774  0.00  0.00    +0.031 C 
BRANCH  26  28
ATOM     28  C   UNL     1      -0.612   5.764  -3.857  0.00  0.00    +0.254 A 
ATOM     29  O   UNL     1      -0.703   6.246  -2.629  0.00  0.00    -0.335 OA
ATOM     30  N   UNL     1       0.488   6.302  -2.084  0.00  0.00    -0.056 NA
ATOM     31  C   UNL     1       1.389   5.732  -2.922  0.00  0.00    +0.203 A 
ATOM     32  N   UNL     1       0.596   5.165  -3.868  0.00  0.00    -0.189 NA
BRANCH  31  33
ATOM     33  C   UNL     1       2.814   6.092  -3.050  0.00  0.00    +0.039 A 
ATOM     34  C   UNL     1       3.725   5.054  -3.199  0.00  0.00    +0.003 A 
ATOM     35  C   UNL     1       4.885   5.198  -3.951  0.00  0.00    +0.000 A 
ATOM     36  C   UNL     1       4.925   6.177  -4.937  0.00  0.00    +0.000 A 
ATOM     37  C   UNL     1       4.116   7.280  -4.707  0.00  0.00    +0.000 A 
ATOM     38  C   UNL     1       3.183   7.274  -3.682  0.00  0.00    +0.003 A 
ENDBRANCH  31  33
ENDBRANCH  26  28
ENDBRANCH  22  26
ENDBRANCH   1  23
BRANCH   5  39
ATOM     39  C   UNL     1      -0.239   6.985 -12.817  0.00  0.00    +0.072 C 
BRANCH  39  40
ATOM     40  C   UNL     1       0.490   7.737 -13.913  0.00  0.00    +0.016 C 
ATOM     41  C   UNL     1       0.980   6.757 -15.016  0.00  0.00    +0.001 C 
ATOM     42  C   UNL     1      -0.241   7.650 -15.273  0.00  0.00    +0.001 C 
ENDBRANCH  39  40
ENDBRANCH   5  39
TORSDOF 6
ENDMDL
MODEL 7
REMARK VINA RESULT:      -8.2      2.194      6.563
REMARK  Name = 
REMARK  6 active torsions:
REMARK  status: ('A' for Active; 'I' for Inactive)
REMARK    1  A    between atoms: C_2  and  N_4
REMARK    2  A    between atoms: C_2  and  C_32
REMARK    3  A    between atoms: C_5  and  C_7
REMARK    4  A    between atoms: N_21  and  C_22
REMARK    5  A    between atoms: C_22  and  C_23
REMARK    6  A    between atoms: C_34  and  C_35
REMARK                            x       y       z     vdW  Elec       q    Type
REMARK                         _______ _______ _______ _____ _____    ______ ____
ROOT
ATOM      1  C   UNL     1       3.268   5.507  -5.889  0.00  0.00    +0.074 C 
ATOM      2  C   UNL     1       3.761   4.642  -7.018  0.00  0.00    +0.066 C 
ATOM      3  C   UNL     1       4.246   5.742  -7.921  0.00  0.00    +0.152 C 
ATOM      4  C   UNL     1       4.933   4.827  -9.088  0.00  0.00    +0.091 C 
ATOM      5  N   UNL     1       5.717   6.062  -9.659  0.00  0.00    -0.271 NA
ATOM      6  C   UNL     1       4.874   6.913 -10.322  0.00  0.00    +0.073 C 
ATOM      7  C   UNL     1       3.876   7.623  -9.425  0.00  0.00    +0.028 C 
ATOM      8  C   UNL     1       3.721   4.887 -10.205  0.00  0.00    +0.045 C 
ATOM      9  C   UNL     1       2.460   4.670  -9.416  0.00  0.00    -0.021 A 
ATOM     10  C   UNL     1       1.349   3.992  -9.905  0.00  0.00    -0.001 A 
ATOM     11  C   UNL     1       0.082   4.377  -9.451  0.00  0.00    +0.045 A 
ATOM     12  C   UNL     1      -0.079   5.510  -8.653  0.00  0.00    +0.229 A 
ATOM     13  C   UNL     1       1.019   6.249  -8.230  0.00  0.00    +0.174 A 
ATOM     14  O   UNL     1       1.256   7.592  -7.879  0.00  0.00    -0.468 OA
ATOM     15  C   UNL     1       2.676   7.516  -7.238  0.00  0.00    +0.232 C 
ATOM     16  O   UNL     1      -1.338   6.044  -8.362  0.00  0.00    -0.283 OA
ATOM     17  C   UNL     1       2.131   5.912  -8.910  0.00  0.00    +0.017 A 
ATOM     18  O   UNL     1       5.344   6.326  -7.270  0.00  0.00    -0.223 OA
ATOM     19  C   UNL     1       3.293   6.645  -8.489  0.00  0.00    +0.094 C 
ATOM     20  C   UNL     1       2.268   6.237  -6.312  0.00  0.00    +0.214 C 
ATOM     21  O   UNL     1       1.387   6.671  -5.312  0.00  0.00    -0.288 OA
ENDROOT
BRANCH   1  23
ATOM     22  N   UNL     1       3.650   6.240  -3.492  0.00  0.00    -0.196 NA
ATOM     23  C   UNL     1       3.726   5.280  -4.548  0.00  0.00    +0.264 C 
ATOM     24  O   UNL     1       4.734   4.514  -4.397  0.00  0.00    -0.269 OA
BRANCH  22  26
ATOM     25  C   UNL     1       4.218   6.556  -1.789  0.00  0.00    +0.031 C 
ATOM     26  C   UNL     1       3.715   5.878  -2.126  0.00  0.00    +0.150 C 
ATOM     27  C   UNL     1       4.381   4.512  -2.062  0.00  0.00    +0.031 C 
BRANCH  26  28
ATOM     28  C   UNL     1       2.361   5.764  -1.520  0.00  0.00    +0.254 A 
ATOM     29  O   UNL     1       1.794   4.616  -1.194  0.00  0.00    -0.335 OA
ATOM     30  N   UNL     1       0.497   4.694  -1.371  0.00  0.00    -0.056 NA
ATOM     31  C   UNL     1       0.170   5.967  -1.710  0.00  0.00    +0.203 A 
ATOM     32  N   UNL     1       1.333   6.636  -1.502  0.00  0.00    -0.189 NA
BRANCH  31  33
ATOM     33  C   UNL     1      -0.959   6.381  -2.564  0.00  0.00    +0.039 A 
ATOM     34  C   UNL     1      -1.319   5.533  -3.604  0.00  0.00    +0.003 A 
ATOM     35  C   UNL     1      -2.637   5.412  -4.029  0.00  0.00    +0.000 A 
ATOM     36  C   UNL     1      -3.658   5.747  -3.146  0.00  0.00    +0.000 A 
ATOM     37  C   UNL     1      -3.328   6.704  -2.198  0.00  0.00    +0.000 A 
ATOM     38  C   UNL     1      -2.013   7.109  -2.026  0.00  0.00    +0.003 A 
ENDBRANCH  31  33
ENDBRANCH  26  28
ENDBRANCH  22  26
ENDBRANCH   1  23
BRANCH   5  39
ATOM     39  C   UNL     1       6.961   5.668 -10.116  0.00  0.00    +0.072 C 
BRANCH  39  40
ATOM     40  C   UNL     1       7.453   6.329 -11.388  0.00  0.00    +0.016 C 
ATOM     41  C   UNL     1       8.796   5.694 -11.850  0.00  0.00    +0.001 C 
ATOM     42  C   UNL     1       7.493   5.348 -12.583  0.00  0.00    +0.001 C 
ENDBRANCH  39  40
ENDBRANCH   5  39
TORSDOF 6
ENDMDL
MODEL 8
REMARK VINA RESULT:      -8.1      2.730      7.840
REMARK  Name = 
REMARK  6 active torsions:
REMARK  status: ('A' for Active; 'I' for Inactive)
REMARK    1  A    between atoms: C_2  and  N_4
REMARK    2  A    between atoms: C_2  and  C_32
REMARK    3  A    between atoms: C_5  and  C_7
REMARK    4  A    between atoms: N_21  and  C_22
REMARK    5  A    between atoms: C_22  and  C_23
REMARK    6  A    between atoms: C_34  and  C_35
REMARK                            x       y       z     vdW  Elec       q    Type
REMARK                         _______ _______ _______ _____ _____    ______ ____
ROOT
ATOM      1  C   UNL     1       3.513   6.331  -4.545  0.00  0.00    +0.074 C 
ATOM      2  C   UNL     1       2.479   7.272  -5.100  0.00  0.00    +0.066 C 
ATOM      3  C   UNL     1       1.323   6.311  -5.130  0.00  0.00    +0.152 C 
ATOM      4  C   UNL     1       0.142   7.347  -5.579  0.00  0.00    +0.091 C 
ATOM      5  N   UNL     1      -0.977   6.334  -5.147  0.00  0.00    -0.271 NA
ATOM      6  C   UNL     1      -1.061   5.292  -6.031  0.00  0.00    +0.073 C 
ATOM      7  C   UNL     1       0.148   4.373  -6.025  0.00  0.00    +0.028 C 
ATOM      8  C   UNL     1       0.073   6.974  -7.185  0.00  0.00    +0.045 C 
ATOM      9  C   UNL     1       1.509   6.888  -7.622  0.00  0.00    -0.021 A 
ATOM     10  C   UNL     1       1.957   7.264  -8.883  0.00  0.00    -0.001 A 
ATOM     11  C   UNL     1       3.055   6.587  -9.427  0.00  0.00    +0.045 A 
ATOM     12  C   UNL     1       3.587   5.462  -8.798  0.00  0.00    +0.229 A 
ATOM     13  C   UNL     1       3.088   5.022  -7.577  0.00  0.00    +0.174 A 
ATOM     14  O   UNL     1       2.997   3.784  -6.912  0.00  0.00    -0.468 OA
ATOM     15  C   UNL     1       2.578   4.216  -5.474  0.00  0.00    +0.232 C 
ATOM     16  O   UNL     1       4.535   4.640  -9.414  0.00  0.00    -0.283 OA
ATOM     17  C   UNL     1       1.913   5.610  -7.285  0.00  0.00    +0.017 A 
ATOM     18  O   UNL     1       1.018   6.025  -3.790  0.00  0.00    -0.223 OA
ATOM     19  C   UNL     1       1.372   5.193  -6.021  0.00  0.00    +0.094 C 
ATOM     20  C   UNL     1       3.728   5.371  -5.407  0.00  0.00    +0.214 C 
ATOM     21  O   UNL     1       4.980   4.750  -5.302  0.00  0.00    -0.288 OA
ENDROOT
BRANCH   1  23
ATOM     22  N   UNL     1       3.677   7.041  -2.117  0.00  0.00    -0.196 NA
ATOM     23  C   UNL     1       4.261   6.685  -3.372  0.00  0.00    +0.264 C 
ATOM     24  O   UNL     1       5.371   7.286  -3.546  0.00  0.00    -0.269 OA
BRANCH  22  26
ATOM     25  C   UNL     1       5.212   7.281  -1.163  0.00  0.00    +0.031 C 
ATOM     26  C   UNL     1       4.395   6.983  -0.899  0.00  0.00    +0.150 C 
ATOM     27  C   UNL     1       4.374   5.533  -0.443  0.00  0.00    +0.031 C 
BRANCH  26  28
ATOM     28  C   UNL     1       3.756   7.813   0.158  0.00  0.00    +0.254 A 
ATOM     29  O   UNL     1       2.454   7.846   0.383  0.00  0.00    -0.335 OA
ATOM     30  N   UNL     1       2.103   9.045   0.781  0.00  0.00    -0.056 NA
ATOM     31  C   UNL     1       3.215   9.805   0.944  0.00  0.00    +0.203 A 
ATOM     32  N   UNL     1       4.215   8.894   0.819  0.00  0.00    -0.189 NA
BRANCH  31  33
ATOM     33  C   UNL     1       3.310  11.266   0.766  0.00  0.00    +0.039 A 
ATOM     34  C   UNL     1       3.997  11.985   1.736  0.00  0.00    +0.003 A 
ATOM     35  C   UNL     1       4.717  13.133   1.425  0.00  0.00    +0.000 A 
ATOM     36  C   UNL     1       5.161  13.312   0.120  0.00  0.00    +0.000 A 
ATOM     37  C   UNL     1       4.383  12.706  -0.856  0.00  0.00    +0.000 A 
ATOM     38  C   UNL     1       3.381  11.812  -0.510  0.00  0.00    +0.003 A 
ENDBRANCH  31  33
ENDBRANCH  26  28
ENDBRANCH  22  26
ENDBRANCH   1  23
BRANCH   5  39
ATOM     39  C   UNL     1      -2.060   7.014  -4.623  0.00  0.00    +0.072 C 
BRANCH  39  40
ATOM     40  C   UNL     1      -2.236   6.945  -3.119  0.00  0.00    +0.016 C 
ATOM     41  C   UNL     1      -3.620   6.337  -2.757  0.00  0.00    +0.001 C 
ATOM     42  C   UNL     1      -2.350   5.491  -2.606  0.00  0.00    +0.001 C 
ENDBRANCH  39  40
ENDBRANCH   5  39
TORSDOF 6
ENDMDL
MODEL 9
REMARK VINA RESULT:      -8.0      3.459      7.446
REMARK  Name = 
REMARK  6 active torsions:
REMARK  status: ('A' for Active; 'I' for Inactive)
REMARK    1  A    between atoms: C_2  and  N_4
REMARK    2  A    between atoms: C_2  and  C_32
REMARK    3  A    between atoms: C_5  and  C_7
REMARK    4  A    between atoms: N_21  and  C_22
REMARK    5  A    between atoms: C_22  and  C_23
REMARK    6  A    between atoms: C_34  and  C_35
REMARK                            x       y       z     vdW  Elec       q    Type
REMARK                         _______ _______ _______ _____ _____    ______ ____
ROOT
ATOM      1  C   UNL     1       1.418   5.599  -8.848  0.00  0.00    +0.074 C 
ATOM      2  C   UNL     1       0.918   4.721  -7.732  0.00  0.00    +0.066 C 
ATOM      3  C   UNL     1       0.286   5.798  -6.893  0.00  0.00    +0.152 C 
ATOM      4  C   UNL     1      -0.406   4.856  -5.750  0.00  0.00    +0.091 C 
ATOM      5  N   UNL     1      -1.322   6.035  -5.266  0.00  0.00    -0.271 NA
ATOM      6  C   UNL     1      -0.596   6.965  -4.572  0.00  0.00    +0.073 C 
ATOM      7  C   UNL     1       0.401   7.734  -5.419  0.00  0.00    +0.028 C 
ATOM      8  C   UNL     1       0.718   5.037  -4.556  0.00  0.00    +0.045 C 
ATOM      9  C   UNL     1       2.044   4.906  -5.253  0.00  0.00    -0.021 A 
ATOM     10  C   UNL     1       3.169   4.331  -4.672  0.00  0.00    -0.001 A 
ATOM     11  C   UNL     1       4.429   4.807  -5.051  0.00  0.00    +0.045 A 
ATOM     12  C   UNL     1       4.555   5.932  -5.866  0.00  0.00    +0.229 A 
ATOM     13  C   UNL     1       3.434   6.571  -6.382  0.00  0.00    +0.174 A 
ATOM     14  O   UNL     1       3.116   7.882  -6.784  0.00  0.00    -0.468 OA
ATOM     15  C   UNL     1       1.754   7.678  -7.516  0.00  0.00    +0.232 C 
ATOM     16  O   UNL     1       5.785   6.560  -6.087  0.00  0.00    -0.283 OA
ATOM     17  C   UNL     1       2.308   6.160  -5.769  0.00  0.00    +0.017 A 
ATOM     18  O   UNL     1      -0.807   6.277  -7.632  0.00  0.00    -0.223 OA
ATOM     19  C   UNL     1       1.123   6.786  -6.286  0.00  0.00    +0.094 C 
ATOM     20  C   UNL     1       2.325   6.416  -8.378  0.00  0.00    +0.214 C 
ATOM     21  O   UNL     1       3.236   6.899  -9.329  0.00  0.00    -0.288 OA
ENDROOT
BRANCH   1  23
ATOM     22  N   UNL     1       0.963   6.285 -11.246  0.00  0.00    -0.196 NA
ATOM     23  C   UNL     1       1.073   5.306 -10.210  0.00  0.00    +0.264 C 
ATOM     24  O   UNL     1       0.275   4.333 -10.414  0.00  0.00    -0.269 OA
BRANCH  22  26
ATOM     25  C   UNL     1       0.472   6.571 -12.978  0.00  0.00    +0.031 C 
ATOM     26  C   UNL     1       1.032   5.952 -12.619  0.00  0.00    +0.150 C 
ATOM     27  C   UNL     1       0.547   4.517 -12.751  0.00  0.00    +0.031 C 
BRANCH  26  28
ATOM     28  C   UNL     1       2.426   6.021 -13.134  0.00  0.00    +0.254 A 
ATOM     29  O   UNL     1       2.881   5.279 -14.129  0.00  0.00    -0.335 OA
ATOM     30  N   UNL     1       4.146   4.994 -13.929  0.00  0.00    -0.056 NA
ATOM     31  C   UNL     1       4.585   5.662 -12.832  0.00  0.00    +0.203 A 
ATOM     32  N   UNL     1       3.549   6.498 -12.562  0.00  0.00    -0.189 NA
BRANCH  31  33
ATOM     33  C   UNL     1       5.641   5.218 -11.903  0.00  0.00    +0.039 A 
ATOM     34  C   UNL     1       6.955   5.288 -12.348  0.00  0.00    +0.003 A 
ATOM     35  C   UNL     1       8.009   5.552 -11.482  0.00  0.00    +0.000 A 
ATOM     36  C   UNL     1       7.745   6.213 -10.288  0.00  0.00    +0.000 A 
ATOM     37  C   UNL     1       6.470   6.020  -9.776  0.00  0.00    +0.000 A 
ATOM     38  C   UNL     1       5.488   5.397 -10.533  0.00  0.00    +0.003 A 
ENDBRANCH  31  33
ENDBRANCH  26  28
ENDBRANCH  22  26
ENDBRANCH   1  23
BRANCH   5  39
ATOM     39  C   UNL     1      -2.559   5.552  -4.884  0.00  0.00    +0.072 C 
BRANCH  39  40
ATOM     40  C   UNL     1      -2.786   5.379  -3.395  0.00  0.00    +0.016 C 
ATOM     41  C   UNL     1      -2.978   6.761  -2.708  0.00  0.00    +0.001 C 
ATOM     42  C   UNL     1      -4.190   5.854  -2.955  0.00  0.00    +0.001 C 
ENDBRANCH  39  40
ENDBRANCH   5  39
TORSDOF 6
ENDMDL
