MODEL 1
REMARK VINA RESULT:      -7.0      0.000      0.000
REMARK  Name = 
REMARK  2 active torsions:
REMARK  status: ('A' for Active; 'I' for Inactive)
REMARK    1  A    between atoms: C_2  and  C_4
REMARK    2  A    between atoms: C_4  and  C_6
REMARK                            x       y       z     vdW  Elec       q    Type
REMARK                         _______ _______ _______ _____ _____    ______ ____
ROOT
ATOM      1  C   UNL     1       0.058   5.495  -5.466  0.00  0.00    +0.147 C 
ATOM      2  N   UNL     1       0.680   6.682  -6.269  0.00  0.00    -0.228 NA
ATOM      3  C   UNL     1       1.680   6.272  -7.213  0.00  0.00    +0.157 A 
ATOM      4  C   UNL     1       2.261   5.012  -7.106  0.00  0.00    +0.170 A 
ATOM      5  N   UNL     1       3.256   4.733  -7.978  0.00  0.00    -0.193 NA
ATOM      6  C   UNL     1       3.511   5.543  -9.028  0.00  0.00    +0.260 A 
ATOM      7  N   UNL     1       3.234   6.864  -8.885  0.00  0.00    -0.171 NA
ATOM      8  N   UNL     1       4.010   4.986 -10.242  0.00  0.00    -0.086 NA
ATOM      9  N   UNL     1       2.066   4.291  -5.901  0.00  0.00    -0.217 NA
ATOM     10  C   UNL     1       2.241   7.242  -8.045  0.00  0.00    +0.299 A 
ATOM     11  O   UNL     1       2.108   8.466  -7.727  0.00  0.00    -0.264 OA
ATOM     12  C   UNL     1       1.493   5.077  -4.817  0.00  0.00    +0.138 C 
ENDROOT
BRANCH   1  13
ATOM     13  C   UNL     1      -0.303   6.500  -4.139  0.00  0.00    +0.203 C 
ATOM     14  O   UNL     1      -0.607   5.318  -3.272  0.00  0.00    -0.219 OA
BRANCH  13  16
ATOM     15  C   UNL     1      -2.589   6.929  -3.182  0.00  0.00    +0.038 C 
ATOM     16  C   UNL     1      -1.916   6.781  -4.673  0.00  0.00    +0.184 C 
ATOM     17  O   UNL     1      -1.689   8.270  -4.801  0.00  0.00    -0.220 OA
ENDBRANCH  13  16
ENDBRANCH   1  13
TORSDOF 2
ENDMDL
MODEL 2
REMARK VINA RESULT:      -6.7      2.526      5.765
REMARK  Name = 
REMARK  2 active torsions:
REMARK  status: ('A' for Active; 'I' for Inactive)
REMARK    1  A    between atoms: C_2  and  C_4
REMARK    2  A    between atoms: C_4  and  C_6
REMARK                            x       y       z     vdW  Elec       q    Type
REMARK                         _______ _______ _______ _____ _____    ______ ____
ROOT
ATOM      1  C   UNL     1       1.708   6.300  -6.045  0.00  0.00    +0.147 C 
ATOM      2  N   UNL     1       0.201   6.068  -6.378  0.00  0.00    -0.228 NA
ATOM      3  C   UNL     1      -0.609   5.811  -5.221  0.00  0.00    +0.157 A 
ATOM      4  C   UNL     1      -0.006   5.440  -4.022  0.00  0.00    +0.170 A 
ATOM      5  N   UNL     1      -0.839   5.131  -3.002  0.00  0.00    -0.193 NA
ATOM      6  C   UNL     1      -2.163   5.387  -3.081  0.00  0.00    +0.260 A 
ATOM      7  N   UNL     1      -2.736   5.362  -4.309  0.00  0.00    -0.171 NA
ATOM      8  N   UNL     1      -2.889   5.711  -1.896  0.00  0.00    -0.086 NA
ATOM      9  N   UNL     1       1.353   5.037  -4.057  0.00  0.00    -0.217 NA
ATOM     10  C   UNL     1      -1.986   5.673  -5.394  0.00  0.00    +0.299 A 
ATOM     11  O   UNL     1      -2.432   5.448  -6.562  0.00  0.00    -0.264 OA
ATOM     12  C   UNL     1       1.877   4.815  -5.397  0.00  0.00    +0.138 C 
ENDROOT
BRANCH   1  13
ATOM     13  C   UNL     1       2.198   5.740  -7.577  0.00  0.00    +0.203 C 
ATOM     14  O   UNL     1       3.584   5.470  -7.083  0.00  0.00    -0.219 OA
BRANCH  13  16
ATOM     15  C   UNL     1       3.556   6.903  -9.347  0.00  0.00    +0.038 C 
ATOM     16  C   UNL     1       2.497   7.330  -8.166  0.00  0.00    +0.184 C 
ATOM     17  O   UNL     1       1.313   7.281  -9.105  0.00  0.00    -0.220 OA
ENDBRANCH  13  16
ENDBRANCH   1  13
TORSDOF 2
ENDMDL
MODEL 3
REMARK VINA RESULT:      -6.6      2.798      6.643
REMARK  Name = 
REMARK  2 active torsions:
REMARK  status: ('A' for Active; 'I' for Inactive)
REMARK    1  A    between atoms: C_2  and  C_4
REMARK    2  A    between atoms: C_4  and  C_6
REMARK                            x       y       z     vdW  Elec       q    Type
REMARK                         _______ _______ _______ _____ _____    ______ ____
ROOT
ATOM      1  C   UNL     1       4.860   5.723  -9.767  0.00  0.00    +0.147 C 
ATOM      2  N   UNL     1       3.947   6.829  -9.149  0.00  0.00    -0.228 NA
ATOM      3  C   UNL     1       3.213   6.387  -7.997  0.00  0.00    +0.157 A 
ATOM      4  C   UNL     1       3.071   5.026  -7.744  0.00  0.00    +0.170 A 
ATOM      5  N   UNL     1       2.294   4.688  -6.691  0.00  0.00    -0.193 NA
ATOM      6  C   UNL     1       1.869   5.620  -5.811  0.00  0.00    +0.260 A 
ATOM      7  N   UNL     1       1.685   6.882  -6.271  0.00  0.00    -0.171 NA
ATOM      8  N   UNL     1       1.675   5.260  -4.444  0.00  0.00    -0.086 NA
ATOM      9  N   UNL     1       3.398   4.120  -8.785  0.00  0.00    -0.217 NA
ATOM     10  C   UNL     1       2.430   7.319  -7.314  0.00  0.00    +0.299 A 
ATOM     11  O   UNL     1       2.129   8.406  -7.900  0.00  0.00    -0.264 OA
ATOM     12  C   UNL     1       3.596   4.744 -10.085  0.00  0.00    +0.138 C 
ENDROOT
BRANCH   1  13
ATOM     13  C   UNL     1       4.767   6.425 -11.316  0.00  0.00    +0.203 C 
ATOM     14  O   UNL     1       4.957   5.095 -11.977  0.00  0.00    -0.219 OA
BRANCH  13  16
ATOM     15  C   UNL     1       6.609   6.981 -12.937  0.00  0.00    +0.038 C 
ATOM     16  C   UNL     1       6.426   6.886 -11.307  0.00  0.00    +0.184 C 
ATOM     17  O   UNL     1       6.090   8.355 -11.183  0.00  0.00    -0.220 OA
ENDBRANCH  13  16
ENDBRANCH   1  13
TORSDOF 2
ENDMDL
MODEL 4
REMARK VINA RESULT:      -6.6      3.402      5.664
REMARK  Name = 
REMARK  2 active torsions:
REMARK  status: ('A' for Active; 'I' for Inactive)
REMARK    1  A    between atoms: C_2  and  C_4
REMARK    2  A    between atoms: C_4  and  C_6
REMARK                            x       y       z     vdW  Elec       q    Type
REMARK                         _______ _______ _______ _____ _____    ______ ____
ROOT
ATOM      1  C   UNL     1       2.121   5.733  -5.444  0.00  0.00    +0.147 C 
ATOM      2  N   UNL     1       1.339   5.363  -4.145  0.00  0.00    -0.228 NA
ATOM      3  C   UNL     1       2.124   5.485  -2.950  0.00  0.00    +0.157 A 
ATOM      4  C   UNL     1       3.512   5.549  -3.035  0.00  0.00    +0.170 A 
ATOM      5  N   UNL     1       4.185   5.575  -1.862  0.00  0.00    -0.193 NA
ATOM      6  C   UNL     1       3.538   5.755  -0.691  0.00  0.00    +0.260 A 
ATOM      7  N   UNL     1       2.260   5.308  -0.603  0.00  0.00    -0.171 NA
ATOM      8  N   UNL     1       4.193   6.436   0.378  0.00  0.00    -0.086 NA
ATOM      9  N   UNL     1       4.119   5.194  -4.266  0.00  0.00    -0.217 NA
ATOM     10  C   UNL     1       1.499   5.261  -1.722  0.00  0.00    +0.299 A 
ATOM     11  O   UNL     1       0.386   4.648  -1.709  0.00  0.00    -0.264 OA
ATOM     12  C   UNL     1       3.221   4.552  -5.215  0.00  0.00    +0.138 C 
ENDROOT
BRANCH   1  13
ATOM     13  C   UNL     1       1.149   4.708  -6.396  0.00  0.00    +0.203 C 
ATOM     14  O   UNL     1       2.113   4.783  -7.538  0.00  0.00    -0.219 OA
BRANCH  13  16
ATOM     15  C   UNL     1      -0.212   5.396  -8.397  0.00  0.00    +0.038 C 
ATOM     16  C   UNL     1       0.128   5.998  -6.907  0.00  0.00    +0.184 C 
ATOM     17  O   UNL     1      -1.098   5.366  -6.289  0.00  0.00    -0.220 OA
ENDBRANCH  13  16
ENDBRANCH   1  13
TORSDOF 2
ENDMDL
MODEL 5
REMARK VINA RESULT:      -6.5      2.531      3.699
REMARK  Name = 
REMARK  2 active torsions:
REMARK  status: ('A' for Active; 'I' for Inactive)
REMARK    1  A    between atoms: C_2  and  C_4
REMARK    2  A    between atoms: C_4  and  C_6
REMARK                            x       y       z     vdW  Elec       q    Type
REMARK                         _______ _______ _______ _____ _____    ______ ____
ROOT
ATOM      1  C   UNL     1       2.989   4.766  -7.543  0.00  0.00    +0.147 C 
ATOM      2  N   UNL     1       2.264   5.420  -8.762  0.00  0.00    -0.228 NA
ATOM      3  C   UNL     1       3.043   5.407  -9.966  0.00  0.00    +0.157 A 
ATOM      4  C   UNL     1       4.416   5.181  -9.902  0.00  0.00    +0.170 A 
ATOM      5  N   UNL     1       5.094   5.270 -11.069  0.00  0.00    -0.193 NA
ATOM      6  C   UNL     1       4.443   5.349 -12.249  0.00  0.00    +0.260 A 
ATOM      7  N   UNL     1       3.222   5.939 -12.256  0.00  0.00    -0.171 NA
ATOM      8  N   UNL     1       5.033   4.781 -13.418  0.00  0.00    -0.086 NA
ATOM      9  N   UNL     1       5.045   5.269  -8.635  0.00  0.00    -0.217 NA
ATOM     10  C   UNL     1       2.459   5.889 -11.138  0.00  0.00    +0.299 A 
ATOM     11  O   UNL     1       1.418   6.613 -11.045  0.00  0.00    -0.264 OA
ATOM     12  C   UNL     1       4.211   5.843  -7.589  0.00  0.00    +0.138 C 
ENDROOT
BRANCH   1  13
ATOM     13  C   UNL     1       2.122   5.725  -6.433  0.00  0.00    +0.203 C 
ATOM     14  O   UNL     1       3.155   5.506  -5.372  0.00  0.00    -0.219 OA
BRANCH  13  16
ATOM     15  C   UNL     1       0.591   5.065  -4.549  0.00  0.00    +0.038 C 
ATOM     16  C   UNL     1       1.086   4.427  -5.980  0.00  0.00    +0.184 C 
ATOM     17  O   UNL     1      -0.089   5.008  -6.732  0.00  0.00    -0.220 OA
ENDBRANCH  13  16
ENDBRANCH   1  13
TORSDOF 2
ENDMDL
MODEL 6
REMARK VINA RESULT:      -6.4      2.454      5.922
REMARK  Name = 
REMARK  2 active torsions:
REMARK  status: ('A' for Active; 'I' for Inactive)
REMARK    1  A    between atoms: C_2  and  C_4
REMARK    2  A    between atoms: C_4  and  C_6
REMARK                            x       y       z     vdW  Elec       q    Type
REMARK                         _______ _______ _______ _____ _____    ______ ____
ROOT
ATOM      1  C   UNL     1       1.426   4.917  -7.521  0.00  0.00    +0.147 C 
ATOM      2  N   UNL     1       1.715   5.615  -6.154  0.00  0.00    -0.228 NA
ATOM      3  C   UNL     1       0.594   5.606  -5.258  0.00  0.00    +0.157 A 
ATOM      4  C   UNL     1      -0.682   5.343  -5.747  0.00  0.00    +0.170 A 
ATOM      5  N   UNL     1      -1.697   5.438  -4.858  0.00  0.00    -0.193 NA
ATOM      6  C   UNL     1      -1.456   5.559  -3.535  0.00  0.00    +0.260 A 
ATOM      7  N   UNL     1      -0.311   6.180  -3.158  0.00  0.00    -0.171 NA
ATOM      8  N   UNL     1      -2.375   5.000  -2.598  0.00  0.00    -0.086 NA
ATOM      9  N   UNL     1      -0.879   5.388  -7.150  0.00  0.00    -0.217 NA
ATOM     10  C   UNL     1       0.768   6.127  -3.975  0.00  0.00    +0.299 A 
ATOM     11  O   UNL     1       1.772   6.875  -3.754  0.00  0.00    -0.264 OA
ATOM     12  C   UNL     1       0.233   5.963  -7.894  0.00  0.00    +0.138 C 
ENDROOT
BRANCH   1  13
ATOM     13  C   UNL     1       2.582   5.874  -8.325  0.00  0.00    +0.203 C 
ATOM     14  O   UNL     1       1.997   5.536  -9.660  0.00  0.00    -0.219 OA
BRANCH  13  16
ATOM     15  C   UNL     1       4.635   5.158  -9.591  0.00  0.00    +0.038 C 
ATOM     16  C   UNL     1       3.769   4.627  -8.300  0.00  0.00    +0.184 C 
ATOM     17  O   UNL     1       4.637   5.375  -7.315  0.00  0.00    -0.220 OA
ENDBRANCH  13  16
ENDBRANCH   1  13
TORSDOF 2
ENDMDL
MODEL 7
REMARK VINA RESULT:      -6.3      2.999      6.836
REMARK  Name = 
REMARK  2 active torsions:
REMARK  status: ('A' for Active; 'I' for Inactive)
REMARK    1  A    between atoms: C_2  and  C_4
REMARK    2  A    between atoms: C_4  and  C_6
REMARK                            x       y       z     vdW  Elec       q    Type
REMARK                         _______ _______ _______ _____ _____    ______ ____
ROOT
ATOM      1  C   UNL     1       4.191   5.514 -10.401  0.00  0.00    +0.147 C 
ATOM      2  N   UNL     1       3.897   6.295  -9.081  0.00  0.00    -0.228 NA
ATOM      3  C   UNL     1       2.571   6.085  -8.575  0.00  0.00    +0.157 A 
ATOM      4  C   UNL     1       1.587   5.556  -9.406  0.00  0.00    +0.170 A 
ATOM      5  N   UNL     1       0.343   5.470  -8.884  0.00  0.00    -0.193 NA
ATOM      6  C   UNL     1       0.124   5.675  -7.567  0.00  0.00    +0.260 A 
ATOM      7  N   UNL     1       0.955   6.525  -6.916  0.00  0.00    -0.171 NA
ATOM      8  N   UNL     1      -0.928   4.968  -6.910  0.00  0.00    -0.086 NA
ATOM      9  N   UNL     1       1.843   5.520 -10.800  0.00  0.00    -0.217 NA
ATOM     10  C   UNL     1       2.229   6.668  -7.355  0.00  0.00    +0.299 A 
ATOM     11  O   UNL     1       2.955   7.609  -6.905  0.00  0.00    -0.264 OA
ATOM     12  C   UNL     1       3.010   6.286 -11.216  0.00  0.00    +0.138 C 
ENDROOT
BRANCH   1  13
ATOM     13  C   UNL     1       5.348   6.662 -10.897  0.00  0.00    +0.203 C 
ATOM     14  O   UNL     1       5.087   6.366 -12.340  0.00  0.00    -0.219 OA
BRANCH  13  16
ATOM     15  C   UNL     1       7.762   6.421 -11.562  0.00  0.00    +0.038 C 
ATOM     16  C   UNL     1       6.659   5.564 -10.697  0.00  0.00    +0.184 C 
ATOM     17  O   UNL     1       7.081   6.196  -9.390  0.00  0.00    -0.220 OA
ENDBRANCH  13  16
ENDBRANCH   1  13
TORSDOF 2
ENDMDL
MODEL 8
REMARK VINA RESULT:      -6.3      3.037      4.050
REMARK  Name = 
REMARK  2 active torsions:
REMARK  status: ('A' for Active; 'I' for Inactive)
REMARK    1  A    between atoms: C_2  and  C_4
REMARK    2  A    between atoms: C_4  and  C_6
REMARK                            x       y       z     vdW  Elec       q    Type
REMARK                         _______ _______ _______ _____ _____    ______ ____
ROOT
ATOM      1  C   UNL     1      -0.436   6.759  -4.242  0.00  0.00    +0.147 C 
ATOM      2  N   UNL     1       0.570   6.084  -3.258  0.00  0.00    -0.228 NA
ATOM      3  C   UNL     1       1.945   6.326  -3.589  0.00  0.00    +0.157 A 
ATOM      4  C   UNL     1       2.283   6.784  -4.860  0.00  0.00    +0.170 A 
ATOM      5  N   UNL     1       3.604   6.905  -5.123  0.00  0.00    -0.193 NA
ATOM      6  C   UNL     1       4.523   6.803  -4.139  0.00  0.00    +0.260 A 
ATOM      7  N   UNL     1       4.225   6.011  -3.080  0.00  0.00    -0.171 NA
ATOM      8  N   UNL     1       5.733   7.554  -4.226  0.00  0.00    -0.086 NA
ATOM      9  N   UNL     1       1.296   6.711  -5.875  0.00  0.00    -0.217 NA
ATOM     10  C   UNL     1       2.929   5.840  -2.727  0.00  0.00    +0.299 A 
ATOM     11  O   UNL     1       2.611   4.941  -1.887  0.00  0.00    -0.264 OA
ATOM     12  C   UNL     1       0.127   5.920  -5.520  0.00  0.00    +0.138 C 
ENDROOT
BRANCH   1  13
ATOM     13  C   UNL     1      -1.627   5.582  -3.932  0.00  0.00    +0.203 C 
ATOM     14  O   UNL     1      -2.588   6.246  -4.867  0.00  0.00    -0.219 OA
BRANCH  13  16
ATOM     15  C   UNL     1      -3.773   6.229  -2.791  0.00  0.00    +0.038 C 
ATOM     16  C   UNL     1      -2.163   6.367  -2.497  0.00  0.00    +0.184 C 
ATOM     17  O   UNL     1      -2.122   5.086  -1.696  0.00  0.00    -0.220 OA
ENDBRANCH  13  16
ENDBRANCH   1  13
TORSDOF 2
ENDMDL
MODEL 9
REMARK VINA RESULT:      -6.3      5.343      6.813
REMARK  Name = 
REMARK  2 active torsions:
REMARK  status: ('A' for Active; 'I' for Inactive)
REMARK    1  A    between atoms: C_2  and  C_4
REMARK    2  A    between atoms: C_4  and  C_6
REMARK                            x       y       z     vdW  Elec       q    Type
REMARK                         _______ _______ _______ _____ _____    ______ ____
ROOT
ATOM      1  C   UNL     1       3.145   6.125 -12.347  0.00  0.00    +0.147 C 
ATOM      2  N   UNL     1       4.029   5.971 -11.069  0.00  0.00    -0.228 NA
ATOM      3  C   UNL     1       5.422   5.779 -11.356  0.00  0.00    +0.157 A 
ATOM      4  C   UNL     1       5.820   5.395 -12.633  0.00  0.00    +0.170 A 
ATOM      5  N   UNL     1       7.139   5.150 -12.803  0.00  0.00    -0.193 NA
ATOM      6  C   UNL     1       8.037   5.477 -11.849  0.00  0.00    +0.260 A 
ATOM      7  N   UNL     1       7.618   5.464 -10.559  0.00  0.00    -0.171 NA
ATOM      8  N   UNL     1       9.358   5.861 -12.228  0.00  0.00    -0.086 NA
ATOM      9  N   UNL     1       4.826   4.916 -13.524  0.00  0.00    -0.217 NA
ATOM     10  C   UNL     1       6.315   5.715 -10.286  0.00  0.00    +0.299 A 
ATOM     11  O   UNL     1       5.855   5.495  -9.122  0.00  0.00    -0.264 OA
ATOM     12  C   UNL     1       3.540   4.643 -12.897  0.00  0.00    +0.138 C 
ENDROOT
BRANCH   1  13
ATOM     13  C   UNL     1       1.771   5.513 -11.547  0.00  0.00    +0.203 C 
ATOM     14  O   UNL     1       1.110   5.178 -12.846  0.00  0.00    -0.219 OA
BRANCH  13  16
ATOM     15  C   UNL     1      -0.488   6.572 -11.222  0.00  0.00    +0.038 C 
ATOM     16  C   UNL     1       1.071   7.075 -11.359  0.00  0.00    +0.184 C 
ATOM     17  O   UNL     1       1.283   7.068  -9.862  0.00  0.00    -0.220 OA
ENDBRANCH  13  16
ENDBRANCH   1  13
TORSDOF 2
ENDMDL
