MODEL 1
REMARK VINA RESULT:      -4.1      0.000      0.000
REMARK  Name = 
REMARK  0 active torsions:
REMARK  status: ('A' for Active; 'I' for Inactive)
REMARK                            x       y       z     vdW  Elec       q    Type
REMARK                         _______ _______ _______ _____ _____    ______ ____
ROOT
ATOM      1  N   UNL     1       6.471   8.411 -11.481  0.00  0.00    -0.128 NA
ATOM      2  C   UNL     1       6.807   7.073 -11.872  0.00  0.00    +0.092 A 
ATOM      3  C   UNL     1       7.862   6.390 -11.280  0.00  0.00    +0.039 A 
ATOM      4  C   UNL     1       8.576   5.525 -12.101  0.00  0.00    +0.100 A 
ATOM      5  N   UNL     1       7.828   4.853 -13.008  0.00  0.00    -0.242 NA
ATOM      6  C   UNL     1       6.986   5.603 -13.759  0.00  0.00    +0.100 A 
ATOM      7  C   UNL     1       6.276   6.568 -13.054  0.00  0.00    +0.039 A 
ENDROOT
TORSDOF 0
ENDMDL
MODEL 2
REMARK VINA RESULT:      -3.9      1.441      3.266
REMARK  Name = 
REMARK  0 active torsions:
REMARK  status: ('A' for Active; 'I' for Inactive)
REMARK                            x       y       z     vdW  Elec       q    Type
REMARK                         _______ _______ _______ _____ _____    ______ ____
ROOT
ATOM      1  N   UNL     1       7.680   4.753 -12.731  0.00  0.00    -0.128 NA
ATOM      2  C   UNL     1       6.893   5.612 -11.896  0.00  0.00    +0.092 A 
ATOM      3  C   UNL     1       5.537   5.384 -11.699  0.00  0.00    +0.039 A 
ATOM      4  C   UNL     1       4.735   6.510 -11.555  0.00  0.00    +0.100 A 
ATOM      5  N   UNL     1       5.303   7.529 -10.867  0.00  0.00    -0.242 NA
ATOM      6  C   UNL     1       6.544   7.900 -11.267  0.00  0.00    +0.100 A 
ATOM      7  C   UNL     1       7.413   6.847 -11.526  0.00  0.00    +0.039 A 
ENDROOT
TORSDOF 0
ENDMDL
MODEL 3
REMARK VINA RESULT:      -3.8     12.590     13.442
REMARK  Name = 
REMARK  0 active torsions:
REMARK  status: ('A' for Active; 'I' for Inactive)
REMARK                            x       y       z     vdW  Elec       q    Type
REMARK                         _______ _______ _______ _____ _____    ______ ____
ROOT
ATOM      1  N   UNL     1      -1.919   8.460  -4.491  0.00  0.00    -0.128 NA
ATOM      2  C   UNL     1      -1.973   7.219  -3.776  0.00  0.00    +0.092 A 
ATOM      3  C   UNL     1      -2.348   6.038  -4.404  0.00  0.00    +0.039 A 
ATOM      4  C   UNL     1      -3.063   5.128  -3.634  0.00  0.00    +0.100 A 
ATOM      5  N   UNL     1      -2.676   5.050  -2.338  0.00  0.00    -0.242 NA
ATOM      6  C   UNL     1      -2.573   6.228  -1.676  0.00  0.00    +0.100 A 
ATOM      7  C   UNL     1      -1.948   7.245  -2.386  0.00  0.00    +0.039 A 
ENDROOT
TORSDOF 0
ENDMDL
MODEL 4
REMARK VINA RESULT:      -3.7     11.574     12.393
REMARK  Name = 
REMARK  0 active torsions:
REMARK  status: ('A' for Active; 'I' for Inactive)
REMARK                            x       y       z     vdW  Elec       q    Type
REMARK                         _______ _______ _______ _____ _____    ______ ____
ROOT
ATOM      1  N   UNL     1      -2.582   4.915  -2.366  0.00  0.00    -0.128 NA
ATOM      2  C   UNL     1      -2.000   5.679  -3.431  0.00  0.00    +0.092 A 
ATOM      3  C   UNL     1      -0.675   5.500  -3.809  0.00  0.00    +0.039 A 
ATOM      4  C   UNL     1       0.004   6.635  -4.238  0.00  0.00    +0.100 A 
ATOM      5  N   UNL     1      -0.741   7.504  -4.963  0.00  0.00    -0.242 NA
ATOM      6  C   UNL     1      -1.932   7.861  -4.424  0.00  0.00    +0.100 A 
ATOM      7  C   UNL     1      -2.666   6.813  -3.883  0.00  0.00    +0.039 A 
ENDROOT
TORSDOF 0
ENDMDL
MODEL 5
REMARK VINA RESULT:      -3.6     11.230     11.995
REMARK  Name = 
REMARK  0 active torsions:
REMARK  status: ('A' for Active; 'I' for Inactive)
REMARK                            x       y       z     vdW  Elec       q    Type
REMARK                         _______ _______ _______ _____ _____    ______ ____
ROOT
ATOM      1  N   UNL     1      -2.624   4.888  -2.465  0.00  0.00    -0.128 NA
ATOM      2  C   UNL     1      -1.879   5.487  -3.533  0.00  0.00    +0.092 A 
ATOM      3  C   UNL     1      -2.476   5.785  -4.752  0.00  0.00    +0.039 A 
ATOM      4  C   UNL     1      -1.677   5.646  -5.881  0.00  0.00    +0.100 A 
ATOM      5  N   UNL     1      -0.384   6.012  -5.713  0.00  0.00    -0.242 NA
ATOM      6  C   UNL     1       0.249   5.483  -4.638  0.00  0.00    +0.100 A 
ATOM      7  C   UNL     1      -0.491   5.489  -3.462  0.00  0.00    +0.039 A 
ENDROOT
TORSDOF 0
ENDMDL
MODEL 6
REMARK VINA RESULT:      -3.5      1.621      2.247
REMARK  Name = 
REMARK  0 active torsions:
REMARK  status: ('A' for Active; 'I' for Inactive)
REMARK                            x       y       z     vdW  Elec       q    Type
REMARK                         _______ _______ _______ _____ _____    ______ ____
ROOT
ATOM      1  N   UNL     1       7.442   5.916  -9.352  0.00  0.00    -0.128 NA
ATOM      2  C   UNL     1       7.556   6.271 -10.736  0.00  0.00    +0.092 A 
ATOM      3  C   UNL     1       6.902   7.382 -11.254  0.00  0.00    +0.039 A 
ATOM      4  C   UNL     1       6.440   7.274 -12.560  0.00  0.00    +0.100 A 
ATOM      5  N   UNL     1       7.252   6.582 -13.396  0.00  0.00    -0.242 NA
ATOM      6  C   UNL     1       7.663   5.368 -12.956  0.00  0.00    +0.100 A 
ATOM      7  C   UNL     1       8.070   5.335 -11.627  0.00  0.00    +0.039 A 
ENDROOT
TORSDOF 0
ENDMDL
MODEL 7
REMARK VINA RESULT:      -3.5      2.406      3.538
REMARK  Name = 
REMARK  0 active torsions:
REMARK  status: ('A' for Active; 'I' for Inactive)
REMARK                            x       y       z     vdW  Elec       q    Type
REMARK                         _______ _______ _______ _____ _____    ______ ____
ROOT
ATOM      1  N   UNL     1       4.281   4.939  -9.874  0.00  0.00    -0.128 NA
ATOM      2  C   UNL     1       5.245   5.995  -9.976  0.00  0.00    +0.092 A 
ATOM      3  C   UNL     1       4.989   7.138 -10.723  0.00  0.00    +0.039 A 
ATOM      4  C   UNL     1       6.077   7.709 -11.373  0.00  0.00    +0.100 A 
ATOM      5  N   UNL     1       7.241   7.663 -10.681  0.00  0.00    -0.242 NA
ATOM      6  C   UNL     1       7.590   6.452 -10.182  0.00  0.00    +0.100 A 
ATOM      7  C   UNL     1       6.555   5.747  -9.581  0.00  0.00    +0.039 A 
ENDROOT
TORSDOF 0
ENDMDL
MODEL 8
REMARK VINA RESULT:      -3.5      1.552      2.157
REMARK  Name = 
REMARK  0 active torsions:
REMARK  status: ('A' for Active; 'I' for Inactive)
REMARK                            x       y       z     vdW  Elec       q    Type
REMARK                         _______ _______ _______ _____ _____    ______ ____
ROOT
ATOM      1  N   UNL     1       6.416   7.599 -14.331  0.00  0.00    -0.128 NA
ATOM      2  C   UNL     1       6.729   6.887 -13.127  0.00  0.00    +0.092 A 
ATOM      3  C   UNL     1       6.397   7.397 -11.878  0.00  0.00    +0.039 A 
ATOM      4  C   UNL     1       7.284   7.124 -10.844  0.00  0.00    +0.100 A 
ATOM      5  N   UNL     1       7.846   5.892 -10.885  0.00  0.00    -0.242 NA
ATOM      6  C   UNL     1       8.399   5.530 -12.069  0.00  0.00    +0.100 A 
ATOM      7  C   UNL     1       7.634   5.834 -13.188  0.00  0.00    +0.039 A 
ENDROOT
TORSDOF 0
ENDMDL
MODEL 9
REMARK VINA RESULT:      -3.4     12.242     13.161
REMARK  Name = 
REMARK  0 active torsions:
REMARK  status: ('A' for Active; 'I' for Inactive)
REMARK                            x       y       z     vdW  Elec       q    Type
REMARK                         _______ _______ _______ _____ _____    ______ ____
ROOT
ATOM      1  N   UNL     1      -2.027   5.519  -6.153  0.00  0.00    -0.128 NA
ATOM      2  C   UNL     1      -2.508   6.087  -4.928  0.00  0.00    +0.092 A 
ATOM      3  C   UNL     1      -2.234   7.406  -4.585  0.00  0.00    +0.039 A 
ATOM      4  C   UNL     1      -2.050   7.668  -3.233  0.00  0.00    +0.100 A 
ATOM      5  N   UNL     1      -2.853   6.961  -2.402  0.00  0.00    -0.242 NA
ATOM      6  C   UNL     1      -2.891   5.622  -2.606  0.00  0.00    +0.100 A 
ATOM      7  C   UNL     1      -2.987   5.237  -3.938  0.00  0.00    +0.039 A 
ENDROOT
TORSDOF 0
ENDMDL
