MODEL 1
REMARK VINA RESULT:      -8.6      0.000      0.000
REMARK  Name = 
REMARK  11 active torsions:
REMARK  status: ('A' for Active; 'I' for Inactive)
REMARK    1  A    between atoms: C_2  and  O_4
REMARK    2  A    between atoms: O_4  and  C_5
REMARK    3  A    between atoms: C_5  and  C_7
REMARK    4  A    between atoms: C_7  and  N_9
REMARK    5  A    between atoms: N_9  and  P_10
REMARK    6  A    between atoms: P_10  and  O_12
REMARK    7  A    between atoms: P_10  and  O_30
REMARK    8  A    between atoms: O_12  and  C_13
REMARK    9  A    between atoms: C_13  and  C_14
REMARK   10  A    between atoms: C_16  and  N_17
REMARK   11  A    between atoms: O_30  and  C_31
REMARK                            x       y       z     vdW  Elec       q    Type
REMARK                         _______ _______ _______ _____ _____    ______ ____
ROOT
ATOM      1  P   UNL     1       2.988   4.938  -7.907  0.00  0.00    +0.480 P 
ATOM      2  O   UNL     1       2.447   3.602  -7.507  0.00  0.00    -0.227 OA
ENDROOT
BRANCH   1   3
ATOM      3  N   UNL     1       3.510   4.936  -9.588  0.00  0.00    -0.101 NA
BRANCH   3   4
ATOM      4  C   UNL     1       3.276   6.415 -10.073  0.00  0.00    +0.183 C 
ATOM      5  C   UNL     1       4.864   6.598 -10.452  0.00  0.00    +0.031 C 
BRANCH   4   6
ATOM      6  C   UNL     1       2.891   5.937 -11.565  0.00  0.00    +0.333 C 
ATOM      7  O   UNL     1       3.823   6.120 -12.408  0.00  0.00    -0.249 OA
BRANCH   6   8
ATOM      8  O   UNL     1       1.695   6.573 -11.924  0.00  0.00    -0.451 OA
BRANCH   8  10
ATOM      9  C   UNL     1      -0.525   7.471 -11.592  0.00  0.00    +0.047 C 
ATOM     10  C   UNL     1       0.538   6.528 -11.106  0.00  0.00    +0.169 C 
ATOM     11  C   UNL     1      -0.064   5.150 -11.084  0.00  0.00    +0.047 C 
ENDBRANCH   8  10
ENDBRANCH   6   8
ENDBRANCH   4   6
ENDBRANCH   3   4
ENDBRANCH   1   3
BRANCH   1  12
ATOM     12  O   UNL     1       1.786   6.103  -7.773  0.00  0.00    -0.270 OA
BRANCH  12  13
ATOM     13  C   UNL     1       0.621   5.633  -7.328  0.00  0.00    +0.186 C 
BRANCH  13  14
ATOM     14  C   UNL     1       0.055   6.562  -6.095  0.00  0.00    +0.180 C 
ATOM     15  C   UNL     1      -1.594   6.269  -6.476  0.00  0.00    +0.215 C 
ATOM     16  O   UNL     1      -1.520   4.756  -6.400  0.00  0.00    -0.217 OA
ATOM     17  C   UNL     1      -1.835   6.606  -4.896  0.00  0.00    +0.209 C 
ATOM     18  F   UNL     1      -3.150   6.450  -4.828  0.00  0.00    -0.233 F 
ATOM     19  C   UNL     1      -1.161   7.802  -4.518  0.00  0.00    +0.043 C 
ATOM     20  C   UNL     1      -1.071   5.256  -4.381  0.00  0.00    +0.241 C 
ATOM     21  O   UNL     1       0.210   5.453  -5.137  0.00  0.00    -0.331 OA
BRANCH  20  22
ATOM     22  N   UNL     1      -0.495   5.928  -3.054  0.00  0.00    -0.253 N 
ATOM     23  C   UNL     1      -1.178   5.535  -1.947  0.00  0.00    +0.355 A 
ATOM     24  O   UNL     1      -2.306   5.034  -1.912  0.00  0.00    -0.244 OA
ATOM     25  N   UNL     1      -0.698   6.026  -0.779  0.00  0.00    -0.153 NA
ATOM     26  C   UNL     1       0.581   6.456  -0.705  0.00  0.00    +0.285 A 
ATOM     27  O   UNL     1       0.946   7.362   0.106  0.00  0.00    -0.265 OA
ATOM     28  C   UNL     1       1.425   5.952  -1.687  0.00  0.00    +0.081 A 
ATOM     29  C   UNL     1       0.822   5.595  -2.889  0.00  0.00    +0.087 A 
ENDBRANCH  20  22
ENDBRANCH  13  14
ENDBRANCH  12  13
ENDBRANCH   1  12
BRANCH   1  30
ATOM     30  O   UNL     1       4.249   5.489  -6.901  0.00  0.00    -0.411 OA
BRANCH  30  31
ATOM     31  C   UNL     1       3.936   5.845  -5.606  0.00  0.00    +0.148 A 
ATOM     32  C   UNL     1       4.092   4.904  -4.596  0.00  0.00    +0.037 A 
ATOM     33  C   UNL     1       4.612   5.283  -3.362  0.00  0.00    +0.003 A 
ATOM     34  C   UNL     1       4.874   6.612  -3.078  0.00  0.00    +0.000 A 
ATOM     35  C   UNL     1       4.320   7.544  -3.940  0.00  0.00    +0.003 A 
ATOM     36  C   UNL     1       3.849   7.162  -5.176  0.00  0.00    +0.037 A 
ENDBRANCH  30  31
ENDBRANCH   1  30
TORSDOF 11
ENDMDL
MODEL 2
REMARK VINA RESULT:      -8.5      0.783      2.028
REMARK  Name = 
REMARK  11 active torsions:
REMARK  status: ('A' for Active; 'I' for Inactive)
REMARK    1  A    between atoms: C_2  and  O_4
REMARK    2  A    between atoms: O_4  and  C_5
REMARK    3  A    between atoms: C_5  and  C_7
REMARK    4  A    between atoms: C_7  and  N_9
REMARK    5  A    between atoms: N_9  and  P_10
REMARK    6  A    between atoms: P_10  and  O_12
REMARK    7  A    between atoms: P_10  and  O_30
REMARK    8  A    between atoms: O_12  and  C_13
REMARK    9  A    between atoms: C_13  and  C_14
REMARK   10  A    between atoms: C_16  and  N_17
REMARK   11  A    between atoms: O_30  and  C_31
REMARK                            x       y       z     vdW  Elec       q    Type
REMARK                         _______ _______ _______ _____ _____    ______ ____
ROOT
ATOM      1  P   UNL     1       2.702   4.878  -7.990  0.00  0.00    +0.480 P 
ATOM      2  O   UNL     1       2.832   3.548  -8.662  0.00  0.00    -0.227 OA
ENDROOT
BRANCH   1   3
ATOM      3  N   UNL     1       2.377   6.153  -9.158  0.00  0.00    -0.101 NA
BRANCH   3   4
ATOM      4  C   UNL     1       2.138   5.391 -10.515  0.00  0.00    +0.183 C 
ATOM      5  C   UNL     1       0.762   6.238 -10.810  0.00  0.00    +0.031 C 
BRANCH   4   6
ATOM      6  C   UNL     1       3.054   6.432 -11.340  0.00  0.00    +0.333 C 
ATOM      7  O   UNL     1       3.410   5.995 -12.478  0.00  0.00    -0.249 OA
BRANCH   6   8
ATOM      8  O   UNL     1       4.138   6.787 -10.526  0.00  0.00    -0.451 OA
BRANCH   8  10
ATOM      9  C   UNL     1       6.214   7.827 -11.203  0.00  0.00    +0.047 C 
ATOM     10  C   UNL     1       5.483   6.549 -10.909  0.00  0.00    +0.169 C 
ATOM     11  C   UNL     1       6.244   5.839  -9.823  0.00  0.00    +0.047 C 
ENDBRANCH   8  10
ENDBRANCH   6   8
ENDBRANCH   4   6
ENDBRANCH   3   4
ENDBRANCH   1   3
BRANCH   1  12
ATOM     12  O   UNL     1       1.404   4.852  -6.924  0.00  0.00    -0.270 OA
BRANCH  12  13
ATOM     13  C   UNL     1       0.387   5.633  -7.287  0.00  0.00    +0.186 C 
BRANCH  13  14
ATOM     14  C   UNL     1      -0.096   6.578  -6.032  0.00  0.00    +0.180 C 
ATOM     15  C   UNL     1      -1.768   6.325  -6.332  0.00  0.00    +0.215 C 
ATOM     16  O   UNL     1      -1.728   4.811  -6.254  0.00  0.00    -0.217 OA
ATOM     17  C   UNL     1      -1.924   6.672  -4.743  0.00  0.00    +0.209 C 
ATOM     18  F   UNL     1      -3.237   6.548  -4.612  0.00  0.00    -0.233 F 
ATOM     19  C   UNL     1      -1.203   7.851  -4.403  0.00  0.00    +0.043 C 
ATOM     20  C   UNL     1      -1.169   5.305  -4.261  0.00  0.00    +0.241 C 
ATOM     21  O   UNL     1       0.078   5.468  -5.078  0.00  0.00    -0.331 OA
BRANCH  20  22
ATOM     22  N   UNL     1      -0.513   5.966  -2.966  0.00  0.00    -0.253 N 
ATOM     23  C   UNL     1      -1.139   5.576  -1.825  0.00  0.00    +0.355 A 
ATOM     24  O   UNL     1      -2.269   5.088  -1.728  0.00  0.00    -0.244 OA
ATOM     25  N   UNL     1      -0.589   6.057  -0.683  0.00  0.00    -0.153 NA
ATOM     26  C   UNL     1       0.696   6.473  -0.679  0.00  0.00    +0.285 A 
ATOM     27  O   UNL     1       1.117   7.371   0.114  0.00  0.00    -0.265 OA
ATOM     28  C   UNL     1       1.480   5.963  -1.706  0.00  0.00    +0.081 A 
ATOM     29  C   UNL     1       0.807   5.617  -2.875  0.00  0.00    +0.087 A 
ENDBRANCH  20  22
ENDBRANCH  13  14
ENDBRANCH  12  13
ENDBRANCH   1  12
BRANCH   1  30
ATOM     30  O   UNL     1       4.050   5.288  -7.031  0.00  0.00    -0.411 OA
BRANCH  30  31
ATOM     31  C   UNL     1       3.821   5.721  -5.742  0.00  0.00    +0.148 A 
ATOM     32  C   UNL     1       4.088   4.856  -4.688  0.00  0.00    +0.037 A 
ATOM     33  C   UNL     1       4.684   5.335  -3.525  0.00  0.00    +0.003 A 
ATOM     34  C   UNL     1       4.916   6.689  -3.349  0.00  0.00    +0.000 A 
ATOM     35  C   UNL     1       4.264   7.541  -4.226  0.00  0.00    +0.003 A 
ATOM     36  C   UNL     1       3.717   7.061  -5.394  0.00  0.00    +0.037 A 
ENDBRANCH  30  31
ENDBRANCH   1  30
TORSDOF 11
ENDMDL
MODEL 3
REMARK VINA RESULT:      -8.4      2.633      4.587
REMARK  Name = 
REMARK  11 active torsions:
REMARK  status: ('A' for Active; 'I' for Inactive)
REMARK    1  A    between atoms: C_2  and  O_4
REMARK    2  A    between atoms: O_4  and  C_5
REMARK    3  A    between atoms: C_5  and  C_7
REMARK    4  A    between atoms: C_7  and  N_9
REMARK    5  A    between atoms: N_9  and  P_10
REMARK    6  A    between atoms: P_10  and  O_12
REMARK    7  A    between atoms: P_10  and  O_30
REMARK    8  A    between atoms: O_12  and  C_13
REMARK    9  A    between atoms: C_13  and  C_14
REMARK   10  A    between atoms: C_16  and  N_17
REMARK   11  A    between atoms: O_30  and  C_31
REMARK                            x       y       z     vdW  Elec       q    Type
REMARK                         _______ _______ _______ _____ _____    ______ ____
ROOT
ATOM      1  P   UNL     1       2.472   6.781  -7.458  0.00  0.00    +0.480 P 
ATOM      2  O   UNL     1       1.823   7.819  -8.317  0.00  0.00    -0.227 OA
ENDROOT
BRANCH   1   3
ATOM      3  N   UNL     1       3.634   5.831  -8.376  0.00  0.00    -0.101 NA
BRANCH   3   4
ATOM      4  C   UNL     1       3.986   6.734  -9.617  0.00  0.00    +0.183 C 
ATOM      5  C   UNL     1       5.469   6.042  -9.766  0.00  0.00    +0.031 C 
BRANCH   4   6
ATOM      6  C   UNL     1       3.308   5.697 -10.650  0.00  0.00    +0.333 C 
ATOM      7  O   UNL     1       4.136   5.191 -11.469  0.00  0.00    -0.249 OA
BRANCH   6   8
ATOM      8  O   UNL     1       2.245   6.355 -11.282  0.00  0.00    -0.451 OA
BRANCH   8  10
ATOM      9  C   UNL     1       0.745   4.714 -10.331  0.00  0.00    +0.047 C 
ATOM     10  C   UNL     1       0.942   5.798 -11.352  0.00  0.00    +0.169 C 
ATOM     11  C   UNL     1      -0.113   6.840 -11.107  0.00  0.00    +0.047 C 
ENDBRANCH   8  10
ENDBRANCH   6   8
ENDBRANCH   4   6
ENDBRANCH   3   4
ENDBRANCH   1   3
BRANCH   1  12
ATOM     12  O   UNL     1       3.323   7.522  -6.214  0.00  0.00    -0.270 OA
BRANCH  12  13
ATOM     13  C   UNL     1       3.828   6.672  -5.320  0.00  0.00    +0.186 C 
BRANCH  13  14
ATOM     14  C   UNL     1       2.921   6.666  -3.949  0.00  0.00    +0.180 C 
ATOM     15  C   UNL     1       3.346   5.054  -3.535  0.00  0.00    +0.215 C 
ATOM     16  O   UNL     1       4.847   5.271  -3.527  0.00  0.00    -0.217 OA
ATOM     17  C   UNL     1       2.996   5.541  -2.015  0.00  0.00    +0.209 C 
ATOM     18  F   UNL     1       3.251   4.420  -1.354  0.00  0.00    -0.233 F 
ATOM     19  C   UNL     1       1.745   6.219  -1.970  0.00  0.00    +0.043 C 
ATOM     20  C   UNL     1       4.273   6.557  -1.932  0.00  0.00    +0.241 C 
ATOM     21  O   UNL     1       3.995   7.328  -3.189  0.00  0.00    -0.331 OA
BRANCH  20  22
ATOM     22  N   UNL     1       3.532   7.625  -1.008  0.00  0.00    -0.253 N 
ATOM     23  C   UNL     1       3.892   7.503   0.297  0.00  0.00    +0.355 A 
ATOM     24  O   UNL     1       4.415   6.521   0.833  0.00  0.00    -0.244 OA
ATOM     25  N   UNL     1       3.341   8.423   1.127  0.00  0.00    -0.153 NA
ATOM     26  C   UNL     1       2.881   9.590   0.625  0.00  0.00    +0.285 A 
ATOM     27  O   UNL     1       1.934  10.236   1.171  0.00  0.00    -0.265 OA
ATOM     28  C   UNL     1       3.409   9.945  -0.610  0.00  0.00    +0.081 A 
ATOM     29  C   UNL     1       3.830   8.895  -1.420  0.00  0.00    +0.087 A 
ENDBRANCH  20  22
ENDBRANCH  13  14
ENDBRANCH  12  13
ENDBRANCH   1  12
BRANCH   1  30
ATOM     30  O   UNL     1       1.358   5.753  -6.677  0.00  0.00    -0.411 OA
BRANCH  30  31
ATOM     31  C   UNL     1       0.079   6.223  -6.468  0.00  0.00    +0.148 A 
ATOM     32  C   UNL     1      -0.985   5.558  -7.066  0.00  0.00    +0.037 A 
ATOM     33  C   UNL     1      -2.169   5.360  -6.363  0.00  0.00    +0.003 A 
ATOM     34  C   UNL     1      -2.354   5.916  -5.109  0.00  0.00    +0.000 A 
ATOM     35  C   UNL     1      -1.454   6.902  -4.736  0.00  0.00    +0.003 A 
ATOM     36  C   UNL     1      -0.266   7.058  -5.414  0.00  0.00    +0.037 A 
ENDBRANCH  30  31
ENDBRANCH   1  30
TORSDOF 11
ENDMDL
MODEL 4
REMARK VINA RESULT:      -8.4      2.582      4.708
REMARK  Name = 
REMARK  11 active torsions:
REMARK  status: ('A' for Active; 'I' for Inactive)
REMARK    1  A    between atoms: C_2  and  O_4
REMARK    2  A    between atoms: O_4  and  C_5
REMARK    3  A    between atoms: C_5  and  C_7
REMARK    4  A    between atoms: C_7  and  N_9
REMARK    5  A    between atoms: N_9  and  P_10
REMARK    6  A    between atoms: P_10  and  O_12
REMARK    7  A    between atoms: P_10  and  O_30
REMARK    8  A    between atoms: O_12  and  C_13
REMARK    9  A    between atoms: C_13  and  C_14
REMARK   10  A    between atoms: C_16  and  N_17
REMARK   11  A    between atoms: O_30  and  C_31
REMARK                            x       y       z     vdW  Elec       q    Type
REMARK                         _______ _______ _______ _____ _____    ______ ____
ROOT
ATOM      1  P   UNL     1       2.316   6.100 -10.285  0.00  0.00    +0.480 P 
ATOM      2  O   UNL     1       1.764   4.739 -10.006  0.00  0.00    -0.227 OA
ENDROOT
BRANCH   1   3
ATOM      3  N   UNL     1       2.051   6.564 -11.962  0.00  0.00    -0.101 NA
BRANCH   3   4
ATOM      4  C   UNL     1       0.678   5.896 -12.341  0.00  0.00    +0.183 C 
ATOM      5  C   UNL     1      -0.110   7.335 -12.242  0.00  0.00    +0.031 C 
BRANCH   4   6
ATOM      6  C   UNL     1       0.955   6.063 -13.921  0.00  0.00    +0.333 C 
ATOM      7  O   UNL     1       1.983   5.434 -14.320  0.00  0.00    -0.249 OA
BRANCH   6   8
ATOM      8  O   UNL     1       1.008   7.435 -14.205  0.00  0.00    -0.451 OA
BRANCH   8  10
ATOM      9  C   UNL     1      -0.313   7.512 -16.228  0.00  0.00    +0.047 C 
ATOM     10  C   UNL     1       0.946   7.937 -15.529  0.00  0.00    +0.169 C 
ATOM     11  C   UNL     1       0.980   9.441 -15.547  0.00  0.00    +0.047 C 
ENDBRANCH   8  10
ENDBRANCH   6   8
ENDBRANCH   4   6
ENDBRANCH   3   4
ENDBRANCH   1   3
BRANCH   1  12
ATOM     12  O   UNL     1       1.530   7.240  -9.334  0.00  0.00    -0.270 OA
BRANCH  12  13
ATOM     13  C   UNL     1       2.042   7.374  -8.111  0.00  0.00    +0.186 C 
BRANCH  13  14
ATOM     14  C   UNL     1       1.596   6.114  -7.155  0.00  0.00    +0.180 C 
ATOM     15  C   UNL     1       3.171   5.900  -6.502  0.00  0.00    +0.215 C 
ATOM     16  O   UNL     1       3.330   7.314  -5.977  0.00  0.00    -0.217 OA
ATOM     17  C   UNL     1       2.366   5.236  -5.244  0.00  0.00    +0.209 C 
ATOM     18  F   UNL     1       3.387   4.932  -4.456  0.00  0.00    -0.233 F 
ATOM     19  C   UNL     1       1.404   4.289  -5.694  0.00  0.00    +0.043 C 
ATOM     20  C   UNL     1       1.694   6.655  -4.787  0.00  0.00    +0.241 C 
ATOM     21  O   UNL     1       1.099   7.029  -6.113  0.00  0.00    -0.331 OA
BRANCH  20  22
ATOM     22  N   UNL     1       0.338   5.997  -4.265  0.00  0.00    -0.253 N 
ATOM     23  C   UNL     1       0.361   5.786  -2.922  0.00  0.00    +0.355 A 
ATOM     24  O   UNL     1       1.358   5.734  -2.197  0.00  0.00    -0.244 OA
ATOM     25  N   UNL     1      -0.788   5.283  -2.407  0.00  0.00    -0.153 NA
ATOM     26  C   UNL     1      -1.949   5.434  -3.081  0.00  0.00    +0.285 A 
ATOM     27  O   UNL     1      -2.906   4.605  -2.978  0.00  0.00    -0.265 OA
ATOM     28  C   UNL     1      -1.958   6.467  -4.010  0.00  0.00    +0.081 A 
ATOM     29  C   UNL     1      -0.724   6.809  -4.555  0.00  0.00    +0.087 A 
ENDBRANCH  20  22
ENDBRANCH  13  14
ENDBRANCH  12  13
ENDBRANCH   1  12
BRANCH   1  30
ATOM     30  O   UNL     1       3.966   6.258  -9.885  0.00  0.00    -0.411 OA
BRANCH  30  31
ATOM     31  C   UNL     1       4.864   6.468 -10.909  0.00  0.00    +0.148 A 
ATOM     32  C   UNL     1       5.547   7.677 -10.964  0.00  0.00    +0.037 A 
ATOM     33  C   UNL     1       6.895   7.703 -11.308  0.00  0.00    +0.003 A 
ATOM     34  C   UNL     1       7.549   6.552 -11.713  0.00  0.00    +0.000 A 
ATOM     35  C   UNL     1       6.744   5.474 -12.044  0.00  0.00    +0.003 A 
ATOM     36  C   UNL     1       5.422   5.442 -11.658  0.00  0.00    +0.037 A 
ENDBRANCH  30  31
ENDBRANCH   1  30
TORSDOF 11
ENDMDL
MODEL 5
REMARK VINA RESULT:      -8.4      2.433      4.851
REMARK  Name = 
REMARK  11 active torsions:
REMARK  status: ('A' for Active; 'I' for Inactive)
REMARK    1  A    between atoms: C_2  and  O_4
REMARK    2  A    between atoms: O_4  and  C_5
REMARK    3  A    between atoms: C_5  and  C_7
REMARK    4  A    between atoms: C_7  and  N_9
REMARK    5  A    between atoms: N_9  and  P_10
REMARK    6  A    between atoms: P_10  and  O_12
REMARK    7  A    between atoms: P_10  and  O_30
REMARK    8  A    between atoms: O_12  and  C_13
REMARK    9  A    between atoms: C_13  and  C_14
REMARK   10  A    between atoms: C_16  and  N_17
REMARK   11  A    between atoms: O_30  and  C_31
REMARK                            x       y       z     vdW  Elec       q    Type
REMARK                         _______ _______ _______ _____ _____    ______ ____
ROOT
ATOM      1  P   UNL     1       4.311   6.161 -10.392  0.00  0.00    +0.480 P 
ATOM      2  O   UNL     1       5.100   5.338  -9.425  0.00  0.00    -0.227 OA
ENDROOT
BRANCH   1   3
ATOM      3  N   UNL     1       3.779   5.195 -11.764  0.00  0.00    -0.101 NA
BRANCH   3   4
ATOM      4  C   UNL     1       2.967   6.202 -12.661  0.00  0.00    +0.183 C 
ATOM      5  C   UNL     1       3.773   5.729 -14.013  0.00  0.00    +0.031 C 
BRANCH   4   6
ATOM      6  C   UNL     1       1.778   5.137 -12.899  0.00  0.00    +0.333 C 
ATOM      7  O   UNL     1       1.840   4.559 -14.028  0.00  0.00    -0.249 OA
BRANCH   6   8
ATOM      8  O   UNL     1       0.561   5.800 -12.689  0.00  0.00    -0.451 OA
BRANCH   8  10
ATOM      9  C   UNL     1       0.355   4.530 -10.643  0.00  0.00    +0.047 C 
ATOM     10  C   UNL     1      -0.211   5.613 -11.515  0.00  0.00    +0.169 C 
ATOM     11  C   UNL     1      -0.266   6.868 -10.689  0.00  0.00    +0.047 C 
ENDBRANCH   8  10
ENDBRANCH   6   8
ENDBRANCH   4   6
ENDBRANCH   3   4
ENDBRANCH   1   3
BRANCH   1  12
ATOM     12  O   UNL     1       2.926   6.749  -9.645  0.00  0.00    -0.270 OA
BRANCH  12  13
ATOM     13  C   UNL     1       3.064   6.962  -8.336  0.00  0.00    +0.186 C 
BRANCH  13  14
ATOM     14  C   UNL     1       2.264   5.813  -7.475  0.00  0.00    +0.180 C 
ATOM     15  C   UNL     1       3.647   5.370  -6.557  0.00  0.00    +0.215 C 
ATOM     16  O   UNL     1       3.938   6.754  -6.011  0.00  0.00    -0.217 OA
ATOM     17  C   UNL     1       2.541   4.875  -5.461  0.00  0.00    +0.209 C 
ATOM     18  F   UNL     1       3.350   4.433  -4.508  0.00  0.00    -0.233 F 
ATOM     19  C   UNL     1       1.532   4.080  -6.074  0.00  0.00    +0.043 C 
ATOM     20  C   UNL     1       2.037   6.393  -5.125  0.00  0.00    +0.241 C 
ATOM     21  O   UNL     1       1.748   6.822  -6.534  0.00  0.00    -0.331 OA
BRANCH  20  22
ATOM     22  N   UNL     1       0.524   5.972  -4.849  0.00  0.00    -0.253 N 
ATOM     23  C   UNL     1       0.272   5.824  -3.522  0.00  0.00    +0.355 A 
ATOM     24  O   UNL     1       1.103   5.658  -2.624  0.00  0.00    -0.244 OA
ATOM     25  N   UNL     1      -1.015   5.525  -3.218  0.00  0.00    -0.153 NA
ATOM     26  C   UNL     1      -1.998   5.815  -4.097  0.00  0.00    +0.285 A 
ATOM     27  O   UNL     1      -3.076   5.146  -4.156  0.00  0.00    -0.265 OA
ATOM     28  C   UNL     1      -1.679   6.793  -5.031  0.00  0.00    +0.081 A 
ATOM     29  C   UNL     1      -0.329   6.919  -5.346  0.00  0.00    +0.087 A 
ENDBRANCH  20  22
ENDBRANCH  13  14
ENDBRANCH  12  13
ENDBRANCH   1  12
BRANCH   1  30
ATOM     30  O   UNL     1       5.139   7.548 -10.937  0.00  0.00    -0.411 OA
BRANCH  30  31
ATOM     31  C   UNL     1       6.392   7.381 -11.486  0.00  0.00    +0.148 A 
ATOM     32  C   UNL     1       7.439   6.987 -10.661  0.00  0.00    +0.037 A 
ATOM     33  C   UNL     1       8.369   6.054 -11.110  0.00  0.00    +0.003 A 
ATOM     34  C   UNL     1       8.341   5.591 -12.414  0.00  0.00    +0.000 A 
ATOM     35  C   UNL     1       7.560   6.311 -13.303  0.00  0.00    +0.003 A 
ATOM     36  C   UNL     1       6.612   7.198 -12.845  0.00  0.00    +0.037 A 
ENDBRANCH  30  31
ENDBRANCH   1  30
TORSDOF 11
ENDMDL
MODEL 6
REMARK VINA RESULT:      -8.3      2.221      3.289
REMARK  Name = 
REMARK  11 active torsions:
REMARK  status: ('A' for Active; 'I' for Inactive)
REMARK    1  A    between atoms: C_2  and  O_4
REMARK    2  A    between atoms: O_4  and  C_5
REMARK    3  A    between atoms: C_5  and  C_7
REMARK    4  A    between atoms: C_7  and  N_9
REMARK    5  A    between atoms: N_9  and  P_10
REMARK    6  A    between atoms: P_10  and  O_12
REMARK    7  A    between atoms: P_10  and  O_30
REMARK    8  A    between atoms: O_12  and  C_13
REMARK    9  A    between atoms: C_13  and  C_14
REMARK   10  A    between atoms: C_16  and  N_17
REMARK   11  A    between atoms: O_30  and  C_31
REMARK                            x       y       z     vdW  Elec       q    Type
REMARK                         _______ _______ _______ _____ _____    ______ ____
ROOT
ATOM      1  P   UNL     1       2.609   5.111  -8.186  0.00  0.00    +0.480 P 
ATOM      2  O   UNL     1       3.018   3.733  -8.597  0.00  0.00    -0.227 OA
ENDROOT
BRANCH   1   3
ATOM      3  N   UNL     1       1.191   5.647  -9.080  0.00  0.00    -0.101 NA
BRANCH   3   4
ATOM      4  C   UNL     1       1.418   5.102 -10.539  0.00  0.00    +0.183 C 
ATOM      5  C   UNL     1      -0.121   4.533 -10.623  0.00  0.00    +0.031 C 
BRANCH   4   6
ATOM      6  C   UNL     1       1.018   6.517 -11.203  0.00  0.00    +0.333 C 
ATOM      7  O   UNL     1       0.348   7.265 -10.426  0.00  0.00    -0.249 OA
BRANCH   6   8
ATOM      8  O   UNL     1       0.360   6.253 -12.412  0.00  0.00    -0.451 OA
BRANCH   8  10
ATOM      9  C   UNL     1       0.942   4.767 -14.228  0.00  0.00    +0.047 C 
ATOM     10  C   UNL     1       1.053   6.146 -13.644  0.00  0.00    +0.169 C 
ATOM     11  C   UNL     1       0.508   7.107 -14.664  0.00  0.00    +0.047 C 
ENDBRANCH   8  10
ENDBRANCH   6   8
ENDBRANCH   4   6
ENDBRANCH   3   4
ENDBRANCH   1   3
BRANCH   1  12
ATOM     12  O   UNL     1       2.190   5.121  -6.559  0.00  0.00    -0.270 OA
BRANCH  12  13
ATOM     13  C   UNL     1       0.898   4.892  -6.329  0.00  0.00    +0.186 C 
BRANCH  13  14
ATOM     14  C   UNL     1       0.200   6.192  -5.604  0.00  0.00    +0.180 C 
ATOM     15  C   UNL     1      -1.227   6.105  -6.556  0.00  0.00    +0.215 C 
ATOM     16  O   UNL     1      -1.582   4.674  -6.199  0.00  0.00    -0.217 OA
ATOM     17  C   UNL     1      -1.908   6.876  -5.286  0.00  0.00    +0.209 C 
ATOM     18  F   UNL     1      -3.156   6.975  -5.724  0.00  0.00    -0.233 F 
ATOM     19  C   UNL     1      -1.121   7.990  -4.881  0.00  0.00    +0.043 C 
ATOM     20  C   UNL     1      -1.753   5.592  -4.286  0.00  0.00    +0.241 C 
ATOM     21  O   UNL     1      -0.285   5.359  -4.489  0.00  0.00    -0.331 OA
BRANCH  20  22
ATOM     22  N   UNL     1      -1.523   6.471  -2.976  0.00  0.00    -0.253 N 
ATOM     23  C   UNL     1      -2.651   6.570  -2.226  0.00  0.00    +0.355 A 
ATOM     24  O   UNL     1      -3.810   6.360  -2.598  0.00  0.00    -0.244 OA
ATOM     25  N   UNL     1      -2.504   7.257  -1.066  0.00  0.00    -0.153 NA
ATOM     26  C   UNL     1      -1.277   7.399  -0.521  0.00  0.00    +0.285 A 
ATOM     27  O   UNL     1      -0.967   8.396   0.203  0.00  0.00    -0.265 OA
ATOM     28  C   UNL     1      -0.338   6.464  -0.938  0.00  0.00    +0.081 A 
ATOM     29  C   UNL     1      -0.538   5.919  -2.203  0.00  0.00    +0.087 A 
ENDBRANCH  20  22
ENDBRANCH  13  14
ENDBRANCH  12  13
ENDBRANCH   1  12
BRANCH   1  30
ATOM     30  O   UNL     1       3.860   6.261  -8.324  0.00  0.00    -0.411 OA
BRANCH  30  31
ATOM     31  C   UNL     1       4.826   6.054  -9.286  0.00  0.00    +0.148 A 
ATOM     32  C   UNL     1       4.773   6.797 -10.459  0.00  0.00    +0.037 A 
ATOM     33  C   UNL     1       5.943   7.297 -11.023  0.00  0.00    +0.003 A 
ATOM     34  C   UNL     1       7.182   6.972 -10.498  0.00  0.00    +0.000 A 
ATOM     35  C   UNL     1       7.211   5.913  -9.606  0.00  0.00    +0.003 A 
ATOM     36  C   UNL     1       6.051   5.456  -9.022  0.00  0.00    +0.037 A 
ENDBRANCH  30  31
ENDBRANCH   1  30
TORSDOF 11
ENDMDL
MODEL 7
REMARK VINA RESULT:      -8.2      2.564      8.633
REMARK  Name = 
REMARK  11 active torsions:
REMARK  status: ('A' for Active; 'I' for Inactive)
REMARK    1  A    between atoms: C_2  and  O_4
REMARK    2  A    between atoms: O_4  and  C_5
REMARK    3  A    between atoms: C_5  and  C_7
REMARK    4  A    between atoms: C_7  and  N_9
REMARK    5  A    between atoms: N_9  and  P_10
REMARK    6  A    between atoms: P_10  and  O_12
REMARK    7  A    between atoms: P_10  and  O_30
REMARK    8  A    between atoms: O_12  and  C_13
REMARK    9  A    between atoms: C_13  and  C_14
REMARK   10  A    between atoms: C_16  and  N_17
REMARK   11  A    between atoms: O_30  and  C_31
REMARK                            x       y       z     vdW  Elec       q    Type
REMARK                         _______ _______ _______ _____ _____    ______ ____
ROOT
ATOM      1  P   UNL     1       2.396   6.430  -4.821  0.00  0.00    +0.480 P 
ATOM      2  O   UNL     1       2.898   5.021  -4.849  0.00  0.00    -0.227 OA
ENDROOT
BRANCH   1   3
ATOM      3  N   UNL     1       2.593   7.144  -3.225  0.00  0.00    -0.101 NA
BRANCH   3   4
ATOM      4  C   UNL     1       3.513   6.128  -2.451  0.00  0.00    +0.183 C 
ATOM      5  C   UNL     1       4.801   7.144  -2.540  0.00  0.00    +0.031 C 
BRANCH   4   6
ATOM      6  C   UNL     1       3.055   6.702  -1.014  0.00  0.00    +0.333 C 
ATOM      7  O   UNL     1       3.530   6.045  -0.037  0.00  0.00    -0.249 OA
BRANCH   6   8
ATOM      8  O   UNL     1       1.655   6.766  -1.004  0.00  0.00    -0.451 OA
BRANCH   8  10
ATOM      9  C   UNL     1       1.162   8.446   0.663  0.00  0.00    +0.047 C 
ATOM     10  C   UNL     1       0.918   7.048   0.174  0.00  0.00    +0.169 C 
ATOM     11  C   UNL     1      -0.561   6.907  -0.058  0.00  0.00    +0.047 C 
ENDBRANCH   8  10
ENDBRANCH   6   8
ENDBRANCH   4   6
ENDBRANCH   3   4
ENDBRANCH   1   3
BRANCH   1  12
ATOM     12  O   UNL     1       3.286   7.373  -5.889  0.00  0.00    -0.270 OA
BRANCH  12  13
ATOM     13  C   UNL     1       2.783   7.419  -7.122  0.00  0.00    +0.186 C 
BRANCH  13  14
ATOM     14  C   UNL     1       3.273   6.115  -7.996  0.00  0.00    +0.180 C 
ATOM     15  C   UNL     1       1.687   5.733  -8.535  0.00  0.00    +0.215 C 
ATOM     16  O   UNL     1       1.392   7.081  -9.164  0.00  0.00    -0.217 OA
ATOM     17  C   UNL     1       2.473   5.023  -9.779  0.00  0.00    +0.209 C 
ATOM     18  F   UNL     1       1.438   4.578 -10.477  0.00  0.00    -0.233 F 
ATOM     19  C   UNL     1       3.528   4.190  -9.310  0.00  0.00    +0.043 C 
ATOM     20  C   UNL     1       3.008   6.441 -10.391  0.00  0.00    +0.241 C 
ATOM     21  O   UNL     1       3.642   6.970  -9.138  0.00  0.00    -0.331 OA
BRANCH  20  22
ATOM     22  N   UNL     1       4.381   5.840 -10.936  0.00  0.00    -0.253 N 
ATOM     23  C   UNL     1       4.328   5.583 -12.270  0.00  0.00    +0.355 A 
ATOM     24  O   UNL     1       3.313   5.453 -12.960  0.00  0.00    -0.244 OA
ATOM     25  N   UNL     1       5.486   5.126 -12.806  0.00  0.00    -0.153 NA
ATOM     26  C   UNL     1       6.658   5.362 -12.177  0.00  0.00    +0.285 A 
ATOM     27  O   UNL     1       7.655   4.583 -12.285  0.00  0.00    -0.265 OA
ATOM     28  C   UNL     1       6.638   6.425 -11.283  0.00  0.00    +0.081 A 
ATOM     29  C   UNL     1       5.405   6.717 -10.707  0.00  0.00    +0.087 A 
ENDBRANCH  20  22
ENDBRANCH  13  14
ENDBRANCH  12  13
ENDBRANCH   1  12
BRANCH   1  30
ATOM     30  O   UNL     1       0.780   6.585  -5.340  0.00  0.00    -0.411 OA
BRANCH  30  31
ATOM     31  C   UNL     1      -0.204   6.670  -4.377  0.00  0.00    +0.148 A 
ATOM     32  C   UNL     1      -1.162   7.671  -4.485  0.00  0.00    +0.037 A 
ATOM     33  C   UNL     1      -2.494   7.397  -4.192  0.00  0.00    +0.003 A 
ATOM     34  C   UNL     1      -2.873   6.167  -3.682  0.00  0.00    +0.000 A 
ATOM     35  C   UNL     1      -1.853   5.361  -3.203  0.00  0.00    +0.003 A 
ATOM     36  C   UNL     1      -0.542   5.618  -3.536  0.00  0.00    +0.037 A 
ENDBRANCH  30  31
ENDBRANCH   1  30
TORSDOF 11
ENDMDL
MODEL 8
REMARK VINA RESULT:      -8.1      1.947      5.150
REMARK  Name = 
REMARK  11 active torsions:
REMARK  status: ('A' for Active; 'I' for Inactive)
REMARK    1  A    between atoms: C_2  and  O_4
REMARK    2  A    between atoms: O_4  and  C_5
REMARK    3  A    between atoms: C_5  and  C_7
REMARK    4  A    between atoms: C_7  and  N_9
REMARK    5  A    between atoms: N_9  and  P_10
REMARK    6  A    between atoms: P_10  and  O_12
REMARK    7  A    between atoms: P_10  and  O_30
REMARK    8  A    between atoms: O_12  and  C_13
REMARK    9  A    between atoms: C_13  and  C_14
REMARK   10  A    between atoms: C_16  and  N_17
REMARK   11  A    between atoms: O_30  and  C_31
REMARK                            x       y       z     vdW  Elec       q    Type
REMARK                         _______ _______ _______ _____ _____    ______ ____
ROOT
ATOM      1  P   UNL     1       3.311   5.983  -7.142  0.00  0.00    +0.480 P 
ATOM      2  O   UNL     1       3.029   7.270  -7.847  0.00  0.00    -0.227 OA
ENDROOT
BRANCH   1   3
ATOM      3  N   UNL     1       4.466   6.213  -5.833  0.00  0.00    -0.101 NA
BRANCH   3   4
ATOM      4  C   UNL     1       3.625   5.981  -4.523  0.00  0.00    +0.183 C 
ATOM      5  C   UNL     1       4.785   5.007  -3.888  0.00  0.00    +0.031 C 
BRANCH   4   6
ATOM      6  C   UNL     1       4.231   7.300  -3.818  0.00  0.00    +0.333 C 
ATOM      7  O   UNL     1       4.905   8.028  -4.611  0.00  0.00    -0.249 OA
BRANCH   6   8
ATOM      8  O   UNL     1       4.963   6.888  -2.696  0.00  0.00    -0.451 OA
BRANCH   8  10
ATOM      9  C   UNL     1       3.671   8.482  -1.416  0.00  0.00    +0.047 C 
ATOM     10  C   UNL     1       4.795   7.486  -1.421  0.00  0.00    +0.169 C 
ATOM     11  C   UNL     1       4.482   6.456  -0.370  0.00  0.00    +0.047 C 
ENDBRANCH   8  10
ENDBRANCH   6   8
ENDBRANCH   4   6
ENDBRANCH   3   4
ENDBRANCH   1   3
BRANCH   1  12
ATOM     12  O   UNL     1       1.901   5.392  -6.447  0.00  0.00    -0.270 OA
BRANCH  12  13
ATOM     13  C   UNL     1       0.787   5.956  -6.915  0.00  0.00    +0.186 C 
BRANCH  13  14
ATOM     14  C   UNL     1       0.018   6.792  -5.728  0.00  0.00    +0.180 C 
ATOM     15  C   UNL     1      -1.552   6.393  -6.302  0.00  0.00    +0.215 C 
ATOM     16  O   UNL     1      -1.368   4.888  -6.261  0.00  0.00    -0.217 OA
ATOM     17  C   UNL     1      -1.991   6.651  -4.749  0.00  0.00    +0.209 C 
ATOM     18  F   UNL     1      -3.289   6.395  -4.835  0.00  0.00    -0.233 F 
ATOM     19  C   UNL     1      -1.457   7.878  -4.264  0.00  0.00    +0.043 C 
ATOM     20  C   UNL     1      -1.185   5.343  -4.191  0.00  0.00    +0.241 C 
ATOM     21  O   UNL     1       0.152   5.663  -4.791  0.00  0.00    -0.331 OA
BRANCH  20  22
ATOM     22  N   UNL     1      -0.813   6.006  -2.789  0.00  0.00    -0.253 N 
ATOM     23  C   UNL     1      -1.617   5.560  -1.787  0.00  0.00    +0.355 A 
ATOM     24  O   UNL     1      -2.718   5.016  -1.908  0.00  0.00    -0.244 OA
ATOM     25  N   UNL     1      -1.312   6.042  -0.557  0.00  0.00    -0.153 NA
ATOM     26  C   UNL     1      -0.072   6.520  -0.311  0.00  0.00    +0.285 A 
ATOM     27  O   UNL     1       0.148   7.419   0.558  0.00  0.00    -0.265 OA
ATOM     28  C   UNL     1       0.912   6.072  -1.183  0.00  0.00    +0.081 A 
ATOM     29  C   UNL     1       0.484   5.720  -2.460  0.00  0.00    +0.087 A 
ENDBRANCH  20  22
ENDBRANCH  13  14
ENDBRANCH  12  13
ENDBRANCH   1  12
BRANCH   1  30
ATOM     30  O   UNL     1       3.842   4.741  -8.182  0.00  0.00    -0.411 OA
BRANCH  30  31
ATOM     31  C   UNL     1       4.606   5.093  -9.274  0.00  0.00    +0.148 A 
ATOM     32  C   UNL     1       3.964   5.423 -10.462  0.00  0.00    +0.037 A 
ATOM     33  C   UNL     1       4.425   6.485 -11.234  0.00  0.00    +0.003 A 
ATOM     34  C   UNL     1       5.588   7.156 -10.899  0.00  0.00    +0.000 A 
ATOM     35  C   UNL     1       6.407   6.538  -9.967  0.00  0.00    +0.003 A 
ATOM     36  C   UNL     1       5.925   5.517  -9.180  0.00  0.00    +0.037 A 
ENDBRANCH  30  31
ENDBRANCH   1  30
TORSDOF 11
ENDMDL
MODEL 9
REMARK VINA RESULT:      -8.1      3.212      9.200
REMARK  Name = 
REMARK  11 active torsions:
REMARK  status: ('A' for Active; 'I' for Inactive)
REMARK    1  A    between atoms: C_2  and  O_4
REMARK    2  A    between atoms: O_4  and  C_5
REMARK    3  A    between atoms: C_5  and  C_7
REMARK    4  A    between atoms: C_7  and  N_9
REMARK    5  A    between atoms: N_9  and  P_10
REMARK    6  A    between atoms: P_10  and  O_12
REMARK    7  A    between atoms: P_10  and  O_30
REMARK    8  A    between atoms: O_12  and  C_13
REMARK    9  A    between atoms: C_13  and  C_14
REMARK   10  A    between atoms: C_16  and  N_17
REMARK   11  A    between atoms: O_30  and  C_31
REMARK                            x       y       z     vdW  Elec       q    Type
REMARK                         _______ _______ _______ _____ _____    ______ ____
ROOT
ATOM      1  P   UNL     1       2.020   6.399  -6.674  0.00  0.00    +0.480 P 
ATOM      2  O   UNL     1       2.239   4.932  -6.483  0.00  0.00    -0.227 OA
ENDROOT
BRANCH   1   3
ATOM      3  N   UNL     1       3.369   7.332  -6.036  0.00  0.00    -0.101 NA
BRANCH   3   4
ATOM      4  C   UNL     1       4.043   6.377  -4.982  0.00  0.00    +0.183 C 
ATOM      5  C   UNL     1       5.111   7.541  -4.532  0.00  0.00    +0.031 C 
BRANCH   4   6
ATOM      6  C   UNL     1       2.987   6.786  -3.833  0.00  0.00    +0.333 C 
ATOM      7  O   UNL     1       3.368   7.773  -3.130  0.00  0.00    -0.249 OA
BRANCH   6   8
ATOM      8  O   UNL     1       2.718   5.641  -3.071  0.00  0.00    -0.451 OA
BRANCH   8  10
ATOM      9  C   UNL     1       1.445   5.354  -1.036  0.00  0.00    +0.047 C 
ATOM     10  C   UNL     1       2.782   5.642  -1.654  0.00  0.00    +0.169 C 
ATOM     11  C   UNL     1       3.742   4.601  -1.148  0.00  0.00    +0.047 C 
ENDBRANCH   8  10
ENDBRANCH   6   8
ENDBRANCH   4   6
ENDBRANCH   3   4
ENDBRANCH   1   3
BRANCH   1  12
ATOM     12  O   UNL     1       1.918   6.751  -8.314  0.00  0.00    -0.270 OA
BRANCH  12  13
ATOM     13  C   UNL     1       2.564   5.886  -9.096  0.00  0.00    +0.186 C 
BRANCH  13  14
ATOM     14  C   UNL     1       3.731   6.651  -9.965  0.00  0.00    +0.180 C 
ATOM     15  C   UNL     1       5.019   5.976  -9.050  0.00  0.00    +0.215 C 
ATOM     16  O   UNL     1       4.644   4.524  -9.275  0.00  0.00    -0.217 OA
ATOM     17  C   UNL     1       5.888   6.243 -10.408  0.00  0.00    +0.209 C 
ATOM     18  F   UNL     1       7.066   5.779 -10.018  0.00  0.00    -0.233 F 
ATOM     19  C   UNL     1       5.680   7.563 -10.897  0.00  0.00    +0.043 C 
ATOM     20  C   UNL     1       5.085   5.112 -11.272  0.00  0.00    +0.241 C 
ATOM     21  O   UNL     1       3.694   5.609 -11.006  0.00  0.00    -0.331 OA
BRANCH  20  22
ATOM     22  N   UNL     1       5.196   5.899 -12.655  0.00  0.00    -0.253 N 
ATOM     23  C   UNL     1       6.221   5.440 -13.419  0.00  0.00    +0.355 A 
ATOM     24  O   UNL     1       7.192   4.779 -13.038  0.00  0.00    -0.244 OA
ATOM     25  N   UNL     1       6.331   6.029 -14.635  0.00  0.00    -0.153 NA
ATOM     26  C   UNL     1       5.261   6.645 -15.183  0.00  0.00    +0.285 A 
ATOM     27  O   UNL     1       5.379   7.617 -15.992  0.00  0.00    -0.265 OA
ATOM     28  C   UNL     1       4.032   6.245 -14.676  0.00  0.00    +0.081 A 
ATOM     29  C   UNL     1       4.035   5.769 -13.368  0.00  0.00    +0.087 A 
ENDBRANCH  20  22
ENDBRANCH  13  14
ENDBRANCH  12  13
ENDBRANCH   1  12
BRANCH   1  30
ATOM     30  O   UNL     1       0.552   6.958  -6.013  0.00  0.00    -0.411 OA
BRANCH  30  31
ATOM     31  C   UNL     1      -0.387   6.021  -5.635  0.00  0.00    +0.148 A 
ATOM     32  C   UNL     1      -0.543   5.736  -4.285  0.00  0.00    +0.037 A 
ATOM     33  C   UNL     1      -1.815   5.551  -3.752  0.00  0.00    +0.003 A 
ATOM     34  C   UNL     1      -2.933   5.531  -4.569  0.00  0.00    +0.000 A 
ATOM     35  C   UNL     1      -2.697   5.400  -5.928  0.00  0.00    +0.003 A 
ATOM     36  C   UNL     1      -1.443   5.629  -6.447  0.00  0.00    +0.037 A 
ENDBRANCH  30  31
ENDBRANCH   1  30
TORSDOF 11
ENDMDL
