MODEL 1
REMARK VINA RESULT:      -5.6      0.000      0.000
REMARK  Name = 
REMARK  10 active torsions:
REMARK  status: ('A' for Active; 'I' for Inactive)
REMARK    1  A    between atoms: N_2  and  C_3
REMARK    2  A    between atoms: C_3  and  N_8
REMARK    3  A    between atoms: C_4  and  N_5
REMARK    4  A    between atoms: N_8  and  C_9
REMARK    5  A    between atoms: C_9  and  C_10
REMARK    6  A    between atoms: C_10  and  S_11
REMARK    7  A    between atoms: S_11  and  C_12
REMARK    8  A    between atoms: C_12  and  C_13
REMARK    9  A    between atoms: C_16  and  C_17
REMARK   10  A    between atoms: C_17  and  N_18
REMARK                            x       y       z     vdW  Elec       q    Type
REMARK                         _______ _______ _______ _____ _____    ______ ____
ROOT
ATOM      1  S   UNL     1       4.357   5.606  -9.161  0.00  0.00    -0.129 S 
ENDROOT
BRANCH   1   2
ATOM      2  C   UNL     1       5.492   5.533 -10.586  0.00  0.00    +0.104 C 
BRANCH   2   3
ATOM      3  C   UNL     1       4.625   5.513 -11.810  0.00  0.00    +0.077 A 
ATOM      4  N   UNL     1       3.530   6.295 -11.868  0.00  0.00    -0.245 NA
ATOM      5  C   UNL     1       2.668   5.864 -12.817  0.00  0.00    +0.104 A 
ATOM      6  S   UNL     1       3.778   5.395 -14.040  0.00  0.00    -0.069 S 
ATOM      7  C   UNL     1       5.198   5.382 -13.072  0.00  0.00    +0.052 A 
BRANCH   5   8
ATOM      8  C   UNL     1       1.182   6.041 -12.875  0.00  0.00    +0.126 C 
BRANCH   8   9
ATOM      9  N   UNL     1       0.727   5.907 -11.492  0.00  0.00    -0.265 NA
ATOM     10  C   UNL     1      -0.085   4.703 -11.356  0.00  0.00    +0.090 C 
ATOM     11  C   UNL     1      -0.105   7.027 -11.102  0.00  0.00    +0.090 C 
ENDBRANCH   8   9
ENDBRANCH   5   8
ENDBRANCH   2   3
ENDBRANCH   1   2
BRANCH   1  12
ATOM     12  C   UNL     1       3.578   3.974  -8.942  0.00  0.00    +0.113 C 
BRANCH  12  13
ATOM     13  C   UNL     1       2.538   4.114  -7.839  0.00  0.00    +0.263 C 
BRANCH  13  14
ATOM     14  N   UNL     1       1.514   5.026  -8.311  0.00  0.00    -0.027 NA
BRANCH  14  15
ATOM     15  C   UNL     1       0.664   5.691  -7.382  0.00  0.00    +0.424 C 
ATOM     16  C   UNL     1       1.211   6.518  -6.491  0.00  0.00    +0.447 C 
BRANCH  16  17
ATOM     17  N   UNL     1       2.328   7.308  -6.899  0.00  0.00    +0.096 N 
ATOM     18  O   UNL     1       2.048   8.366  -7.747  0.00  0.00    -0.576 OA
ATOM     19  O   UNL     1       3.231   7.497  -6.059  0.00  0.00    +0.042 OA
ENDBRANCH  16  17
BRANCH  15  21
ATOM     20  C   UNL     1      -1.619   5.615  -6.336  0.00  0.00    +0.306 C 
ATOM     21  N   UNL     1      -0.742   5.482  -7.475  0.00  0.00    -0.023 NA
ENDBRANCH  15  21
ENDBRANCH  14  15
ENDBRANCH  13  14
ENDBRANCH  12  13
ENDBRANCH   1  12
TORSDOF 10
ENDMDL
MODEL 2
REMARK VINA RESULT:      -5.3      3.305      4.218
REMARK  Name = 
REMARK  10 active torsions:
REMARK  status: ('A' for Active; 'I' for Inactive)
REMARK    1  A    between atoms: N_2  and  C_3
REMARK    2  A    between atoms: C_3  and  N_8
REMARK    3  A    between atoms: C_4  and  N_5
REMARK    4  A    between atoms: N_8  and  C_9
REMARK    5  A    between atoms: C_9  and  C_10
REMARK    6  A    between atoms: C_10  and  S_11
REMARK    7  A    between atoms: S_11  and  C_12
REMARK    8  A    between atoms: C_12  and  C_13
REMARK    9  A    between atoms: C_16  and  C_17
REMARK   10  A    between atoms: C_17  and  N_18
REMARK                            x       y       z     vdW  Elec       q    Type
REMARK                         _______ _______ _______ _____ _____    ______ ____
ROOT
ATOM      1  S   UNL     1       2.215   5.062  -6.360  0.00  0.00    -0.129 S 
ENDROOT
BRANCH   1   2
ATOM      2  C   UNL     1       3.959   5.443  -6.730  0.00  0.00    +0.104 C 
BRANCH   2   3
ATOM      3  C   UNL     1       4.067   5.493  -8.225  0.00  0.00    +0.077 A 
ATOM      4  N   UNL     1       3.235   6.281  -8.931  0.00  0.00    -0.245 NA
ATOM      5  C   UNL     1       3.185   5.906 -10.230  0.00  0.00    +0.104 A 
ATOM      6  S   UNL     1       4.833   5.498 -10.488  0.00  0.00    -0.069 S 
ATOM      7  C   UNL     1       5.314   5.427  -8.840  0.00  0.00    +0.052 A 
BRANCH   5   8
ATOM      8  C   UNL     1       2.069   6.091 -11.211  0.00  0.00    +0.126 C 
BRANCH   8   9
ATOM      9  N   UNL     1       0.844   6.007 -10.417  0.00  0.00    -0.265 NA
ATOM     10  C   UNL     1       0.335   4.640 -10.441  0.00  0.00    +0.090 C 
ATOM     11  C   UNL     1      -0.195   6.857 -10.963  0.00  0.00    +0.090 C 
ENDBRANCH   8   9
ENDBRANCH   5   8
ENDBRANCH   2   3
ENDBRANCH   1   2
BRANCH   1  12
ATOM     12  C   UNL     1       1.920   5.315  -4.580  0.00  0.00    +0.113 C 
BRANCH  12  13
ATOM     13  C   UNL     1       0.974   6.500  -4.442  0.00  0.00    +0.263 C 
BRANCH  13  14
ATOM     14  N   UNL     1      -0.235   6.028  -3.796  0.00  0.00    -0.027 NA
BRANCH  14  15
ATOM     15  C   UNL     1      -1.422   5.829  -4.556  0.00  0.00    +0.424 C 
ATOM     16  C   UNL     1      -2.505   5.357  -3.940  0.00  0.00    +0.447 C 
BRANCH  16  17
ATOM     17  N   UNL     1      -2.759   5.778  -2.600  0.00  0.00    +0.096 N 
ATOM     18  O   UNL     1      -3.835   6.632  -2.424  0.00  0.00    -0.576 OA
ATOM     19  O   UNL     1      -2.559   4.948  -1.692  0.00  0.00    +0.042 OA
ENDBRANCH  16  17
BRANCH  15  21
ATOM     20  C   UNL     1      -1.458   5.201  -6.989  0.00  0.00    +0.306 C 
ATOM     21  N   UNL     1      -1.416   6.187  -5.935  0.00  0.00    -0.023 NA
ENDBRANCH  15  21
ENDBRANCH  14  15
ENDBRANCH  13  14
ENDBRANCH  12  13
ENDBRANCH   1  12
TORSDOF 10
ENDMDL
MODEL 3
REMARK VINA RESULT:      -5.3      3.697      5.290
REMARK  Name = 
REMARK  10 active torsions:
REMARK  status: ('A' for Active; 'I' for Inactive)
REMARK    1  A    between atoms: N_2  and  C_3
REMARK    2  A    between atoms: C_3  and  N_8
REMARK    3  A    between atoms: C_4  and  N_5
REMARK    4  A    between atoms: N_8  and  C_9
REMARK    5  A    between atoms: C_9  and  C_10
REMARK    6  A    between atoms: C_10  and  S_11
REMARK    7  A    between atoms: S_11  and  C_12
REMARK    8  A    between atoms: C_12  and  C_13
REMARK    9  A    between atoms: C_16  and  C_17
REMARK   10  A    between atoms: C_17  and  N_18
REMARK                            x       y       z     vdW  Elec       q    Type
REMARK                         _______ _______ _______ _____ _____    ______ ____
ROOT
ATOM      1  S   UNL     1       3.829   5.407  -4.390  0.00  0.00    -0.129 S 
ENDROOT
BRANCH   1   2
ATOM      2  C   UNL     1       3.804   6.563  -5.799  0.00  0.00    +0.104 C 
BRANCH   2   3
ATOM      3  C   UNL     1       3.581   5.725  -7.023  0.00  0.00    +0.077 A 
ATOM      4  N   UNL     1       4.618   5.428  -7.830  0.00  0.00    -0.245 NA
ATOM      5  C   UNL     1       4.193   5.041  -9.054  0.00  0.00    +0.104 A 
ATOM      6  S   UNL     1       2.813   4.119  -8.615  0.00  0.00    -0.069 S 
ATOM      7  C   UNL     1       2.669   4.674  -6.995  0.00  0.00    +0.052 A 
BRANCH   5   8
ATOM      8  C   UNL     1       4.908   5.147 -10.365  0.00  0.00    +0.126 C 
BRANCH   8   9
ATOM      9  N   UNL     1       5.823   6.278 -10.211  0.00  0.00    -0.265 NA
ATOM     10  C   UNL     1       5.224   7.477 -10.787  0.00  0.00    +0.090 C 
ATOM     11  C   UNL     1       7.069   6.045 -10.914  0.00  0.00    +0.090 C 
ENDBRANCH   8   9
ENDBRANCH   5   8
ENDBRANCH   2   3
ENDBRANCH   1   2
BRANCH   1  12
ATOM     12  C   UNL     1       2.520   5.879  -3.214  0.00  0.00    +0.113 C 
BRANCH  12  13
ATOM     13  C   UNL     1       1.346   6.403  -4.029  0.00  0.00    +0.263 C 
BRANCH  13  14
ATOM     14  N   UNL     1       0.271   5.436  -3.927  0.00  0.00    -0.027 NA
BRANCH  14  15
ATOM     15  C   UNL     1      -0.987   5.696  -4.541  0.00  0.00    +0.424 C 
ATOM     16  C   UNL     1      -2.098   5.522  -3.825  0.00  0.00    +0.447 C 
BRANCH  16  17
ATOM     17  N   UNL     1      -2.068   5.857  -2.438  0.00  0.00    +0.096 N 
ATOM     18  O   UNL     1      -2.182   7.204  -2.135  0.00  0.00    -0.576 OA
ATOM     19  O   UNL     1      -2.616   5.065  -1.647  0.00  0.00    +0.042 OA
ENDBRANCH  16  17
BRANCH  15  21
ATOM     20  C   UNL     1      -1.066   5.294  -7.020  0.00  0.00    +0.306 C 
ATOM     21  N   UNL     1      -1.004   6.179  -5.882  0.00  0.00    -0.023 NA
ENDBRANCH  15  21
ENDBRANCH  14  15
ENDBRANCH  13  14
ENDBRANCH  12  13
ENDBRANCH   1  12
TORSDOF 10
ENDMDL
MODEL 4
REMARK VINA RESULT:      -5.3      4.906      7.488
REMARK  Name = 
REMARK  10 active torsions:
REMARK  status: ('A' for Active; 'I' for Inactive)
REMARK    1  A    between atoms: N_2  and  C_3
REMARK    2  A    between atoms: C_3  and  N_8
REMARK    3  A    between atoms: C_4  and  N_5
REMARK    4  A    between atoms: N_8  and  C_9
REMARK    5  A    between atoms: C_9  and  C_10
REMARK    6  A    between atoms: C_10  and  S_11
REMARK    7  A    between atoms: S_11  and  C_12
REMARK    8  A    between atoms: C_12  and  C_13
REMARK    9  A    between atoms: C_16  and  C_17
REMARK   10  A    between atoms: C_17  and  N_18
REMARK                            x       y       z     vdW  Elec       q    Type
REMARK                         _______ _______ _______ _____ _____    ______ ____
ROOT
ATOM      1  S   UNL     1      -1.360   7.068  -4.804  0.00  0.00    -0.129 S 
ENDROOT
BRANCH   1   2
ATOM      2  C   UNL     1      -1.162   5.639  -5.918  0.00  0.00    +0.104 C 
BRANCH   2   3
ATOM      3  C   UNL     1       0.255   5.685  -6.407  0.00  0.00    +0.077 A 
ATOM      4  N   UNL     1       1.240   5.151  -5.660  0.00  0.00    -0.245 NA
ATOM      5  C   UNL     1       2.451   5.629  -6.027  0.00  0.00    +0.104 A 
ATOM      6  S   UNL     1       2.244   5.695  -7.731  0.00  0.00    -0.069 S 
ATOM      7  C   UNL     1       0.533   5.532  -7.763  0.00  0.00    +0.052 A 
BRANCH   5   8
ATOM      8  C   UNL     1       3.689   5.764  -5.197  0.00  0.00    +0.126 C 
BRANCH   8   9
ATOM      9  N   UNL     1       3.646   7.125  -4.663  0.00  0.00    -0.265 NA
ATOM     10  C   UNL     1       5.004   7.611  -4.443  0.00  0.00    +0.090 C 
ATOM     11  C   UNL     1       2.968   7.165  -3.383  0.00  0.00    +0.090 C 
ENDBRANCH   8   9
ENDBRANCH   5   8
ENDBRANCH   2   3
ENDBRANCH   1   2
BRANCH   1  12
ATOM     12  C   UNL     1      -2.687   6.706  -3.609  0.00  0.00    +0.113 C 
BRANCH  12  13
ATOM     13  C   UNL     1      -2.526   5.254  -3.179  0.00  0.00    +0.263 C 
BRANCH  13  14
ATOM     14  N   UNL     1      -2.148   5.247  -1.779  0.00  0.00    -0.027 NA
BRANCH  14  15
ATOM     15  C   UNL     1      -0.814   5.561  -1.396  0.00  0.00    +0.424 C 
ATOM     16  C   UNL     1      -0.571   6.746  -0.835  0.00  0.00    +0.447 C 
BRANCH  16  17
ATOM     17  N   UNL     1      -1.554   7.292   0.045  0.00  0.00    +0.096 N 
ATOM     18  O   UNL     1      -1.691   6.662   1.271  0.00  0.00    -0.576 OA
ATOM     19  O   UNL     1      -1.699   8.530   0.041  0.00  0.00    +0.042 OA
ENDBRANCH  16  17
BRANCH  15  21
ATOM     20  C   UNL     1       1.521   4.714  -1.020  0.00  0.00    +0.306 C 
ATOM     21  N   UNL     1       0.199   4.578  -1.584  0.00  0.00    -0.023 NA
ENDBRANCH  15  21
ENDBRANCH  14  15
ENDBRANCH  13  14
ENDBRANCH  12  13
ENDBRANCH   1  12
TORSDOF 10
ENDMDL
MODEL 5
REMARK VINA RESULT:      -5.3      3.167      6.760
REMARK  Name = 
REMARK  10 active torsions:
REMARK  status: ('A' for Active; 'I' for Inactive)
REMARK    1  A    between atoms: N_2  and  C_3
REMARK    2  A    between atoms: C_3  and  N_8
REMARK    3  A    between atoms: C_4  and  N_5
REMARK    4  A    between atoms: N_8  and  C_9
REMARK    5  A    between atoms: C_9  and  C_10
REMARK    6  A    between atoms: C_10  and  S_11
REMARK    7  A    between atoms: S_11  and  C_12
REMARK    8  A    between atoms: C_12  and  C_13
REMARK    9  A    between atoms: C_16  and  C_17
REMARK   10  A    between atoms: C_17  and  N_18
REMARK                            x       y       z     vdW  Elec       q    Type
REMARK                         _______ _______ _______ _____ _____    ______ ____
ROOT
ATOM      1  S   UNL     1       4.080   4.643  -8.512  0.00  0.00    -0.129 S 
ENDROOT
BRANCH   1   2
ATOM      2  C   UNL     1       2.421   4.042  -8.056  0.00  0.00    +0.104 C 
BRANCH   2   3
ATOM      3  C   UNL     1       2.120   4.630  -6.709  0.00  0.00    +0.077 A 
ATOM      4  N   UNL     1       0.988   4.286  -6.065  0.00  0.00    -0.245 NA
ATOM      5  C   UNL     1       0.677   5.185  -5.103  0.00  0.00    +0.104 A 
ATOM      6  S   UNL     1       2.247   5.539  -4.504  0.00  0.00    -0.069 S 
ATOM      7  C   UNL     1       3.148   4.860  -5.800  0.00  0.00    +0.052 A 
BRANCH   5   8
ATOM      8  C   UNL     1      -0.671   5.523  -4.546  0.00  0.00    +0.126 C 
BRANCH   8   9
ATOM      9  N   UNL     1      -1.249   6.475  -5.492  0.00  0.00    -0.265 NA
ATOM     10  C   UNL     1      -1.851   7.588  -4.765  0.00  0.00    +0.090 C 
ATOM     11  C   UNL     1      -2.300   5.863  -6.279  0.00  0.00    +0.090 C 
ENDBRANCH   8   9
ENDBRANCH   5   8
ENDBRANCH   2   3
ENDBRANCH   1   2
BRANCH   1  12
ATOM     12  C   UNL     1       3.921   6.276  -9.303  0.00  0.00    +0.113 C 
BRANCH  12  13
ATOM     13  C   UNL     1       3.290   6.057 -10.671  0.00  0.00    +0.263 C 
BRANCH  13  14
ATOM     14  N   UNL     1       4.213   5.265 -11.461  0.00  0.00    -0.027 NA
BRANCH  14  15
ATOM     15  C   UNL     1       4.796   5.810 -12.641  0.00  0.00    +0.424 C 
ATOM     16  C   UNL     1       6.076   6.179 -12.611  0.00  0.00    +0.447 C 
BRANCH  16  17
ATOM     17  N   UNL     1       6.988   5.395 -11.842  0.00  0.00    +0.096 N 
ATOM     18  O   UNL     1       7.772   4.501 -12.553  0.00  0.00    -0.576 OA
ATOM     19  O   UNL     1       7.529   5.945 -10.863  0.00  0.00    +0.042 OA
ENDBRANCH  16  17
BRANCH  15  21
ATOM     20  C   UNL     1       2.969   4.928 -14.123  0.00  0.00    +0.306 C 
ATOM     21  N   UNL     1       3.998   5.892 -13.819  0.00  0.00    -0.023 NA
ENDBRANCH  15  21
ENDBRANCH  14  15
ENDBRANCH  13  14
ENDBRANCH  12  13
ENDBRANCH   1  12
TORSDOF 10
ENDMDL
MODEL 6
REMARK VINA RESULT:      -5.2      3.510      6.957
REMARK  Name = 
REMARK  10 active torsions:
REMARK  status: ('A' for Active; 'I' for Inactive)
REMARK    1  A    between atoms: N_2  and  C_3
REMARK    2  A    between atoms: C_3  and  N_8
REMARK    3  A    between atoms: C_4  and  N_5
REMARK    4  A    between atoms: N_8  and  C_9
REMARK    5  A    between atoms: C_9  and  C_10
REMARK    6  A    between atoms: C_10  and  S_11
REMARK    7  A    between atoms: S_11  and  C_12
REMARK    8  A    between atoms: C_12  and  C_13
REMARK    9  A    between atoms: C_16  and  C_17
REMARK   10  A    between atoms: C_17  and  N_18
REMARK                            x       y       z     vdW  Elec       q    Type
REMARK                         _______ _______ _______ _____ _____    ______ ____
ROOT
ATOM      1  S   UNL     1       3.139   6.826  -7.189  0.00  0.00    -0.129 S 
ENDROOT
BRANCH   1   2
ATOM      2  C   UNL     1       3.664   7.024  -5.455  0.00  0.00    +0.104 C 
BRANCH   2   3
ATOM      3  C   UNL     1       2.478   6.652  -4.615  0.00  0.00    +0.077 A 
ATOM      4  N   UNL     1       1.286   6.429  -5.199  0.00  0.00    -0.245 NA
ATOM      5  C   UNL     1       0.275   6.516  -4.304  0.00  0.00    +0.104 A 
ATOM      6  S   UNL     1       1.015   5.774  -2.943  0.00  0.00    -0.069 S 
ATOM      7  C   UNL     1       2.639   5.828  -3.504  0.00  0.00    +0.052 A 
BRANCH   5   8
ATOM      8  C   UNL     1      -1.156   6.882  -4.548  0.00  0.00    +0.126 C 
BRANCH   8   9
ATOM      9  N   UNL     1      -1.839   5.613  -4.795  0.00  0.00    -0.265 NA
ATOM     10  C   UNL     1      -2.433   5.626  -6.128  0.00  0.00    +0.090 C 
ATOM     11  C   UNL     1      -2.917   5.403  -3.851  0.00  0.00    +0.090 C 
ENDBRANCH   8   9
ENDBRANCH   5   8
ENDBRANCH   2   3
ENDBRANCH   1   2
BRANCH   1  12
ATOM     12  C   UNL     1       3.762   5.234  -7.817  0.00  0.00    +0.113 C 
BRANCH  12  13
ATOM     13  C   UNL     1       4.958   5.536  -8.710  0.00  0.00    +0.263 C 
BRANCH  13  14
ATOM     14  N   UNL     1       4.671   5.004 -10.028  0.00  0.00    -0.027 NA
BRANCH  14  15
ATOM     15  C   UNL     1       4.684   5.860 -11.165  0.00  0.00    +0.424 C 
ATOM     16  C   UNL     1       5.858   6.282 -11.636  0.00  0.00    +0.447 C 
BRANCH  16  17
ATOM     17  N   UNL     1       6.965   5.383 -11.596  0.00  0.00    +0.096 N 
ATOM     18  O   UNL     1       7.248   4.713 -12.775  0.00  0.00    -0.576 OA
ATOM     19  O   UNL     1       7.945   5.714 -10.901  0.00  0.00    +0.042 OA
ENDBRANCH  16  17
BRANCH  15  21
ATOM     20  C   UNL     1       2.176   6.001 -11.118  0.00  0.00    +0.306 C 
ATOM     21  N   UNL     1       3.443   6.192 -11.782  0.00  0.00    -0.023 NA
ENDBRANCH  15  21
ENDBRANCH  14  15
ENDBRANCH  13  14
ENDBRANCH  12  13
ENDBRANCH   1  12
TORSDOF 10
ENDMDL
MODEL 7
REMARK VINA RESULT:      -5.2      3.445      4.953
REMARK  Name = 
REMARK  10 active torsions:
REMARK  status: ('A' for Active; 'I' for Inactive)
REMARK    1  A    between atoms: N_2  and  C_3
REMARK    2  A    between atoms: C_3  and  N_8
REMARK    3  A    between atoms: C_4  and  N_5
REMARK    4  A    between atoms: N_8  and  C_9
REMARK    5  A    between atoms: C_9  and  C_10
REMARK    6  A    between atoms: C_10  and  S_11
REMARK    7  A    between atoms: S_11  and  C_12
REMARK    8  A    between atoms: C_12  and  C_13
REMARK    9  A    between atoms: C_16  and  C_17
REMARK   10  A    between atoms: C_17  and  N_18
REMARK                            x       y       z     vdW  Elec       q    Type
REMARK                         _______ _______ _______ _____ _____    ______ ____
ROOT
ATOM      1  S   UNL     1       3.032   5.391  -6.444  0.00  0.00    -0.129 S 
ENDROOT
BRANCH   1   2
ATOM      2  C   UNL     1       2.438   4.309  -7.785  0.00  0.00    +0.104 C 
BRANCH   2   3
ATOM      3  C   UNL     1       2.913   4.932  -9.065  0.00  0.00    +0.077 A 
ATOM      4  N   UNL     1       4.086   4.549  -9.603  0.00  0.00    -0.245 NA
ATOM      5  C   UNL     1       4.546   5.466 -10.485  0.00  0.00    +0.104 A 
ATOM      6  S   UNL     1       3.070   5.933 -11.228  0.00  0.00    -0.069 S 
ATOM      7  C   UNL     1       2.000   5.256 -10.065  0.00  0.00    +0.052 A 
BRANCH   5   8
ATOM      8  C   UNL     1       5.961   5.747 -10.883  0.00  0.00    +0.126 C 
BRANCH   8   9
ATOM      9  N   UNL     1       5.875   6.822 -11.870  0.00  0.00    -0.265 NA
ATOM     10  C   UNL     1       6.717   6.504 -13.018  0.00  0.00    +0.090 C 
ATOM     11  C   UNL     1       6.354   8.076 -11.325  0.00  0.00    +0.090 C 
ENDBRANCH   8   9
ENDBRANCH   5   8
ENDBRANCH   2   3
ENDBRANCH   1   2
BRANCH   1  12
ATOM     12  C   UNL     1       1.719   6.579  -6.017  0.00  0.00    +0.113 C 
BRANCH  12  13
ATOM     13  C   UNL     1       0.425   5.790  -5.871  0.00  0.00    +0.263 C 
BRANCH  13  14
ATOM     14  N   UNL     1       0.505   5.035  -4.635  0.00  0.00    -0.027 NA
BRANCH  14  15
ATOM     15  C   UNL     1       0.335   5.691  -3.383  0.00  0.00    +0.424 C 
ATOM     16  C   UNL     1      -0.871   6.159  -3.064  0.00  0.00    +0.447 C 
BRANCH  16  17
ATOM     17  N   UNL     1      -2.016   5.408  -3.466  0.00  0.00    +0.096 N 
ATOM     18  O   UNL     1      -2.646   4.678  -2.471  0.00  0.00    -0.576 OA
ATOM     19  O   UNL     1      -2.757   5.914  -4.332  0.00  0.00    +0.042 OA
ENDBRANCH  16  17
BRANCH  15  21
ATOM     20  C   UNL     1       1.526   5.022  -1.275  0.00  0.00    +0.306 C 
ATOM     21  N   UNL     1       1.452   5.777  -2.502  0.00  0.00    -0.023 NA
ENDBRANCH  15  21
ENDBRANCH  14  15
ENDBRANCH  13  14
ENDBRANCH  12  13
ENDBRANCH   1  12
TORSDOF 10
ENDMDL
MODEL 8
REMARK VINA RESULT:      -5.2      3.549      7.148
REMARK  Name = 
REMARK  10 active torsions:
REMARK  status: ('A' for Active; 'I' for Inactive)
REMARK    1  A    between atoms: N_2  and  C_3
REMARK    2  A    between atoms: C_3  and  N_8
REMARK    3  A    between atoms: C_4  and  N_5
REMARK    4  A    between atoms: N_8  and  C_9
REMARK    5  A    between atoms: C_9  and  C_10
REMARK    6  A    between atoms: C_10  and  S_11
REMARK    7  A    between atoms: S_11  and  C_12
REMARK    8  A    between atoms: C_12  and  C_13
REMARK    9  A    between atoms: C_16  and  C_17
REMARK   10  A    between atoms: C_17  and  N_18
REMARK                            x       y       z     vdW  Elec       q    Type
REMARK                         _______ _______ _______ _____ _____    ______ ____
ROOT
ATOM      1  S   UNL     1       2.131   6.972  -8.749  0.00  0.00    -0.129 S 
ENDROOT
BRANCH   1   2
ATOM      2  C   UNL     1       0.718   5.878  -8.390  0.00  0.00    +0.104 C 
BRANCH   2   3
ATOM      3  C   UNL     1       0.585   5.845  -6.897  0.00  0.00    +0.077 A 
ATOM      4  N   UNL     1       1.178   6.794  -6.149  0.00  0.00    -0.245 NA
ATOM      5  C   UNL     1       1.309   6.398  -4.863  0.00  0.00    +0.104 A 
ATOM      6  S   UNL     1      -0.181   5.571  -4.651  0.00  0.00    -0.069 S 
ATOM      7  C   UNL     1      -0.610   5.438  -6.310  0.00  0.00    +0.052 A 
BRANCH   5   8
ATOM      8  C   UNL     1       2.329   6.828  -3.855  0.00  0.00    +0.126 C 
BRANCH   8   9
ATOM      9  N   UNL     1       3.603   6.318  -4.357  0.00  0.00    -0.265 NA
ATOM     10  C   UNL     1       4.206   5.436  -3.364  0.00  0.00    +0.090 C 
ATOM     11  C   UNL     1       4.543   7.394  -4.596  0.00  0.00    +0.090 C 
ENDBRANCH   8   9
ENDBRANCH   5   8
ENDBRANCH   2   3
ENDBRANCH   1   2
BRANCH   1  12
ATOM     12  C   UNL     1       3.677   6.039  -8.507  0.00  0.00    +0.113 C 
BRANCH  12  13
ATOM     13  C   UNL     1       3.729   4.961  -9.582  0.00  0.00    +0.263 C 
BRANCH  13  14
ATOM     14  N   UNL     1       4.963   5.135 -10.323  0.00  0.00    -0.027 NA
BRANCH  14  15
ATOM     15  C   UNL     1       4.943   5.724 -11.619  0.00  0.00    +0.424 C 
ATOM     16  C   UNL     1       6.078   6.217 -12.116  0.00  0.00    +0.447 C 
BRANCH  16  17
ATOM     17  N   UNL     1       7.296   5.532 -11.827  0.00  0.00    +0.096 N 
ATOM     18  O   UNL     1       7.699   4.587 -12.756  0.00  0.00    -0.576 OA
ATOM     19  O   UNL     1       8.204   6.187 -11.277  0.00  0.00    +0.042 OA
ENDBRANCH  16  17
BRANCH  15  21
ATOM     20  C   UNL     1       3.661   5.372 -13.750  0.00  0.00    +0.306 C 
ATOM     21  N   UNL     1       3.721   5.720 -12.351  0.00  0.00    -0.023 NA
ENDBRANCH  15  21
ENDBRANCH  14  15
ENDBRANCH  13  14
ENDBRANCH  12  13
ENDBRANCH   1  12
TORSDOF 10
ENDMDL
MODEL 9
REMARK VINA RESULT:      -5.1      3.785      7.488
REMARK  Name = 
REMARK  10 active torsions:
REMARK  status: ('A' for Active; 'I' for Inactive)
REMARK    1  A    between atoms: N_2  and  C_3
REMARK    2  A    between atoms: C_3  and  N_8
REMARK    3  A    between atoms: C_4  and  N_5
REMARK    4  A    between atoms: N_8  and  C_9
REMARK    5  A    between atoms: C_9  and  C_10
REMARK    6  A    between atoms: C_10  and  S_11
REMARK    7  A    between atoms: S_11  and  C_12
REMARK    8  A    between atoms: C_12  and  C_13
REMARK    9  A    between atoms: C_16  and  C_17
REMARK   10  A    between atoms: C_17  and  N_18
REMARK                            x       y       z     vdW  Elec       q    Type
REMARK                         _______ _______ _______ _____ _____    ______ ____
ROOT
ATOM      1  S   UNL     1       3.153   5.937  -9.645  0.00  0.00    -0.129 S 
ENDROOT
BRANCH   1   2
ATOM      2  C   UNL     1       2.270   7.067  -8.519  0.00  0.00    +0.104 C 
BRANCH   2   3
ATOM      3  C   UNL     1       1.569   6.196  -7.520  0.00  0.00    +0.077 A 
ATOM      4  N   UNL     1       0.289   5.832  -7.729  0.00  0.00    -0.245 NA
ATOM      5  C   UNL     1      -0.298   5.419  -6.583  0.00  0.00    +0.104 A 
ATOM      6  S   UNL     1       1.009   4.565  -5.867  0.00  0.00    -0.069 S 
ATOM      7  C   UNL     1       2.263   5.181  -6.867  0.00  0.00    +0.052 A 
BRANCH   5   8
ATOM      8  C   UNL     1      -1.749   5.453  -6.215  0.00  0.00    +0.126 C 
BRANCH   8   9
ATOM      9  N   UNL     1      -1.797   6.097  -4.903  0.00  0.00    -0.265 NA
ATOM     10  C   UNL     1      -2.771   5.417  -4.057  0.00  0.00    +0.090 C 
ATOM     11  C   UNL     1      -2.218   7.479  -5.011  0.00  0.00    +0.090 C 
ENDBRANCH   8   9
ENDBRANCH   5   8
ENDBRANCH   2   3
ENDBRANCH   1   2
BRANCH   1  12
ATOM     12  C   UNL     1       4.640   6.778 -10.280  0.00  0.00    +0.113 C 
BRANCH  12  13
ATOM     13  C   UNL     1       5.435   5.752 -11.077  0.00  0.00    +0.263 C 
BRANCH  13  14
ATOM     14  N   UNL     1       5.439   6.176 -12.463  0.00  0.00    -0.027 NA
BRANCH  14  15
ATOM     15  C   UNL     1       6.410   5.659 -13.367  0.00  0.00    +0.424 C 
ATOM     16  C   UNL     1       6.190   5.773 -14.677  0.00  0.00    +0.447 C 
BRANCH  16  17
ATOM     17  N   UNL     1       5.549   6.955 -15.155  0.00  0.00    +0.096 N 
ATOM     18  O   UNL     1       6.374   8.044 -15.383  0.00  0.00    -0.576 OA
ATOM     19  O   UNL     1       4.596   6.809 -15.945  0.00  0.00    +0.042 OA
ENDBRANCH  16  17
BRANCH  15  21
ATOM     20  C   UNL     1       8.740   5.881 -12.455  0.00  0.00    +0.306 C 
ATOM     21  N   UNL     1       7.599   5.083 -12.834  0.00  0.00    -0.023 NA
ENDBRANCH  15  21
ENDBRANCH  14  15
ENDBRANCH  13  14
ENDBRANCH  12  13
ENDBRANCH   1  12
TORSDOF 10
ENDMDL
