MODEL 1
REMARK VINA RESULT:      -5.7      0.000      0.000
REMARK  Name = 
REMARK  2 active torsions:
REMARK  status: ('A' for Active; 'I' for Inactive)
REMARK    1  A    between atoms: C_2  and  C_4
REMARK    2  A    between atoms: C_4  and  C_5
REMARK                            x       y       z     vdW  Elec       q    Type
REMARK                         _______ _______ _______ _____ _____    ______ ____
ROOT
ATOM      1  C   UNL     1       6.227   6.661 -10.598  0.00  0.00    -0.021 A 
ATOM      2  C   UNL     1       6.615   5.885  -9.522  0.00  0.00    -0.001 A 
ATOM      3  C   UNL     1       5.699   5.241  -8.700  0.00  0.00    +0.042 A 
ATOM      4  C   UNL     1       4.351   5.515  -8.870  0.00  0.00    +0.196 A 
ATOM      5  O   UNL     1       3.377   4.586  -8.490  0.00  0.00    -0.287 OA
ATOM      6  C   UNL     1       4.042   6.624  -9.648  0.00  0.00    +0.042 A 
ATOM      7  C   UNL     1       4.902   6.985 -10.680  0.00  0.00    -0.001 A 
ENDROOT
BRANCH   1   8
ATOM      8  C   UNL     1       7.189   6.681 -11.716  0.00  0.00    +0.045 C 
BRANCH   8  10
ATOM      9  C   UNL     1       9.347   5.893 -12.263  0.00  0.00    +0.021 C 
ATOM     10  C   UNL     1       7.960   5.239 -11.677  0.00  0.00    +0.096 C 
ATOM     11  N   UNL     1       7.462   4.860 -13.119  0.00  0.00    -0.133 NA
ENDBRANCH   8  10
ENDBRANCH   1   8
TORSDOF 2
ENDMDL
MODEL 2
REMARK VINA RESULT:      -5.4      2.994      4.780
REMARK  Name = 
REMARK  2 active torsions:
REMARK  status: ('A' for Active; 'I' for Inactive)
REMARK    1  A    between atoms: C_2  and  C_4
REMARK    2  A    between atoms: C_4  and  C_5
REMARK                            x       y       z     vdW  Elec       q    Type
REMARK                         _______ _______ _______ _____ _____    ______ ____
ROOT
ATOM      1  C   UNL     1       5.973   5.698  -9.497  0.00  0.00    -0.021 A 
ATOM      2  C   UNL     1       5.251   5.717 -10.676  0.00  0.00    -0.001 A 
ATOM      3  C   UNL     1       5.841   5.489 -11.914  0.00  0.00    +0.042 A 
ATOM      4  C   UNL     1       7.222   5.398 -11.981  0.00  0.00    +0.196 A 
ATOM      5  O   UNL     1       7.845   4.685 -13.011  0.00  0.00    -0.287 OA
ATOM      6  C   UNL     1       7.923   5.829 -10.861  0.00  0.00    +0.042 A 
ATOM      7  C   UNL     1       7.335   5.701  -9.606  0.00  0.00    -0.001 A 
ENDROOT
BRANCH   1   8
ATOM      8  C   UNL     1       5.205   5.260  -8.317  0.00  0.00    +0.045 C 
BRANCH   8  10
ATOM      9  C   UNL     1       3.520   6.385  -7.103  0.00  0.00    +0.021 C 
ATOM     10  C   UNL     1       3.655   5.709  -8.592  0.00  0.00    +0.096 C 
ATOM     11  N   UNL     1       3.098   4.331  -8.081  0.00  0.00    -0.133 NA
ENDBRANCH   8  10
ENDBRANCH   1   8
TORSDOF 2
ENDMDL
MODEL 3
REMARK VINA RESULT:      -5.4      8.113      9.932
REMARK  Name = 
REMARK  2 active torsions:
REMARK  status: ('A' for Active; 'I' for Inactive)
REMARK    1  A    between atoms: C_2  and  C_4
REMARK    2  A    between atoms: C_4  and  C_5
REMARK                            x       y       z     vdW  Elec       q    Type
REMARK                         _______ _______ _______ _____ _____    ______ ____
ROOT
ATOM      1  C   UNL     1      -2.394   6.016  -5.185  0.00  0.00    -0.021 A 
ATOM      2  C   UNL     1      -2.110   7.362  -5.049  0.00  0.00    -0.001 A 
ATOM      3  C   UNL     1      -2.024   7.983  -3.809  0.00  0.00    +0.042 A 
ATOM      4  C   UNL     1      -2.391   7.264  -2.683  0.00  0.00    +0.196 A 
ATOM      5  O   UNL     1      -1.869   7.586  -1.426  0.00  0.00    -0.287 OA
ATOM      6  C   UNL     1      -3.088   6.083  -2.906  0.00  0.00    +0.042 A 
ATOM      7  C   UNL     1      -2.840   5.363  -4.070  0.00  0.00    -0.001 A 
ENDROOT
BRANCH   1   8
ATOM      8  C   UNL     1      -1.790   5.380  -6.371  0.00  0.00    +0.045 C 
BRANCH   8  10
ATOM      9  C   UNL     1      -0.133   5.517  -8.048  0.00  0.00    +0.021 C 
ATOM     10  C   UNL     1      -0.267   5.969  -6.476  0.00  0.00    +0.096 C 
ATOM     11  N   UNL     1       0.359   4.618  -5.974  0.00  0.00    -0.133 NA
ENDBRANCH   8  10
ENDBRANCH   1   8
TORSDOF 2
ENDMDL
MODEL 4
REMARK VINA RESULT:      -5.0      6.082      7.772
REMARK  Name = 
REMARK  2 active torsions:
REMARK  status: ('A' for Active; 'I' for Inactive)
REMARK    1  A    between atoms: C_2  and  C_4
REMARK    2  A    between atoms: C_4  and  C_5
REMARK                            x       y       z     vdW  Elec       q    Type
REMARK                         _______ _______ _______ _____ _____    ______ ____
ROOT
ATOM      1  C   UNL     1      -0.479   5.725  -6.895  0.00  0.00    -0.021 A 
ATOM      2  C   UNL     1      -1.802   5.650  -6.499  0.00  0.00    -0.001 A 
ATOM      3  C   UNL     1      -2.338   6.493  -5.533  0.00  0.00    +0.042 A 
ATOM      4  C   UNL     1      -1.481   7.325  -4.832  0.00  0.00    +0.196 A 
ATOM      5  O   UNL     1      -1.944   8.514  -4.260  0.00  0.00    -0.287 OA
ATOM      6  C   UNL     1      -0.124   7.047  -4.945  0.00  0.00    +0.042 A 
ATOM      7  C   UNL     1       0.355   6.484  -6.124  0.00  0.00    -0.001 A 
ENDROOT
BRANCH   1   8
ATOM      8  C   UNL     1      -0.237   5.332  -8.296  0.00  0.00    +0.045 C 
BRANCH   8  10
ATOM      9  C   UNL     1       0.621   6.486 -10.170  0.00  0.00    +0.021 C 
ATOM     10  C   UNL     1       1.198   6.000  -8.713  0.00  0.00    +0.096 C 
ATOM     11  N   UNL     1       1.728   4.646  -9.308  0.00  0.00    -0.133 NA
ENDBRANCH   8  10
ENDBRANCH   1   8
TORSDOF 2
ENDMDL
MODEL 5
REMARK VINA RESULT:      -5.0      3.242      4.812
REMARK  Name = 
REMARK  2 active torsions:
REMARK  status: ('A' for Active; 'I' for Inactive)
REMARK    1  A    between atoms: C_2  and  C_4
REMARK    2  A    between atoms: C_4  and  C_5
REMARK                            x       y       z     vdW  Elec       q    Type
REMARK                         _______ _______ _______ _____ _____    ______ ____
ROOT
ATOM      1  C   UNL     1       5.237   5.664  -9.077  0.00  0.00    -0.021 A 
ATOM      2  C   UNL     1       6.572   5.702  -9.436  0.00  0.00    -0.001 A 
ATOM      3  C   UNL     1       7.069   6.617 -10.356  0.00  0.00    +0.042 A 
ATOM      4  C   UNL     1       6.171   7.409 -11.052  0.00  0.00    +0.196 A 
ATOM      5  O   UNL     1       6.559   8.650 -11.569  0.00  0.00    -0.287 OA
ATOM      6  C   UNL     1       4.836   7.027 -10.990  0.00  0.00    +0.042 A 
ATOM      7  C   UNL     1       4.370   6.387  -9.846  0.00  0.00    -0.001 A 
ENDROOT
BRANCH   1   8
ATOM      8  C   UNL     1       4.987   5.203  -7.699  0.00  0.00    +0.045 C 
BRANCH   8  10
ATOM      9  C   UNL     1       4.358   6.203  -5.654  0.00  0.00    +0.021 C 
ATOM     10  C   UNL     1       3.710   6.069  -7.156  0.00  0.00    +0.096 C 
ATOM     11  N   UNL     1       2.916   4.772  -6.761  0.00  0.00    -0.133 NA
ENDBRANCH   8  10
ENDBRANCH   1   8
TORSDOF 2
ENDMDL
MODEL 6
REMARK VINA RESULT:      -5.0      1.822      2.625
REMARK  Name = 
REMARK  2 active torsions:
REMARK  status: ('A' for Active; 'I' for Inactive)
REMARK    1  A    between atoms: C_2  and  C_4
REMARK    2  A    between atoms: C_4  and  C_5
REMARK                            x       y       z     vdW  Elec       q    Type
REMARK                         _______ _______ _______ _____ _____    ______ ____
ROOT
ATOM      1  C   UNL     1       4.856   5.598  -9.587  0.00  0.00    -0.021 A 
ATOM      2  C   UNL     1       3.671   6.289  -9.762  0.00  0.00    -0.001 A 
ATOM      3  C   UNL     1       2.977   6.858  -8.701  0.00  0.00    +0.042 A 
ATOM      4  C   UNL     1       3.403   6.586  -7.411  0.00  0.00    +0.196 A 
ATOM      5  O   UNL     1       3.132   7.473  -6.364  0.00  0.00    -0.287 OA
ATOM      6  C   UNL     1       4.307   5.540  -7.269  0.00  0.00    +0.042 A 
ATOM      7  C   UNL     1       5.196   5.270  -8.305  0.00  0.00    -0.001 A 
ENDROOT
BRANCH   1   8
ATOM      8  C   UNL     1       5.784   5.675 -10.730  0.00  0.00    +0.045 C 
BRANCH   8  10
ATOM      9  C   UNL     1       7.301   7.484 -10.800  0.00  0.00    +0.021 C 
ATOM     10  C   UNL     1       7.257   6.002 -10.097  0.00  0.00    +0.096 C 
ATOM     11  N   UNL     1       7.999   5.339 -11.314  0.00  0.00    -0.133 NA
ENDBRANCH   8  10
ENDBRANCH   1   8
TORSDOF 2
ENDMDL
MODEL 7
REMARK VINA RESULT:      -5.0      3.141      4.913
REMARK  Name = 
REMARK  2 active torsions:
REMARK  status: ('A' for Active; 'I' for Inactive)
REMARK    1  A    between atoms: C_2  and  C_4
REMARK    2  A    between atoms: C_4  and  C_5
REMARK                            x       y       z     vdW  Elec       q    Type
REMARK                         _______ _______ _______ _____ _____    ______ ____
ROOT
ATOM      1  C   UNL     1       5.199   6.648  -9.986  0.00  0.00    -0.021 A 
ATOM      2  C   UNL     1       5.701   7.502 -10.951  0.00  0.00    -0.001 A 
ATOM      3  C   UNL     1       6.936   7.298 -11.556  0.00  0.00    +0.042 A 
ATOM      4  C   UNL     1       7.757   6.298 -11.061  0.00  0.00    +0.196 A 
ATOM      5  O   UNL     1       8.719   5.692 -11.875  0.00  0.00    -0.287 OA
ATOM      6  C   UNL     1       7.409   5.772  -9.822  0.00  0.00    +0.042 A 
ATOM      7  C   UNL     1       6.067   5.735  -9.457  0.00  0.00    -0.001 A 
ENDROOT
BRANCH   1   8
ATOM      8  C   UNL     1       3.728   6.554  -9.959  0.00  0.00    +0.045 C 
BRANCH   8  10
ATOM      9  C   UNL     1       2.110   5.371  -8.709  0.00  0.00    +0.021 C 
ATOM     10  C   UNL     1       3.310   6.441  -8.380  0.00  0.00    +0.096 C 
ATOM     11  N   UNL     1       2.328   7.664  -8.486  0.00  0.00    -0.133 NA
ENDBRANCH   8  10
ENDBRANCH   1   8
TORSDOF 2
ENDMDL
MODEL 8
REMARK VINA RESULT:      -5.0      6.510      8.213
REMARK  Name = 
REMARK  2 active torsions:
REMARK  status: ('A' for Active; 'I' for Inactive)
REMARK    1  A    between atoms: C_2  and  C_4
REMARK    2  A    between atoms: C_4  and  C_5
REMARK                            x       y       z     vdW  Elec       q    Type
REMARK                         _______ _______ _______ _____ _____    ______ ____
ROOT
ATOM      1  C   UNL     1      -0.480   5.924  -5.916  0.00  0.00    -0.021 A 
ATOM      2  C   UNL     1       0.090   5.920  -4.656  0.00  0.00    -0.001 A 
ATOM      3  C   UNL     1      -0.637   5.613  -3.512  0.00  0.00    +0.042 A 
ATOM      4  C   UNL     1      -2.010   5.464  -3.620  0.00  0.00    +0.196 A 
ATOM      5  O   UNL     1      -2.721   4.681  -2.705  0.00  0.00    -0.287 OA
ATOM      6  C   UNL     1      -2.587   5.915  -4.802  0.00  0.00    +0.042 A 
ATOM      7  C   UNL     1      -1.844   5.866  -5.977  0.00  0.00    -0.001 A 
ENDROOT
BRANCH   1   8
ATOM      8  C   UNL     1       0.446   5.570  -7.008  0.00  0.00    +0.045 C 
BRANCH   8  10
ATOM      9  C   UNL     1       1.956   7.295  -7.576  0.00  0.00    +0.021 C 
ATOM     10  C   UNL     1       1.932   6.045  -6.513  0.00  0.00    +0.096 C 
ATOM     11  N   UNL     1       2.648   5.088  -7.533  0.00  0.00    -0.133 NA
ENDBRANCH   8  10
ENDBRANCH   1   8
TORSDOF 2
ENDMDL
MODEL 9
REMARK VINA RESULT:      -5.0      2.859      3.869
REMARK  Name = 
REMARK  2 active torsions:
REMARK  status: ('A' for Active; 'I' for Inactive)
REMARK    1  A    between atoms: C_2  and  C_4
REMARK    2  A    between atoms: C_4  and  C_5
REMARK                            x       y       z     vdW  Elec       q    Type
REMARK                         _______ _______ _______ _____ _____    ______ ____
ROOT
ATOM      1  C   UNL     1       7.170   6.498 -13.257  0.00  0.00    -0.021 A 
ATOM      2  C   UNL     1       8.203   5.738 -12.742  0.00  0.00    -0.001 A 
ATOM      3  C   UNL     1       8.416   5.599 -11.376  0.00  0.00    +0.042 A 
ATOM      4  C   UNL     1       7.666   6.376 -10.508  0.00  0.00    +0.196 A 
ATOM      5  O   UNL     1       7.431   5.960  -9.193  0.00  0.00    -0.287 OA
ATOM      6  C   UNL     1       6.969   7.436 -11.076  0.00  0.00    +0.042 A 
ATOM      7  C   UNL     1       6.513   7.319 -12.385  0.00  0.00    -0.001 A 
ENDROOT
BRANCH   1   8
ATOM      8  C   UNL     1       6.647   6.022 -14.552  0.00  0.00    +0.045 C 
BRANCH   8  10
ATOM      9  C   UNL     1       5.082   7.104 -15.951  0.00  0.00    +0.021 C 
ATOM     10  C   UNL     1       6.659   7.318 -15.550  0.00  0.00    +0.096 C 
ATOM     11  N   UNL     1       7.147   6.456 -16.769  0.00  0.00    -0.133 NA
ENDBRANCH   8  10
ENDBRANCH   1   8
TORSDOF 2
ENDMDL
