MODEL 1
REMARK VINA RESULT:      -8.2      0.000      0.000
REMARK  Name = 
REMARK  5 active torsions:
REMARK  status: ('A' for Active; 'I' for Inactive)
REMARK    1  A    between atoms: C_6  and  O_7
REMARK    2  A    between atoms: O_7  and  C_8
REMARK    3  A    between atoms: C_8  and  C_10
REMARK    4  A    between atoms: C_10  and  C_12
REMARK    5  A    between atoms: C_10  and  C_17
REMARK                            x       y       z     vdW  Elec       q    Type
REMARK                         _______ _______ _______ _____ _____    ______ ____
ROOT
ATOM      1  C   UNL     1       2.533   7.047  -8.262  0.00  0.00    +0.354 C 
ATOM      2  O   UNL     1       2.167   8.226  -7.983  0.00  0.00    -0.247 OA
ENDROOT
BRANCH   1   3
ATOM      3  C   UNL     1       1.687   5.860  -8.252  0.00  0.00    +0.263 C 
ATOM      4  O   UNL     1       2.546   4.762  -8.043  0.00  0.00    -0.204 OA
BRANCH   3   5
ATOM      5  C   UNL     1       0.831   5.663  -9.429  0.00  0.00    +0.049 A 
ATOM      6  S   UNL     1       0.250   6.666 -10.694  0.00  0.00    -0.088 S 
ATOM      7  C   UNL     1      -0.135   5.437 -11.836  0.00  0.00    +0.035 A 
ATOM      8  C   UNL     1      -0.055   4.313 -11.024  0.00  0.00    +0.007 A 
ATOM      9  C   UNL     1       1.004   4.475 -10.143  0.00  0.00    +0.006 A 
ENDBRANCH   3   5
BRANCH   3  10
ATOM     10  C   UNL     1       0.792   6.006  -7.058  0.00  0.00    +0.049 A 
ATOM     11  S   UNL     1       1.236   6.232  -5.425  0.00  0.00    -0.088 S 
ATOM     12  C   UNL     1      -0.243   5.746  -4.697  0.00  0.00    +0.035 A 
ATOM     13  C   UNL     1      -1.082   5.632  -5.769  0.00  0.00    +0.007 A 
ATOM     14  C   UNL     1      -0.530   5.779  -6.976  0.00  0.00    +0.006 A 
ENDBRANCH   3  10
ENDBRANCH   1   3
BRANCH   1  15
ATOM     15  O   UNL     1       3.751   6.911  -8.858  0.00  0.00    -0.450 OA
BRANCH  15  23
ATOM     16  C   UNL     1       7.447   6.714 -12.454  0.00  0.00    +0.170 C 
ATOM     17  N   UNL     1       6.662   6.565 -12.372  0.00  0.00    +0.302 N 
ATOM     18  C   UNL     1       6.404   7.661 -11.245  0.00  0.00    +0.093 C 
ATOM     19  C   UNL     1       7.864   7.088 -10.482  0.00  0.00    +0.197 C 
ATOM     20  C   UNL     1       7.618   5.438 -10.572  0.00  0.00    +0.197 C 
ATOM     21  O   UNL     1       7.145   6.275  -9.224  0.00  0.00    -0.342 OA
ATOM     22  C   UNL     1       5.323   6.941 -10.436  0.00  0.00    +0.101 C 
ATOM     23  C   UNL     1       4.061   6.651 -10.225  0.00  0.00    +0.181 C 
ATOM     24  C   UNL     1       5.224   6.305 -10.595  0.00  0.00    +0.101 C 
ATOM     25  C   UNL     1       6.109   5.396 -11.438  0.00  0.00    +0.093 C 
ATOM     26  C   UNL     1       5.602   6.734 -13.353  0.00  0.00    +0.170 C 
ENDBRANCH  15  23
ENDBRANCH   1  15
TORSDOF 5
ENDMDL
MODEL 2
REMARK VINA RESULT:      -8.0      1.411      3.828
REMARK  Name = 
REMARK  5 active torsions:
REMARK  status: ('A' for Active; 'I' for Inactive)
REMARK    1  A    between atoms: C_6  and  O_7
REMARK    2  A    between atoms: O_7  and  C_8
REMARK    3  A    between atoms: C_8  and  C_10
REMARK    4  A    between atoms: C_10  and  C_12
REMARK    5  A    between atoms: C_10  and  C_17
REMARK                            x       y       z     vdW  Elec       q    Type
REMARK                         _______ _______ _______ _____ _____    ______ ____
ROOT
ATOM      1  C   UNL     1       3.638   4.979  -8.614  0.00  0.00    +0.354 C 
ATOM      2  O   UNL     1       3.568   3.734  -8.824  0.00  0.00    -0.247 OA
ENDROOT
BRANCH   1   3
ATOM      3  C   UNL     1       2.510   5.892  -8.468  0.00  0.00    +0.263 C 
ATOM      4  O   UNL     1       3.059   7.185  -8.351  0.00  0.00    -0.204 OA
BRANCH   3   5
ATOM      5  C   UNL     1       1.575   5.597  -7.375  0.00  0.00    +0.049 A 
ATOM      6  S   UNL     1       1.438   4.368  -6.186  0.00  0.00    -0.088 S 
ATOM      7  C   UNL     1       0.435   5.206  -5.068  0.00  0.00    +0.035 A 
ATOM      8  C   UNL     1       0.039   6.283  -5.851  0.00  0.00    +0.007 A 
ATOM      9  C   UNL     1       1.114   6.685  -6.630  0.00  0.00    +0.006 A 
ENDBRANCH   3   5
BRANCH   3  10
ATOM     10  C   UNL     1       1.747   5.806  -9.755  0.00  0.00    +0.049 A 
ATOM     11  S   UNL     1       0.193   5.149 -10.021  0.00  0.00    -0.088 S 
ATOM     12  C   UNL     1       0.306   4.928 -11.721  0.00  0.00    +0.035 A 
ATOM     13  C   UNL     1       1.469   5.574 -12.031  0.00  0.00    +0.007 A 
ATOM     14  C   UNL     1       2.192   6.027 -11.004  0.00  0.00    +0.006 A 
ENDBRANCH   3  10
ENDBRANCH   1   3
BRANCH   1  15
ATOM     15  O   UNL     1       4.856   5.468  -8.249  0.00  0.00    -0.450 OA
BRANCH  15  23
ATOM     16  C   UNL     1       7.590   6.490 -12.505  0.00  0.00    +0.170 C 
ATOM     17  N   UNL     1       7.685   6.162 -11.778  0.00  0.00    +0.302 N 
ATOM     18  C   UNL     1       6.190   5.631 -11.639  0.00  0.00    +0.093 C 
ATOM     19  C   UNL     1       5.679   7.185 -12.245  0.00  0.00    +0.197 C 
ATOM     20  C   UNL     1       6.641   8.194 -11.323  0.00  0.00    +0.197 C 
ATOM     21  O   UNL     1       5.117   7.802 -10.808  0.00  0.00    -0.342 OA
ATOM     22  C   UNL     1       6.001   5.804 -10.131  0.00  0.00    +0.101 C 
ATOM     23  C   UNL     1       6.114   5.342  -8.908  0.00  0.00    +0.181 C 
ATOM     24  C   UNL     1       6.477   6.144  -9.820  0.00  0.00    +0.101 C 
ATOM     25  C   UNL     1       7.565   7.015 -10.436  0.00  0.00    +0.093 C 
ATOM     26  C   UNL     1       8.547   5.056 -11.391  0.00  0.00    +0.170 C 
ENDBRANCH  15  23
ENDBRANCH   1  15
TORSDOF 5
ENDMDL
MODEL 3
REMARK VINA RESULT:      -8.0      1.912      2.896
REMARK  Name = 
REMARK  5 active torsions:
REMARK  status: ('A' for Active; 'I' for Inactive)
REMARK    1  A    between atoms: C_6  and  O_7
REMARK    2  A    between atoms: O_7  and  C_8
REMARK    3  A    between atoms: C_8  and  C_10
REMARK    4  A    between atoms: C_10  and  C_12
REMARK    5  A    between atoms: C_10  and  C_17
REMARK                            x       y       z     vdW  Elec       q    Type
REMARK                         _______ _______ _______ _____ _____    ______ ____
ROOT
ATOM      1  C   UNL     1       2.584   6.637  -7.752  0.00  0.00    +0.354 C 
ATOM      2  O   UNL     1       1.911   7.644  -8.118  0.00  0.00    -0.247 OA
ENDROOT
BRANCH   1   3
ATOM      3  C   UNL     1       2.143   5.597  -6.830  0.00  0.00    +0.263 C 
ATOM      4  O   UNL     1       2.392   4.367  -7.471  0.00  0.00    -0.204 OA
BRANCH   3   5
ATOM      5  C   UNL     1       0.755   5.693  -6.360  0.00  0.00    +0.049 A 
ATOM      6  S   UNL     1      -0.108   6.746  -5.315  0.00  0.00    -0.088 S 
ATOM      7  C   UNL     1      -1.700   6.412  -5.875  0.00  0.00    +0.035 A 
ATOM      8  C   UNL     1      -1.459   5.278  -6.640  0.00  0.00    +0.007 A 
ATOM      9  C   UNL     1      -0.248   5.434  -7.297  0.00  0.00    +0.006 A 
ENDBRANCH   3   5
BRANCH   3  10
ATOM     10  C   UNL     1       3.037   5.708  -5.632  0.00  0.00    +0.049 A 
ATOM     11  S   UNL     1       3.828   7.095  -5.028  0.00  0.00    -0.088 S 
ATOM     12  C   UNL     1       5.017   6.305  -4.072  0.00  0.00    +0.035 A 
ATOM     13  C   UNL     1       4.608   5.002  -4.101  0.00  0.00    +0.007 A 
ATOM     14  C   UNL     1       3.580   4.718  -4.904  0.00  0.00    +0.006 A 
ENDBRANCH   3  10
ENDBRANCH   1   3
BRANCH   1  15
ATOM     15  O   UNL     1       3.714   6.367  -8.464  0.00  0.00    -0.450 OA
BRANCH  15  23
ATOM     16  C   UNL     1       6.829   6.816 -12.554  0.00  0.00    +0.170 C 
ATOM     17  N   UNL     1       6.105   6.525 -12.363  0.00  0.00    +0.302 N 
ATOM     18  C   UNL     1       5.813   7.568 -11.194  0.00  0.00    +0.093 C 
ATOM     19  C   UNL     1       7.447   7.284 -10.657  0.00  0.00    +0.197 C 
ATOM     20  C   UNL     1       7.501   5.616 -10.735  0.00  0.00    +0.197 C 
ATOM     21  O   UNL     1       7.080   6.367  -9.322  0.00  0.00    -0.342 OA
ATOM     22  C   UNL     1       5.011   6.669 -10.250  0.00  0.00    +0.101 C 
ATOM     23  C   UNL     1       3.868   6.153  -9.865  0.00  0.00    +0.181 C 
ATOM     24  C   UNL     1       5.010   6.024 -10.402  0.00  0.00    +0.101 C 
ATOM     25  C   UNL     1       5.917   5.285 -11.377  0.00  0.00    +0.093 C 
ATOM     26  C   UNL     1       4.902   6.483 -13.180  0.00  0.00    +0.170 C 
ENDBRANCH  15  23
ENDBRANCH   1  15
TORSDOF 5
ENDMDL
MODEL 4
REMARK VINA RESULT:      -7.9      1.935      3.635
REMARK  Name = 
REMARK  5 active torsions:
REMARK  status: ('A' for Active; 'I' for Inactive)
REMARK    1  A    between atoms: C_6  and  O_7
REMARK    2  A    between atoms: O_7  and  C_8
REMARK    3  A    between atoms: C_8  and  C_10
REMARK    4  A    between atoms: C_10  and  C_12
REMARK    5  A    between atoms: C_10  and  C_17
REMARK                            x       y       z     vdW  Elec       q    Type
REMARK                         _______ _______ _______ _____ _____    ______ ____
ROOT
ATOM      1  C   UNL     1       3.045   5.185  -7.732  0.00  0.00    +0.354 C 
ATOM      2  O   UNL     1       2.667   3.980  -7.673  0.00  0.00    -0.247 OA
ENDROOT
BRANCH   1   3
ATOM      3  C   UNL     1       2.627   6.262  -6.842  0.00  0.00    +0.263 C 
ATOM      4  O   UNL     1       2.960   7.467  -7.493  0.00  0.00    -0.204 OA
BRANCH   3   5
ATOM      5  C   UNL     1       3.162   6.219  -5.475  0.00  0.00    +0.049 A 
ATOM      6  S   UNL     1       3.752   4.987  -4.436  0.00  0.00    -0.088 S 
ATOM      7  C   UNL     1       4.659   5.976  -3.358  0.00  0.00    +0.035 A 
ATOM      8  C   UNL     1       4.188   7.232  -3.722  0.00  0.00    +0.007 A 
ATOM      9  C   UNL     1       4.013   7.260  -5.097  0.00  0.00    +0.006 A 
ENDBRANCH   3   5
BRANCH   3  10
ATOM     10  C   UNL     1       1.135   6.159  -6.749  0.00  0.00    +0.049 A 
ATOM     11  S   UNL     1       0.148   6.322  -5.365  0.00  0.00    -0.088 S 
ATOM     12  C   UNL     1      -1.257   5.538  -5.969  0.00  0.00    +0.035 A 
ATOM     13  C   UNL     1      -0.962   5.374  -7.293  0.00  0.00    +0.007 A 
ATOM     14  C   UNL     1       0.272   5.709  -7.675  0.00  0.00    +0.006 A 
ENDBRANCH   3  10
ENDBRANCH   1   3
BRANCH   1  15
ATOM     15  O   UNL     1       4.117   5.451  -8.531  0.00  0.00    -0.450 OA
BRANCH  15  23
ATOM     16  C   UNL     1       6.644   7.035 -12.742  0.00  0.00    +0.170 C 
ATOM     17  N   UNL     1       6.058   6.526 -12.533  0.00  0.00    +0.302 N 
ATOM     18  C   UNL     1       5.549   7.370 -11.281  0.00  0.00    +0.093 C 
ATOM     19  C   UNL     1       7.226   7.577 -10.854  0.00  0.00    +0.197 C 
ATOM     20  C   UNL     1       7.778   6.012 -11.049  0.00  0.00    +0.197 C 
ATOM     21  O   UNL     1       7.252   6.528  -9.566  0.00  0.00    -0.342 OA
ATOM     22  C   UNL     1       5.128   6.224 -10.359  0.00  0.00    +0.101 C 
ATOM     23  C   UNL     1       4.227   5.363  -9.950  0.00  0.00    +0.181 C 
ATOM     24  C   UNL     1       5.312   5.618 -10.555  0.00  0.00    +0.101 C 
ATOM     25  C   UNL     1       6.328   5.242 -11.625  0.00  0.00    +0.093 C 
ATOM     26  C   UNL     1       4.870   6.156 -13.285  0.00  0.00    +0.170 C 
ENDBRANCH  15  23
ENDBRANCH   1  15
TORSDOF 5
ENDMDL
MODEL 5
REMARK VINA RESULT:      -7.6      6.165      9.497
REMARK  Name = 
REMARK  5 active torsions:
REMARK  status: ('A' for Active; 'I' for Inactive)
REMARK    1  A    between atoms: C_6  and  O_7
REMARK    2  A    between atoms: O_7  and  C_8
REMARK    3  A    between atoms: C_8  and  C_10
REMARK    4  A    between atoms: C_10  and  C_12
REMARK    5  A    between atoms: C_10  and  C_17
REMARK                            x       y       z     vdW  Elec       q    Type
REMARK                         _______ _______ _______ _____ _____    ______ ____
ROOT
ATOM      1  C   UNL     1       2.017   5.480  -1.042  0.00  0.00    +0.354 C 
ATOM      2  O   UNL     1       1.982   4.250  -0.749  0.00  0.00    -0.247 OA
ENDROOT
BRANCH   1   3
ATOM      3  C   UNL     1       3.151   6.377  -0.851  0.00  0.00    +0.263 C 
ATOM      4  O   UNL     1       4.014   5.737   0.062  0.00  0.00    -0.204 OA
BRANCH   3   5
ATOM      5  C   UNL     1       2.832   7.746  -0.428  0.00  0.00    +0.049 A 
ATOM      6  S   UNL     1       1.614   8.469   0.541  0.00  0.00    -0.088 S 
ATOM      7  C   UNL     1       2.424   9.942   0.909  0.00  0.00    +0.035 A 
ATOM      8  C   UNL     1       3.471   9.882  -0.002  0.00  0.00    +0.007 A 
ATOM      9  C   UNL     1       3.909   8.569  -0.089  0.00  0.00    +0.006 A 
ENDBRANCH   3   5
BRANCH   3  10
ATOM     10  C   UNL     1       3.834   6.460  -2.183  0.00  0.00    +0.049 A 
ATOM     11  S   UNL     1       3.831   7.759  -3.293  0.00  0.00    -0.088 S 
ATOM     12  C   UNL     1       4.312   6.888  -4.693  0.00  0.00    +0.035 A 
ATOM     13  C   UNL     1       4.657   5.668  -4.184  0.00  0.00    +0.007 A 
ATOM     14  C   UNL     1       4.411   5.472  -2.887  0.00  0.00    +0.006 A 
ENDBRANCH   3  10
ENDBRANCH   1   3
BRANCH   1  15
ATOM     15  O   UNL     1       1.006   5.950  -1.825  0.00  0.00    -0.450 OA
BRANCH  15  23
ATOM     16  C   UNL     1      -2.346   6.274  -5.735  0.00  0.00    +0.170 C 
ATOM     17  N   UNL     1      -1.570   6.115  -5.603  0.00  0.00    +0.302 N 
ATOM     18  C   UNL     1      -1.772   5.506  -4.145  0.00  0.00    +0.093 C 
ATOM     19  C   UNL     1      -2.835   6.852  -3.830  0.00  0.00    +0.197 C 
ATOM     20  C   UNL     1      -1.918   8.105  -4.446  0.00  0.00    +0.197 C 
ATOM     21  O   UNL     1      -1.811   7.709  -2.842  0.00  0.00    -0.342 OA
ATOM     22  C   UNL     1      -0.469   5.975  -3.494  0.00  0.00    +0.101 C 
ATOM     23  C   UNL     1       0.802   5.790  -3.227  0.00  0.00    +0.181 C 
ATOM     24  C   UNL     1      -0.115   6.410  -3.846  0.00  0.00    +0.101 C 
ATOM     25  C   UNL     1      -0.553   7.218  -5.061  0.00  0.00    +0.093 C 
ATOM     26  C   UNL     1      -0.704   5.187  -6.315  0.00  0.00    +0.170 C 
ENDBRANCH  15  23
ENDBRANCH   1  15
TORSDOF 5
ENDMDL
MODEL 6
REMARK VINA RESULT:      -7.6      3.457      6.423
REMARK  Name = 
REMARK  5 active torsions:
REMARK  status: ('A' for Active; 'I' for Inactive)
REMARK    1  A    between atoms: C_6  and  O_7
REMARK    2  A    between atoms: O_7  and  C_8
REMARK    3  A    between atoms: C_8  and  C_10
REMARK    4  A    between atoms: C_10  and  C_12
REMARK    5  A    between atoms: C_10  and  C_17
REMARK                            x       y       z     vdW  Elec       q    Type
REMARK                         _______ _______ _______ _____ _____    ______ ____
ROOT
ATOM      1  C   UNL     1       2.579   6.775  -8.482  0.00  0.00    +0.354 C 
ATOM      2  O   UNL     1       1.811   7.653  -8.969  0.00  0.00    -0.247 OA
ENDROOT
BRANCH   1   3
ATOM      3  C   UNL     1       3.206   5.680  -9.213  0.00  0.00    +0.263 C 
ATOM      4  O   UNL     1       3.339   4.616  -8.297  0.00  0.00    -0.204 OA
BRANCH   3   5
ATOM      5  C   UNL     1       4.480   5.987  -9.876  0.00  0.00    +0.049 A 
ATOM      6  S   UNL     1       5.103   7.321 -10.757  0.00  0.00    -0.088 S 
ATOM      7  C   UNL     1       6.781   6.980 -10.581  0.00  0.00    +0.035 A 
ATOM      8  C   UNL     1       6.718   5.680 -10.094  0.00  0.00    +0.007 A 
ATOM      9  C   UNL     1       5.645   5.584  -9.220  0.00  0.00    +0.006 A 
ENDBRANCH   3   5
BRANCH   3  10
ATOM     10  C   UNL     1       2.225   5.283 -10.274  0.00  0.00    +0.049 A 
ATOM     11  S   UNL     1       2.156   5.806 -11.899  0.00  0.00    -0.088 S 
ATOM     12  C   UNL     1       0.527   5.373 -12.229  0.00  0.00    +0.035 A 
ATOM     13  C   UNL     1       0.179   4.649 -11.124  0.00  0.00    +0.007 A 
ATOM     14  C   UNL     1       1.073   4.607 -10.133  0.00  0.00    +0.006 A 
ENDBRANCH   3  10
ENDBRANCH   1   3
BRANCH   1  15
ATOM     15  O   UNL     1       3.059   7.011  -7.228  0.00  0.00    -0.450 OA
BRANCH  15  23
ATOM     16  C   UNL     1       3.343   5.587  -2.276  0.00  0.00    +0.170 C 
ATOM     17  N   UNL     1       2.838   5.953  -2.782  0.00  0.00    +0.302 N 
ATOM     18  C   UNL     1       3.320   5.177  -4.086  0.00  0.00    +0.093 C 
ATOM     19  C   UNL     1       4.952   5.460  -3.540  0.00  0.00    +0.197 C 
ATOM     20  C   UNL     1       4.850   7.075  -3.123  0.00  0.00    +0.197 C 
ATOM     21  O   UNL     1       5.346   6.639  -4.641  0.00  0.00    -0.342 OA
ATOM     22  C   UNL     1       3.138   6.289  -5.122  0.00  0.00    +0.101 C 
ATOM     23  C   UNL     1       2.382   6.938  -5.975  0.00  0.00    +0.181 C 
ATOM     24  C   UNL     1       3.011   6.891  -4.875  0.00  0.00    +0.101 C 
ATOM     25  C   UNL     1       3.164   7.370  -3.437  0.00  0.00    +0.093 C 
ATOM     26  C   UNL     1       1.384   5.909  -2.796  0.00  0.00    +0.170 C 
ENDBRANCH  15  23
ENDBRANCH   1  15
TORSDOF 5
ENDMDL
MODEL 7
REMARK VINA RESULT:      -7.5      2.910      6.503
REMARK  Name = 
REMARK  5 active torsions:
REMARK  status: ('A' for Active; 'I' for Inactive)
REMARK    1  A    between atoms: C_6  and  O_7
REMARK    2  A    between atoms: O_7  and  C_8
REMARK    3  A    between atoms: C_8  and  C_10
REMARK    4  A    between atoms: C_10  and  C_12
REMARK    5  A    between atoms: C_10  and  C_17
REMARK                            x       y       z     vdW  Elec       q    Type
REMARK                         _______ _______ _______ _____ _____    ______ ____
ROOT
ATOM      1  C   UNL     1       4.208   5.255  -9.004  0.00  0.00    +0.354 C 
ATOM      2  O   UNL     1       4.088   3.997  -9.010  0.00  0.00    -0.247 OA
ENDROOT
BRANCH   1   3
ATOM      3  C   UNL     1       3.687   6.174 -10.010  0.00  0.00    +0.263 C 
ATOM      4  O   UNL     1       3.270   7.327  -9.316  0.00  0.00    -0.204 OA
BRANCH   3   5
ATOM      5  C   UNL     1       2.626   5.650 -10.879  0.00  0.00    +0.049 A 
ATOM      6  S   UNL     1       1.058   5.000 -10.630  0.00  0.00    -0.088 S 
ATOM      7  C   UNL     1       0.425   5.248 -12.211  0.00  0.00    +0.035 A 
ATOM      8  C   UNL     1       1.593   5.554 -12.898  0.00  0.00    +0.007 A 
ATOM      9  C   UNL     1       2.401   6.329 -12.079  0.00  0.00    +0.006 A 
ENDBRANCH   3   5
BRANCH   3  10
ATOM     10  C   UNL     1       4.854   6.529 -10.881  0.00  0.00    +0.049 A 
ATOM     11  S   UNL     1       5.841   5.485 -11.804  0.00  0.00    -0.088 S 
ATOM     12  C   UNL     1       7.186   6.535 -12.009  0.00  0.00    +0.035 A 
ATOM     13  C   UNL     1       6.715   7.723 -11.529  0.00  0.00    +0.007 A 
ATOM     14  C   UNL     1       5.507   7.701 -10.961  0.00  0.00    +0.006 A 
ENDBRANCH   3  10
ENDBRANCH   1   3
BRANCH   1  15
ATOM     15  O   UNL     1       4.642   5.822  -7.843  0.00  0.00    -0.450 OA
BRANCH  15  23
ATOM     16  C   UNL     1       1.362   6.005  -3.863  0.00  0.00    +0.170 C 
ATOM     17  N   UNL     1       2.063   5.669  -4.066  0.00  0.00    +0.302 N 
ATOM     18  C   UNL     1       2.522   6.833  -5.053  0.00  0.00    +0.093 C 
ATOM     19  C   UNL     1       0.901   6.804  -5.693  0.00  0.00    +0.197 C 
ATOM     20  C   UNL     1       0.678   5.157  -5.866  0.00  0.00    +0.197 C 
ATOM     21  O   UNL     1       1.250   6.056  -7.134  0.00  0.00    -0.342 OA
ATOM     22  C   UNL     1       3.283   5.999  -6.086  0.00  0.00    +0.101 C 
ATOM     23  C   UNL     1       4.389   5.426  -6.497  0.00  0.00    +0.181 C 
ATOM     24  C   UNL     1       3.212   5.343  -6.032  0.00  0.00    +0.101 C 
ATOM     25  C   UNL     1       2.182   4.572  -5.217  0.00  0.00    +0.093 C 
ATOM     26  C   UNL     1       3.208   5.383  -3.215  0.00  0.00    +0.170 C 
ENDBRANCH  15  23
ENDBRANCH   1  15
TORSDOF 5
ENDMDL
MODEL 8
REMARK VINA RESULT:      -7.4      3.476      6.517
REMARK  Name = 
REMARK  5 active torsions:
REMARK  status: ('A' for Active; 'I' for Inactive)
REMARK    1  A    between atoms: C_6  and  O_7
REMARK    2  A    between atoms: O_7  and  C_8
REMARK    3  A    between atoms: C_8  and  C_10
REMARK    4  A    between atoms: C_10  and  C_12
REMARK    5  A    between atoms: C_10  and  C_17
REMARK                            x       y       z     vdW  Elec       q    Type
REMARK                         _______ _______ _______ _____ _____    ______ ____
ROOT
ATOM      1  C   UNL     1       3.525   5.175  -8.664  0.00  0.00    +0.354 C 
ATOM      2  O   UNL     1       3.191   4.019  -9.051  0.00  0.00    -0.247 OA
ENDROOT
BRANCH   1   3
ATOM      3  C   UNL     1       3.448   6.401  -9.450  0.00  0.00    +0.263 C 
ATOM      4  O   UNL     1       3.270   7.453  -8.528  0.00  0.00    -0.204 OA
BRANCH   3   5
ATOM      5  C   UNL     1       2.432   6.430 -10.509  0.00  0.00    +0.049 A 
ATOM      6  S   UNL     1       2.212   5.625 -12.009  0.00  0.00    -0.088 S 
ATOM      7  C   UNL     1       0.519   5.873 -12.185  0.00  0.00    +0.035 A 
ATOM      8  C   UNL     1       0.305   6.827 -11.197  0.00  0.00    +0.007 A 
ATOM      9  C   UNL     1       1.099   6.517 -10.102  0.00  0.00    +0.006 A 
ENDBRANCH   3   5
BRANCH   3  10
ATOM     10  C   UNL     1       4.789   6.552 -10.102  0.00  0.00    +0.049 A 
ATOM     11  S   UNL     1       6.222   5.678  -9.788  0.00  0.00    -0.088 S 
ATOM     12  C   UNL     1       7.342   6.781 -10.482  0.00  0.00    +0.035 A 
ATOM     13  C   UNL     1       6.527   7.678 -11.113  0.00  0.00    +0.007 A 
ATOM     14  C   UNL     1       5.215   7.536 -10.912  0.00  0.00    +0.006 A 
ENDBRANCH   3  10
ENDBRANCH   1   3
BRANCH   1  15
ATOM     15  O   UNL     1       3.741   5.333  -7.327  0.00  0.00    -0.450 OA
BRANCH  15  23
ATOM     16  C   UNL     1       3.024   6.144  -2.282  0.00  0.00    +0.170 C 
ATOM     17  N   UNL     1       2.596   6.032  -2.952  0.00  0.00    +0.302 N 
ATOM     18  C   UNL     1       3.679   5.123  -3.687  0.00  0.00    +0.093 C 
ATOM     19  C   UNL     1       4.873   6.277  -3.154  0.00  0.00    +0.197 C 
ATOM     20  C   UNL     1       4.102   7.706  -3.546  0.00  0.00    +0.197 C 
ATOM     21  O   UNL     1       5.142   7.003  -4.624  0.00  0.00    -0.342 OA
ATOM     22  C   UNL     1       3.438   5.565  -5.132  0.00  0.00    +0.101 C 
ATOM     23  C   UNL     1       2.793   5.443  -6.268  0.00  0.00    +0.181 C 
ATOM     24  C   UNL     1       3.045   6.092  -5.208  0.00  0.00    +0.101 C 
ATOM     25  C   UNL     1       2.591   7.087  -4.148  0.00  0.00    +0.093 C 
ATOM     26  C   UNL     1       1.320   5.349  -3.107  0.00  0.00    +0.170 C 
ENDBRANCH  15  23
ENDBRANCH   1  15
TORSDOF 5
ENDMDL
MODEL 9
REMARK VINA RESULT:      -7.3      3.322      5.889
REMARK  Name = 
REMARK  5 active torsions:
REMARK  status: ('A' for Active; 'I' for Inactive)
REMARK    1  A    between atoms: C_6  and  O_7
REMARK    2  A    between atoms: O_7  and  C_8
REMARK    3  A    between atoms: C_8  and  C_10
REMARK    4  A    between atoms: C_10  and  C_12
REMARK    5  A    between atoms: C_10  and  C_17
REMARK                            x       y       z     vdW  Elec       q    Type
REMARK                         _______ _______ _______ _____ _____    ______ ____
ROOT
ATOM      1  C   UNL     1       3.870   5.467  -4.382  0.00  0.00    +0.354 C 
ATOM      2  O   UNL     1       4.771   4.822  -3.772  0.00  0.00    -0.247 OA
ENDROOT
BRANCH   1   3
ATOM      3  C   UNL     1       3.227   6.691  -3.920  0.00  0.00    +0.263 C 
ATOM      4  O   UNL     1       3.763   7.738  -4.697  0.00  0.00    -0.204 OA
BRANCH   3   5
ATOM      5  C   UNL     1       3.327   6.975  -2.483  0.00  0.00    +0.049 A 
ATOM      6  S   UNL     1       3.514   6.028  -1.064  0.00  0.00    -0.088 S 
ATOM      7  C   UNL     1       4.112   7.255  -0.016  0.00  0.00    +0.035 A 
ATOM      8  C   UNL     1       3.840   8.384  -0.778  0.00  0.00    +0.007 A 
ATOM      9  C   UNL     1       4.084   8.089  -2.111  0.00  0.00    +0.006 A 
ENDBRANCH   3   5
BRANCH   3  10
ATOM     10  C   UNL     1       1.773   6.539  -4.252  0.00  0.00    +0.049 A 
ATOM     11  S   UNL     1       0.665   5.389  -3.646  0.00  0.00    -0.088 S 
ATOM     12  C   UNL     1      -0.527   5.523  -4.876  0.00  0.00    +0.035 A 
ATOM     13  C   UNL     1      -0.104   6.609  -5.588  0.00  0.00    +0.007 A 
ATOM     14  C   UNL     1       1.080   7.123  -5.243  0.00  0.00    +0.006 A 
ENDBRANCH   3  10
ENDBRANCH   1   3
BRANCH   1  15
ATOM     15  O   UNL     1       3.656   5.132  -5.686  0.00  0.00    -0.450 OA
BRANCH  15  23
ATOM     16  C   UNL     1       3.545   5.548 -10.828  0.00  0.00    +0.170 C 
ATOM     17  N   UNL     1       4.009   5.754 -10.205  0.00  0.00    +0.302 N 
ATOM     18  C   UNL     1       3.598   4.523  -9.281  0.00  0.00    +0.093 C 
ATOM     19  C   UNL     1       1.950   4.834  -9.758  0.00  0.00    +0.197 C 
ATOM     20  C   UNL     1       1.894   6.494  -9.572  0.00  0.00    +0.197 C 
ATOM     21  O   UNL     1       1.433   5.503  -8.328  0.00  0.00    -0.342 OA
ATOM     22  C   UNL     1       3.662   5.205  -7.912  0.00  0.00    +0.101 C 
ATOM     23  C   UNL     1       4.345   5.572  -6.854  0.00  0.00    +0.181 C 
ATOM     24  C   UNL     1       3.730   5.864  -7.924  0.00  0.00    +0.101 C 
ATOM     25  C   UNL     1       3.540   6.808  -9.104  0.00  0.00    +0.093 C 
ATOM     26  C   UNL     1       5.460   5.839 -10.148  0.00  0.00    +0.170 C 
ENDBRANCH  15  23
ENDBRANCH   1  15
TORSDOF 5
ENDMDL
