MODEL 1
REMARK VINA RESULT:      -8.7      0.000      0.000
REMARK  Name = 
REMARK  6 active torsions:
REMARK  status: ('A' for Active; 'I' for Inactive)
REMARK    1  A    between atoms: C_2  and  C_3
REMARK    2  A    between atoms: N_5  and  C_6
REMARK    3  A    between atoms: N_5  and  C_12
REMARK    4  A    between atoms: N_15  and  C_16
REMARK    5  A    between atoms: C_16  and  C_17
REMARK    6  A    between atoms: C_17  and  C_18
REMARK                            x       y       z     vdW  Elec       q    Type
REMARK                         _______ _______ _______ _____ _____    ______ ____
ROOT
ATOM      1  C   UNL     1       2.345   5.482  -7.483  0.00  0.00    +0.083 C 
ATOM      2  C   UNL     1       3.681   4.951  -7.957  0.00  0.00    +0.038 C 
ATOM      3  C   UNL     1       3.540   4.643  -9.429  0.00  0.00    +0.074 C 
ATOM      4  N   UNL     1       3.111   5.875 -10.077  0.00  0.00    -0.272 NA
ATOM      5  C   UNL     1       3.150   7.010  -9.192  0.00  0.00    +0.074 C 
ATOM      6  C   UNL     1       2.133   6.848  -8.101  0.00  0.00    +0.038 C 
ENDROOT
BRANCH   1   8
ATOM      7  C   UNL     1       1.108   5.752  -5.386  0.00  0.00    +0.229 C 
ATOM      8  N   UNL     1       2.364   5.538  -6.040  0.00  0.00    -0.260 N 
ATOM      9  O   UNL     1       0.901   6.901  -4.927  0.00  0.00    -0.275 OA
BRANCH   8  10
ATOM     10  C   UNL     1       3.547   5.897  -5.317  0.00  0.00    +0.054 A 
ATOM     11  C   UNL     1       4.074   7.171  -5.354  0.00  0.00    +0.015 A 
ATOM     12  C   UNL     1       4.853   7.616  -4.304  0.00  0.00    +0.001 A 
ATOM     13  C   UNL     1       4.899   6.932  -3.101  0.00  0.00    +0.000 A 
ATOM     14  C   UNL     1       4.530   5.600  -3.132  0.00  0.00    +0.001 A 
ATOM     15  C   UNL     1       3.972   5.067  -4.288  0.00  0.00    +0.015 A 
ENDBRANCH   8  10
BRANCH   7  17
ATOM     16  C   UNL     1      -1.203   5.726  -6.257  0.00  0.00    +0.010 C 
ATOM     17  C   UNL     1      -0.017   4.879  -5.821  0.00  0.00    +0.086 C 
ENDBRANCH   7  17
ENDBRANCH   1   8
BRANCH   4  18
ATOM     18  C   UNL     1       4.099   6.131 -11.123  0.00  0.00    +0.077 C 
BRANCH  18  19
ATOM     19  C   UNL     1       4.925   7.298 -10.660  0.00  0.00    +0.044 C 
BRANCH  19  20
ATOM     20  C   UNL     1       6.372   7.086 -10.976  0.00  0.00    -0.021 A 
ATOM     21  C   UNL     1       7.213   6.358 -10.163  0.00  0.00    -0.004 A 
ATOM     22  C   UNL     1       8.153   5.496 -10.713  0.00  0.00    -0.000 A 
ATOM     23  C   UNL     1       8.305   5.377 -12.089  0.00  0.00    -0.000 A 
ATOM     24  C   UNL     1       7.744   6.391 -12.851  0.00  0.00    -0.000 A 
ATOM     25  C   UNL     1       6.693   7.103 -12.327  0.00  0.00    -0.004 A 
ENDBRANCH  19  20
ENDBRANCH  18  19
ENDBRANCH   4  18
TORSDOF 6
ENDMDL
MODEL 2
REMARK VINA RESULT:      -8.6      1.978      4.260
REMARK  Name = 
REMARK  6 active torsions:
REMARK  status: ('A' for Active; 'I' for Inactive)
REMARK    1  A    between atoms: C_2  and  C_3
REMARK    2  A    between atoms: N_5  and  C_6
REMARK    3  A    between atoms: N_5  and  C_12
REMARK    4  A    between atoms: N_15  and  C_16
REMARK    5  A    between atoms: C_16  and  C_17
REMARK    6  A    between atoms: C_17  and  C_18
REMARK                            x       y       z     vdW  Elec       q    Type
REMARK                         _______ _______ _______ _____ _____    ______ ____
ROOT
ATOM      1  C   UNL     1       1.953   5.589  -5.085  0.00  0.00    +0.083 C 
ATOM      2  C   UNL     1       2.399   6.606  -6.112  0.00  0.00    +0.038 C 
ATOM      3  C   UNL     1       3.754   6.166  -6.616  0.00  0.00    +0.074 C 
ATOM      4  N   UNL     1       3.592   4.813  -7.129  0.00  0.00    -0.272 NA
ATOM      5  C   UNL     1       2.212   4.403  -7.189  0.00  0.00    +0.074 C 
ATOM      6  C   UNL     1       1.648   4.292  -5.803  0.00  0.00    +0.038 C 
ENDROOT
BRANCH   1   8
ATOM      7  C   UNL     1       0.593   5.677  -3.049  0.00  0.00    +0.229 C 
ATOM      8  N   UNL     1       0.795   6.113  -4.398  0.00  0.00    -0.260 N 
ATOM      9  O   UNL     1      -0.307   4.824  -2.863  0.00  0.00    -0.275 OA
BRANCH   8  10
ATOM     10  C   UNL     1      -0.354   6.583  -5.113  0.00  0.00    +0.054 A 
ATOM     11  C   UNL     1      -1.102   5.758  -5.926  0.00  0.00    +0.015 A 
ATOM     12  C   UNL     1      -2.427   6.065  -6.172  0.00  0.00    +0.001 A 
ATOM     13  C   UNL     1      -3.097   7.015  -5.420  0.00  0.00    +0.000 A 
ATOM     14  C   UNL     1      -2.316   7.942  -4.754  0.00  0.00    +0.001 A 
ATOM     15  C   UNL     1      -0.936   7.780  -4.717  0.00  0.00    +0.015 A 
ENDBRANCH   8  10
BRANCH   7  17
ATOM     16  C   UNL     1       1.644   4.763  -1.010  0.00  0.00    +0.010 C 
ATOM     17  C   UNL     1       1.772   5.768  -2.145  0.00  0.00    +0.086 C 
ENDBRANCH   7  17
ENDBRANCH   1   8
BRANCH   4  18
ATOM     18  C   UNL     1       4.070   4.858  -8.510  0.00  0.00    +0.077 C 
BRANCH  18  19
ATOM     19  C   UNL     1       5.552   5.094  -8.446  0.00  0.00    +0.044 C 
BRANCH  19  20
ATOM     20  C   UNL     1       6.058   5.658  -9.736  0.00  0.00    -0.021 A 
ATOM     21  C   UNL     1       5.227   6.220 -10.680  0.00  0.00    -0.004 A 
ATOM     22  C   UNL     1       5.609   7.370 -11.359  0.00  0.00    -0.000 A 
ATOM     23  C   UNL     1       6.849   7.959 -11.142  0.00  0.00    -0.000 A 
ATOM     24  C   UNL     1       7.793   7.166 -10.507  0.00  0.00    -0.000 A 
ATOM     25  C   UNL     1       7.360   6.142  -9.701  0.00  0.00    -0.004 A 
ENDBRANCH  19  20
ENDBRANCH  18  19
ENDBRANCH   4  18
TORSDOF 6
ENDMDL
MODEL 3
REMARK VINA RESULT:      -8.3      2.060      6.648
REMARK  Name = 
REMARK  6 active torsions:
REMARK  status: ('A' for Active; 'I' for Inactive)
REMARK    1  A    between atoms: C_2  and  C_3
REMARK    2  A    between atoms: N_5  and  C_6
REMARK    3  A    between atoms: N_5  and  C_12
REMARK    4  A    between atoms: N_15  and  C_16
REMARK    5  A    between atoms: C_16  and  C_17
REMARK    6  A    between atoms: C_17  and  C_18
REMARK                            x       y       z     vdW  Elec       q    Type
REMARK                         _______ _______ _______ _____ _____    ______ ____
ROOT
ATOM      1  C   UNL     1       2.633   6.104  -9.362  0.00  0.00    +0.083 C 
ATOM      2  C   UNL     1       2.993   6.925  -8.143  0.00  0.00    +0.038 C 
ATOM      3  C   UNL     1       1.891   6.724  -7.130  0.00  0.00    +0.074 C 
ATOM      4  N   UNL     1       1.795   5.291  -6.891  0.00  0.00    -0.272 NA
ATOM      5  C   UNL     1       2.868   4.553  -7.508  0.00  0.00    +0.074 C 
ATOM      6  C   UNL     1       2.761   4.640  -9.002  0.00  0.00    +0.038 C 
ENDROOT
BRANCH   1   8
ATOM      7  C   UNL     1       3.128   6.092 -11.761  0.00  0.00    +0.229 C 
ATOM      8  N   UNL     1       3.522   6.476 -10.439  0.00  0.00    -0.260 N 
ATOM      9  O   UNL     1       3.734   5.119 -12.269  0.00  0.00    -0.275 OA
BRANCH   8  10
ATOM     10  C   UNL     1       4.916   6.714 -10.215  0.00  0.00    +0.054 A 
ATOM     11  C   UNL     1       5.731   5.788  -9.599  0.00  0.00    +0.015 A 
ATOM     12  C   UNL     1       7.089   5.802  -9.850  0.00  0.00    +0.001 A 
ATOM     13  C   UNL     1       7.619   6.534 -10.899  0.00  0.00    +0.000 A 
ATOM     14  C   UNL     1       6.846   7.575 -11.381  0.00  0.00    +0.001 A 
ATOM     15  C   UNL     1       5.539   7.726 -10.935  0.00  0.00    +0.015 A 
ENDBRANCH   8  10
BRANCH   7  17
ATOM     16  C   UNL     1       0.967   5.153 -12.502  0.00  0.00    +0.010 C 
ATOM     17  C   UNL     1       1.730   6.422 -12.153  0.00  0.00    +0.086 C 
ENDBRANCH   7  17
ENDBRANCH   1   8
BRANCH   4  18
ATOM     18  C   UNL     1       1.952   5.122  -5.448  0.00  0.00    +0.077 C 
BRANCH  18  19
ATOM     19  C   UNL     1       3.331   4.567  -5.226  0.00  0.00    +0.044 C 
BRANCH  19  20
ATOM     20  C   UNL     1       4.142   5.483  -4.365  0.00  0.00    -0.021 A 
ATOM     21  C   UNL     1       4.874   6.532  -4.875  0.00  0.00    -0.004 A 
ATOM     22  C   UNL     1       4.911   7.753  -4.214  0.00  0.00    -0.000 A 
ATOM     23  C   UNL     1       4.253   7.940  -3.004  0.00  0.00    -0.000 A 
ATOM     24  C   UNL     1       3.876   6.784  -2.335  0.00  0.00    -0.000 A 
ATOM     25  C   UNL     1       3.680   5.636  -3.063  0.00  0.00    -0.004 A 
ENDBRANCH  19  20
ENDBRANCH  18  19
ENDBRANCH   4  18
TORSDOF 6
ENDMDL
MODEL 4
REMARK VINA RESULT:      -8.3      1.057      3.425
REMARK  Name = 
REMARK  6 active torsions:
REMARK  status: ('A' for Active; 'I' for Inactive)
REMARK    1  A    between atoms: C_2  and  C_3
REMARK    2  A    between atoms: N_5  and  C_6
REMARK    3  A    between atoms: N_5  and  C_12
REMARK    4  A    between atoms: N_15  and  C_16
REMARK    5  A    between atoms: C_16  and  C_17
REMARK    6  A    between atoms: C_17  and  C_18
REMARK                            x       y       z     vdW  Elec       q    Type
REMARK                         _______ _______ _______ _____ _____    ______ ____
ROOT
ATOM      1  C   UNL     1       1.794   6.014  -7.562  0.00  0.00    +0.083 C 
ATOM      2  C   UNL     1       3.099   5.247  -7.570  0.00  0.00    +0.038 C 
ATOM      3  C   UNL     1       3.265   4.669  -8.956  0.00  0.00    +0.074 C 
ATOM      4  N   UNL     1       3.210   5.786  -9.888  0.00  0.00    -0.272 NA
ATOM      5  C   UNL     1       3.221   7.064  -9.223  0.00  0.00    +0.074 C 
ATOM      6  C   UNL     1       1.961   7.243  -8.430  0.00  0.00    +0.038 C 
ENDROOT
BRANCH   1   8
ATOM      7  C   UNL     1       2.554   6.317  -5.252  0.00  0.00    +0.229 C 
ATOM      8  N   UNL     1       1.476   6.356  -6.194  0.00  0.00    -0.260 N 
ATOM      9  O   UNL     1       2.583   5.337  -4.471  0.00  0.00    -0.275 OA
BRANCH   8  10
ATOM     10  C   UNL     1       0.148   6.221  -5.675  0.00  0.00    +0.054 A 
ATOM     11  C   UNL     1      -0.427   7.179  -4.867  0.00  0.00    +0.015 A 
ATOM     12  C   UNL     1      -1.804   7.287  -4.814  0.00  0.00    +0.001 A 
ATOM     13  C   UNL     1      -2.612   6.652  -5.741  0.00  0.00    +0.000 A 
ATOM     14  C   UNL     1      -2.058   5.577  -6.412  0.00  0.00    +0.001 A 
ATOM     15  C   UNL     1      -0.704   5.300  -6.270  0.00  0.00    +0.015 A 
ENDBRANCH   8  10
BRANCH   7  17
ATOM     16  C   UNL     1       4.562   7.486  -4.416  0.00  0.00    +0.010 C 
ATOM     17  C   UNL     1       3.801   7.027  -5.650  0.00  0.00    +0.086 C 
ENDBRANCH   7  17
ENDBRANCH   1   8
BRANCH   4  18
ATOM     18  C   UNL     1       4.447   5.711 -10.662  0.00  0.00    +0.077 C 
BRANCH  18  19
ATOM     19  C   UNL     1       4.983   7.112 -10.756  0.00  0.00    +0.044 C 
BRANCH  19  20
ATOM     20  C   UNL     1       6.359   7.117 -11.343  0.00  0.00    -0.021 A 
ATOM     21  C   UNL     1       7.476   6.739 -10.631  0.00  0.00    -0.004 A 
ATOM     22  C   UNL     1       8.471   5.978 -11.232  0.00  0.00    -0.000 A 
ATOM     23  C   UNL     1       8.394   5.616 -12.571  0.00  0.00    -0.000 A 
ATOM     24  C   UNL     1       7.489   6.332 -13.341  0.00  0.00    -0.000 A 
ATOM     25  C   UNL     1       6.417   6.924 -12.718  0.00  0.00    -0.004 A 
ENDBRANCH  19  20
ENDBRANCH  18  19
ENDBRANCH   4  18
TORSDOF 6
ENDMDL
MODEL 5
REMARK VINA RESULT:      -8.1      2.754      7.902
REMARK  Name = 
REMARK  6 active torsions:
REMARK  status: ('A' for Active; 'I' for Inactive)
REMARK    1  A    between atoms: C_2  and  C_3
REMARK    2  A    between atoms: N_5  and  C_6
REMARK    3  A    between atoms: N_5  and  C_12
REMARK    4  A    between atoms: N_15  and  C_16
REMARK    5  A    between atoms: C_16  and  C_17
REMARK    6  A    between atoms: C_17  and  C_18
REMARK                            x       y       z     vdW  Elec       q    Type
REMARK                         _______ _______ _______ _____ _____    ______ ____
ROOT
ATOM      1  C   UNL     1       2.622   5.941  -9.828  0.00  0.00    +0.083 C 
ATOM      2  C   UNL     1       2.673   6.877  -8.640  0.00  0.00    +0.038 C 
ATOM      3  C   UNL     1       1.439   6.610  -7.811  0.00  0.00    +0.074 C 
ATOM      4  N   UNL     1       1.458   5.194  -7.472  0.00  0.00    -0.272 NA
ATOM      5  C   UNL     1       2.695   4.552  -7.837  0.00  0.00    +0.074 C 
ATOM      6  C   UNL     1       2.842   4.529  -9.330  0.00  0.00    +0.038 C 
ENDROOT
BRANCH   1   8
ATOM      7  C   UNL     1       3.473   5.917 -12.126  0.00  0.00    +0.229 C 
ATOM      8  N   UNL     1       3.640   6.347 -10.771  0.00  0.00    -0.260 N 
ATOM      9  O   UNL     1       4.203   4.973 -12.511  0.00  0.00    -0.275 OA
BRANCH   8  10
ATOM     10  C   UNL     1       4.969   6.674 -10.347  0.00  0.00    +0.054 A 
ATOM     11  C   UNL     1       5.760   5.782  -9.655  0.00  0.00    +0.015 A 
ATOM     12  C   UNL     1       7.135   5.903  -9.715  0.00  0.00    +0.001 A 
ATOM     13  C   UNL     1       7.745   6.717 -10.655  0.00  0.00    +0.000 A 
ATOM     14  C   UNL     1       6.968   7.720 -11.203  0.00  0.00    +0.001 A 
ATOM     15  C   UNL     1       5.605   7.758 -10.938  0.00  0.00    +0.015 A 
ENDBRANCH   8  10
BRANCH   7  17
ATOM     16  C   UNL     1       2.236   6.174 -14.248  0.00  0.00    +0.010 C 
ATOM     17  C   UNL     1       2.133   6.154 -12.730  0.00  0.00    +0.086 C 
ENDBRANCH   7  17
ENDBRANCH   1   8
BRANCH   4  18
ATOM     18  C   UNL     1       1.377   5.139  -6.014  0.00  0.00    +0.077 C 
BRANCH  18  19
ATOM     19  C   UNL     1      -0.083   5.100  -5.663  0.00  0.00    +0.044 C 
BRANCH  19  20
ATOM     20  C   UNL     1      -0.407   6.123  -4.620  0.00  0.00    -0.021 A 
ATOM     21  C   UNL     1      -0.857   7.387  -4.930  0.00  0.00    -0.004 A 
ATOM     22  C   UNL     1      -1.862   7.982  -4.179  0.00  0.00    -0.000 A 
ATOM     23  C   UNL     1      -2.410   7.344  -3.072  0.00  0.00    -0.000 A 
ATOM     24  C   UNL     1      -1.677   6.284  -2.560  0.00  0.00    -0.000 A 
ATOM     25  C   UNL     1      -0.819   5.611  -3.395  0.00  0.00    -0.004 A 
ENDBRANCH  19  20
ENDBRANCH  18  19
ENDBRANCH   4  18
TORSDOF 6
ENDMDL
MODEL 6
REMARK VINA RESULT:      -8.1      2.538      7.689
REMARK  Name = 
REMARK  6 active torsions:
REMARK  status: ('A' for Active; 'I' for Inactive)
REMARK    1  A    between atoms: C_2  and  C_3
REMARK    2  A    between atoms: N_5  and  C_6
REMARK    3  A    between atoms: N_5  and  C_12
REMARK    4  A    between atoms: N_15  and  C_16
REMARK    5  A    between atoms: C_16  and  C_17
REMARK    6  A    between atoms: C_17  and  C_18
REMARK                            x       y       z     vdW  Elec       q    Type
REMARK                         _______ _______ _______ _____ _____    ______ ____
ROOT
ATOM      1  C   UNL     1       3.089   6.114  -8.230  0.00  0.00    +0.083 C 
ATOM      2  C   UNL     1       2.026   5.038  -8.183  0.00  0.00    +0.038 C 
ATOM      3  C   UNL     1       1.954   4.545  -6.756  0.00  0.00    +0.074 C 
ATOM      4  N   UNL     1       1.681   5.708  -5.923  0.00  0.00    -0.272 NA
ATOM      5  C   UNL     1       1.370   6.884  -6.695  0.00  0.00    +0.074 C 
ATOM      6  C   UNL     1       2.575   7.321  -7.475  0.00  0.00    +0.038 C 
ENDROOT
BRANCH   1   8
ATOM      7  C   UNL     1       2.281   6.271 -10.538  0.00  0.00    +0.229 C 
ATOM      8  N   UNL     1       3.365   6.419  -9.615  0.00  0.00    -0.260 N 
ATOM      9  O   UNL     1       2.306   5.259 -11.278  0.00  0.00    -0.275 OA
BRANCH   8  10
ATOM     10  C   UNL     1       4.693   6.350 -10.149  0.00  0.00    +0.054 A 
ATOM     11  C   UNL     1       5.209   7.333 -10.966  0.00  0.00    +0.015 A 
ATOM     12  C   UNL     1       6.578   7.511 -11.036  0.00  0.00    +0.001 A 
ATOM     13  C   UNL     1       7.428   6.921 -10.116  0.00  0.00    +0.000 A 
ATOM     14  C   UNL     1       6.937   5.822  -9.435  0.00  0.00    +0.001 A 
ATOM     15  C   UNL     1       5.598   5.475  -9.561  0.00  0.00    +0.015 A 
ENDBRANCH   8  10
BRANCH   7  17
ATOM     16  C   UNL     1      -0.147   6.355 -10.987  0.00  0.00    +0.010 C 
ATOM     17  C   UNL     1       0.995   6.913 -10.150  0.00  0.00    +0.086 C 
ENDBRANCH   7  17
ENDBRANCH   1   8
BRANCH   4  18
ATOM     18  C   UNL     1       0.473   5.375  -5.171  0.00  0.00    +0.077 C 
BRANCH  18  19
ATOM     19  C   UNL     1      -0.692   5.838  -5.999  0.00  0.00    +0.044 C 
BRANCH  19  20
ATOM     20  C   UNL     1      -1.818   6.294  -5.125  0.00  0.00    -0.021 A 
ATOM     21  C   UNL     1      -2.729   5.423  -4.568  0.00  0.00    -0.004 A 
ATOM     22  C   UNL     1      -3.169   5.604  -3.264  0.00  0.00    -0.000 A 
ATOM     23  C   UNL     1      -2.744   6.684  -2.501  0.00  0.00    -0.000 A 
ATOM     24  C   UNL     1      -2.165   7.731  -3.203  0.00  0.00    -0.000 A 
ATOM     25  C   UNL     1      -1.584   7.467  -4.419  0.00  0.00    -0.004 A 
ENDBRANCH  19  20
ENDBRANCH  18  19
ENDBRANCH   4  18
TORSDOF 6
ENDMDL
MODEL 7
REMARK VINA RESULT:      -8.1      2.770      5.212
REMARK  Name = 
REMARK  6 active torsions:
REMARK  status: ('A' for Active; 'I' for Inactive)
REMARK    1  A    between atoms: C_2  and  C_3
REMARK    2  A    between atoms: N_5  and  C_6
REMARK    3  A    between atoms: N_5  and  C_12
REMARK    4  A    between atoms: N_15  and  C_16
REMARK    5  A    between atoms: C_16  and  C_17
REMARK    6  A    between atoms: C_17  and  C_18
REMARK                            x       y       z     vdW  Elec       q    Type
REMARK                         _______ _______ _______ _____ _____    ______ ____
ROOT
ATOM      1  C   UNL     1       2.360   6.635  -6.049  0.00  0.00    +0.083 C 
ATOM      2  C   UNL     1       1.603   7.225  -7.219  0.00  0.00    +0.038 C 
ATOM      3  C   UNL     1       2.589   7.378  -8.354  0.00  0.00    +0.074 C 
ATOM      4  N   UNL     1       3.157   6.059  -8.599  0.00  0.00    -0.272 NA
ATOM      5  C   UNL     1       2.486   5.020  -7.859  0.00  0.00    +0.074 C 
ATOM      6  C   UNL     1       2.718   5.204  -6.388  0.00  0.00    +0.038 C 
ENDROOT
BRANCH   1   8
ATOM      7  C   UNL     1       2.174   6.620  -3.606  0.00  0.00    +0.229 C 
ATOM      8  N   UNL     1       1.520   6.719  -4.876  0.00  0.00    -0.260 N 
ATOM      9  O   UNL     1       2.056   5.531  -2.996  0.00  0.00    -0.275 OA
BRANCH   8  10
ATOM     10  C   UNL     1       0.128   6.385  -4.923  0.00  0.00    +0.054 A 
ATOM     11  C   UNL     1      -0.860   7.313  -4.667  0.00  0.00    +0.015 A 
ATOM     12  C   UNL     1      -2.121   7.130  -5.202  0.00  0.00    +0.001 A 
ATOM     13  C   UNL     1      -2.350   6.197  -6.200  0.00  0.00    +0.000 A 
ATOM     14  C   UNL     1      -1.427   5.174  -6.316  0.00  0.00    +0.001 A 
ATOM     15  C   UNL     1      -0.252   5.220  -5.576  0.00  0.00    +0.015 A 
ENDBRANCH   8  10
BRANCH   7  17
ATOM     16  C   UNL     1       4.606   6.642  -3.173  0.00  0.00    +0.010 C 
ATOM     17  C   UNL     1       3.366   7.491  -3.410  0.00  0.00    +0.086 C 
ENDBRANCH   7  17
ENDBRANCH   1   8
BRANCH   4  18
ATOM     18  C   UNL     1       2.913   5.784 -10.013  0.00  0.00    +0.077 C 
BRANCH  18  19
ATOM     19  C   UNL     1       1.655   4.965 -10.083  0.00  0.00    +0.044 C 
BRANCH  19  20
ATOM     20  C   UNL     1       0.701   5.537 -11.083  0.00  0.00    -0.021 A 
ATOM     21  C   UNL     1      -0.218   6.512 -10.763  0.00  0.00    -0.004 A 
ATOM     22  C   UNL     1      -0.471   7.558 -11.641  0.00  0.00    -0.000 A 
ATOM     23  C   UNL     1       0.158   7.630 -12.879  0.00  0.00    -0.000 A 
ATOM     24  C   UNL     1       0.750   6.458 -13.326  0.00  0.00    -0.000 A 
ATOM     25  C   UNL     1       1.144   5.523 -12.400  0.00  0.00    -0.004 A 
ENDBRANCH  19  20
ENDBRANCH  18  19
ENDBRANCH   4  18
TORSDOF 6
ENDMDL
MODEL 8
REMARK VINA RESULT:      -7.8      2.596      8.338
REMARK  Name = 
REMARK  6 active torsions:
REMARK  status: ('A' for Active; 'I' for Inactive)
REMARK    1  A    between atoms: C_2  and  C_3
REMARK    2  A    between atoms: N_5  and  C_6
REMARK    3  A    between atoms: N_5  and  C_12
REMARK    4  A    between atoms: N_15  and  C_16
REMARK    5  A    between atoms: C_16  and  C_17
REMARK    6  A    between atoms: C_17  and  C_18
REMARK                            x       y       z     vdW  Elec       q    Type
REMARK                         _______ _______ _______ _____ _____    ______ ____
ROOT
ATOM      1  C   UNL     1       2.991   5.613  -8.251  0.00  0.00    +0.083 C 
ATOM      2  C   UNL     1       1.892   4.599  -8.016  0.00  0.00    +0.038 C 
ATOM      3  C   UNL     1       1.896   4.272  -6.541  0.00  0.00    +0.074 C 
ATOM      4  N   UNL     1       1.724   5.532  -5.831  0.00  0.00    -0.272 NA
ATOM      5  C   UNL     1       1.409   6.627  -6.712  0.00  0.00    +0.074 C 
ATOM      6  C   UNL     1       2.576   6.919  -7.609  0.00  0.00    +0.038 C 
ENDROOT
BRANCH   1   8
ATOM      7  C   UNL     1       4.442   6.286 -10.106  0.00  0.00    +0.229 C 
ATOM      8  N   UNL     1       3.187   5.749  -9.676  0.00  0.00    -0.260 N 
ATOM      9  O   UNL     1       4.441   7.476 -10.500  0.00  0.00    -0.275 OA
BRANCH   8  10
ATOM     10  C   UNL     1       2.081   5.868 -10.579  0.00  0.00    +0.054 A 
ATOM     11  C   UNL     1       0.969   6.627 -10.283  0.00  0.00    +0.015 A 
ATOM     12  C   UNL     1       0.197   7.134 -11.312  0.00  0.00    +0.001 A 
ATOM     13  C   UNL     1       0.651   7.132 -12.620  0.00  0.00    +0.000 A 
ATOM     14  C   UNL     1       1.653   6.229 -12.927  0.00  0.00    +0.001 A 
ATOM     15  C   UNL     1       2.270   5.513 -11.908  0.00  0.00    +0.015 A 
ENDBRANCH   8  10
BRANCH   7  17
ATOM     16  C   UNL     1       6.912   6.259 -10.141  0.00  0.00    +0.010 C 
ATOM     17  C   UNL     1       5.659   5.671  -9.508  0.00  0.00    +0.086 C 
ENDBRANCH   7  17
ENDBRANCH   1   8
BRANCH   4  18
ATOM     18  C   UNL     1       0.557   5.341  -4.973  0.00  0.00    +0.077 C 
BRANCH  18  19
ATOM     19  C   UNL     1      -0.654   5.516  -5.846  0.00  0.00    +0.044 C 
BRANCH  19  20
ATOM     20  C   UNL     1      -1.786   6.114  -5.073  0.00  0.00    -0.021 A 
ATOM     21  C   UNL     1      -2.743   5.351  -4.441  0.00  0.00    -0.004 A 
ATOM     22  C   UNL     1      -3.212   5.709  -3.183  0.00  0.00    -0.000 A 
ATOM     23  C   UNL     1      -2.769   6.863  -2.548  0.00  0.00    -0.000 A 
ATOM     24  C   UNL     1      -2.133   7.793  -3.357  0.00  0.00    -0.000 A 
ATOM     25  C   UNL     1      -1.528   7.359  -4.512  0.00  0.00    -0.004 A 
ENDBRANCH  19  20
ENDBRANCH  18  19
ENDBRANCH   4  18
TORSDOF 6
ENDMDL
MODEL 9
REMARK VINA RESULT:      -7.7      1.370      1.927
REMARK  Name = 
REMARK  6 active torsions:
REMARK  status: ('A' for Active; 'I' for Inactive)
REMARK    1  A    between atoms: C_2  and  C_3
REMARK    2  A    between atoms: N_5  and  C_6
REMARK    3  A    between atoms: N_5  and  C_12
REMARK    4  A    between atoms: N_15  and  C_16
REMARK    5  A    between atoms: C_16  and  C_17
REMARK    6  A    between atoms: C_17  and  C_18
REMARK                            x       y       z     vdW  Elec       q    Type
REMARK                         _______ _______ _______ _____ _____    ______ ____
ROOT
ATOM      1  C   UNL     1       1.337   5.498  -6.328  0.00  0.00    +0.083 C 
ATOM      2  C   UNL     1       2.289   4.321  -6.323  0.00  0.00    +0.038 C 
ATOM      3  C   UNL     1       2.408   3.840  -7.750  0.00  0.00    +0.074 C 
ATOM      4  N   UNL     1       2.852   4.979  -8.542  0.00  0.00    -0.272 NA
ATOM      5  C   UNL     1       3.225   6.109  -7.729  0.00  0.00    +0.074 C 
ATOM      6  C   UNL     1       2.019   6.656  -7.024  0.00  0.00    +0.038 C 
ENDROOT
BRANCH   1   8
ATOM      7  C   UNL     1      -0.346   6.240  -4.710  0.00  0.00    +0.229 C 
ATOM      8  N   UNL     1       0.998   5.814  -4.959  0.00  0.00    -0.260 N 
ATOM      9  O   UNL     1      -0.519   7.466  -4.507  0.00  0.00    -0.275 OA
BRANCH   8  10
ATOM     10  C   UNL     1       1.996   6.206  -4.009  0.00  0.00    +0.054 A 
ATOM     11  C   UNL     1       2.360   5.400  -2.951  0.00  0.00    +0.015 A 
ATOM     12  C   UNL     1       3.614   5.542  -2.388  0.00  0.00    +0.001 A 
ATOM     13  C   UNL     1       4.608   6.272  -3.018  0.00  0.00    +0.000 A 
ATOM     14  C   UNL     1       4.193   7.202  -3.954  0.00  0.00    +0.001 A 
ATOM     15  C   UNL     1       2.861   7.239  -4.345  0.00  0.00    +0.015 A 
ENDBRANCH   8  10
BRANCH   7  17
ATOM     16  C   UNL     1      -2.359   6.239  -6.141  0.00  0.00    +0.010 C 
ATOM     17  C   UNL     1      -1.423   5.393  -5.291  0.00  0.00    +0.086 C 
ENDBRANCH   7  17
ENDBRANCH   1   8
BRANCH   4  18
ATOM     18  C   UNL     1       4.070   4.535  -9.217  0.00  0.00    +0.077 C 
BRANCH  18  19
ATOM     19  C   UNL     1       5.177   5.435  -8.747  0.00  0.00    +0.044 C 
BRANCH  19  20
ATOM     20  C   UNL     1       6.018   5.891  -9.897  0.00  0.00    -0.021 A 
ATOM     21  C   UNL     1       7.392   5.974  -9.830  0.00  0.00    -0.004 A 
ATOM     22  C   UNL     1       8.175   5.580 -10.907  0.00  0.00    -0.000 A 
ATOM     23  C   UNL     1       7.602   5.135 -12.092  0.00  0.00    -0.000 A 
ATOM     24  C   UNL     1       6.260   5.438 -12.268  0.00  0.00    -0.000 A 
ATOM     25  C   UNL     1       5.481   5.650 -11.156  0.00  0.00    -0.004 A 
ENDBRANCH  19  20
ENDBRANCH  18  19
ENDBRANCH   4  18
TORSDOF 6
ENDMDL
