MODEL 1
REMARK VINA RESULT:      -8.6      0.000      0.000
REMARK  Name = 
REMARK  5 active torsions:
REMARK  status: ('A' for Active; 'I' for Inactive)
REMARK    1  A    between atoms: N_5  and  C_6
REMARK    2  A    between atoms: C_6  and  C_7
REMARK    3  A    between atoms: C_7  and  C_8
REMARK    4  A    between atoms: C_8  and  N_9
REMARK    5  A    between atoms: C_20  and  C_21
REMARK                            x       y       z     vdW  Elec       q    Type
REMARK                         _______ _______ _______ _____ _____    ______ ____
ROOT
ATOM      1  N   UNL     1       0.214   6.223  -4.515  0.00  0.00    -0.286 N 
ATOM      2  C   UNL     1       1.470   6.290  -3.853  0.00  0.00    +0.058 A 
ATOM      3  C   UNL     1       1.632   6.017  -2.506  0.00  0.00    +0.043 A 
ATOM      4  C   UNL     1       2.518   6.771  -1.746  0.00  0.00    +0.008 A 
ATOM      5  C   UNL     1       3.562   7.351  -2.454  0.00  0.00    +0.004 A 
ATOM      6  C   UNL     1       3.730   7.102  -3.809  0.00  0.00    +0.073 A 
ATOM      7  S   UNL     1       0.315   5.071  -1.731  0.00  0.00    -0.084 S 
ATOM      8  C   UNL     1      -1.165   5.430  -2.689  0.00  0.00    +0.043 A 
ATOM      9  C   UNL     1      -2.313   5.618  -1.941  0.00  0.00    +0.008 A 
ATOM     10  C   UNL     1      -3.410   6.296  -2.418  0.00  0.00    +0.001 A 
ATOM     11  C   UNL     1      -3.221   7.206  -3.440  0.00  0.00    +0.001 A 
ATOM     12  C   UNL     1      -2.101   7.009  -4.237  0.00  0.00    +0.015 A 
ATOM     13  C   UNL     1       2.636   6.637  -4.528  0.00  0.00    +0.019 A 
ATOM     14  C   UNL     1      -1.007   6.291  -3.768  0.00  0.00    +0.058 A 
ENDROOT
BRANCH   6  15
ATOM     15  C   UNL     1       5.064   7.304  -4.459  0.00  0.00    +0.419 C 
ATOM     16  F   UNL     1       5.404   8.632  -4.482  0.00  0.00    -0.166 F 
ATOM     17  F   UNL     1       5.066   6.767  -5.723  0.00  0.00    -0.166 F 
ATOM     18  F   UNL     1       5.988   6.673  -3.633  0.00  0.00    -0.166 F 
ENDBRANCH   6  15
BRANCH   1  19
ATOM     19  C   UNL     1       0.155   6.613  -5.921  0.00  0.00    +0.097 C 
BRANCH  19  20
ATOM     20  C   UNL     1      -0.113   5.455  -6.835  0.00  0.00    +0.039 C 
BRANCH  20  21
ATOM     21  C   UNL     1       0.633   5.513  -8.131  0.00  0.00    +0.074 C 
BRANCH  21  26
ATOM     22  C   UNL     1       5.930   5.662  -9.534  0.00  0.00    +0.090 C 
ATOM     23  N   UNL     1       4.657   5.698  -8.862  0.00  0.00    -0.269 NA
ATOM     24  C   UNL     1       3.952   4.421  -8.946  0.00  0.00    +0.090 C 
ATOM     25  C   UNL     1       2.813   4.476  -7.983  0.00  0.00    +0.090 C 
ATOM     26  N   UNL     1       2.044   5.656  -7.977  0.00  0.00    -0.270 NA
ATOM     27  C   UNL     1       2.616   6.840  -8.489  0.00  0.00    +0.090 C 
ATOM     28  C   UNL     1       3.737   6.661  -9.467  0.00  0.00    +0.090 C 
ENDBRANCH  21  26
ENDBRANCH  20  21
ENDBRANCH  19  20
ENDBRANCH   1  19
TORSDOF 5
ENDMDL
MODEL 2
REMARK VINA RESULT:      -8.3      3.539      6.962
REMARK  Name = 
REMARK  5 active torsions:
REMARK  status: ('A' for Active; 'I' for Inactive)
REMARK    1  A    between atoms: N_5  and  C_6
REMARK    2  A    between atoms: C_6  and  C_7
REMARK    3  A    between atoms: C_7  and  C_8
REMARK    4  A    between atoms: C_8  and  N_9
REMARK    5  A    between atoms: C_20  and  C_21
REMARK                            x       y       z     vdW  Elec       q    Type
REMARK                         _______ _______ _______ _____ _____    ______ ____
ROOT
ATOM      1  N   UNL     1       1.149   6.213  -5.275  0.00  0.00    -0.286 N 
ATOM      2  C   UNL     1      -0.194   6.206  -4.809  0.00  0.00    +0.058 A 
ATOM      3  C   UNL     1      -1.282   5.991  -5.637  0.00  0.00    +0.043 A 
ATOM      4  C   UNL     1      -2.458   6.705  -5.439  0.00  0.00    +0.008 A 
ATOM      5  C   UNL     1      -2.667   7.154  -4.141  0.00  0.00    +0.004 A 
ATOM      6  C   UNL     1      -1.788   6.821  -3.120  0.00  0.00    +0.073 A 
ATOM      7  S   UNL     1      -0.928   5.205  -7.214  0.00  0.00    -0.084 S 
ATOM      8  C   UNL     1       0.775   5.639  -7.598  0.00  0.00    +0.043 A 
ATOM      9  C   UNL     1       1.010   5.965  -8.922  0.00  0.00    +0.008 A 
ATOM     10  C   UNL     1       2.094   6.708  -9.325  0.00  0.00    +0.001 A 
ATOM     11  C   UNL     1       2.691   7.544  -8.401  0.00  0.00    +0.001 A 
ATOM     12  C   UNL     1       2.512   7.209  -7.065  0.00  0.00    +0.015 A 
ATOM     13  C   UNL     1      -0.505   6.414  -3.470  0.00  0.00    +0.019 A 
ATOM     14  C   UNL     1       1.437   6.425  -6.663  0.00  0.00    +0.058 A 
ENDROOT
BRANCH   6  15
ATOM     15  C   UNL     1      -2.229   6.872  -1.691  0.00  0.00    +0.419 C 
ATOM     16  F   UNL     1      -1.794   8.022  -1.082  0.00  0.00    -0.166 F 
ATOM     17  F   UNL     1      -1.796   5.757  -1.016  0.00  0.00    -0.166 F 
ATOM     18  F   UNL     1      -3.617   6.943  -1.724  0.00  0.00    -0.166 F 
ENDBRANCH   6  15
BRANCH   1  19
ATOM     19  C   UNL     1       2.207   6.531  -4.321  0.00  0.00    +0.097 C 
BRANCH  19  20
ATOM     20  C   UNL     1       2.961   5.320  -3.862  0.00  0.00    +0.039 C 
BRANCH  20  21
ATOM     21  C   UNL     1       4.155   5.627  -3.013  0.00  0.00    +0.074 C 
BRANCH  21  26
ATOM     22  C   UNL     1       1.511   7.888   1.223  0.00  0.00    +0.090 C 
ATOM     23  N   UNL     1       2.387   7.149   0.351  0.00  0.00    -0.269 NA
ATOM     24  C   UNL     1       3.142   8.024  -0.543  0.00  0.00    +0.090 C 
ATOM     25  C   UNL     1       4.213   7.199  -1.176  0.00  0.00    +0.090 C 
ATOM     26  N   UNL     1       3.834   5.930  -1.657  0.00  0.00    -0.270 NA
ATOM     27  C   UNL     1       2.670   5.327  -1.136  0.00  0.00    +0.090 C 
ATOM     28  C   UNL     1       1.653   6.257  -0.547  0.00  0.00    +0.090 C 
ENDBRANCH  21  26
ENDBRANCH  20  21
ENDBRANCH  19  20
ENDBRANCH   1  19
TORSDOF 5
ENDMDL
MODEL 3
REMARK VINA RESULT:      -8.2      3.851      7.592
REMARK  Name = 
REMARK  5 active torsions:
REMARK  status: ('A' for Active; 'I' for Inactive)
REMARK    1  A    between atoms: N_5  and  C_6
REMARK    2  A    between atoms: C_6  and  C_7
REMARK    3  A    between atoms: C_7  and  C_8
REMARK    4  A    between atoms: C_8  and  N_9
REMARK    5  A    between atoms: C_20  and  C_21
REMARK                            x       y       z     vdW  Elec       q    Type
REMARK                         _______ _______ _______ _____ _____    ______ ____
ROOT
ATOM      1  N   UNL     1       3.135   6.166 -10.295  0.00  0.00    -0.286 N 
ATOM      2  C   UNL     1       4.322   6.147 -11.078  0.00  0.00    +0.058 A 
ATOM      3  C   UNL     1       4.321   5.960 -12.448  0.00  0.00    +0.043 A 
ATOM      4  C   UNL     1       5.320   5.199 -13.045  0.00  0.00    +0.008 A 
ATOM      5  C   UNL     1       6.521   5.148 -12.351  0.00  0.00    +0.004 A 
ATOM      6  C   UNL     1       6.707   5.886 -11.190  0.00  0.00    +0.073 A 
ATOM      7  S   UNL     1       2.759   6.262 -13.284  0.00  0.00    -0.084 S 
ATOM      8  C   UNL     1       1.485   5.948 -12.053  0.00  0.00    +0.043 A 
ATOM      9  C   UNL     1       0.377   5.264 -12.521  0.00  0.00    +0.008 A 
ATOM     10  C   UNL     1      -0.477   4.575 -11.693  0.00  0.00    +0.001 A 
ATOM     11  C   UNL     1       0.004   4.144 -10.471  0.00  0.00    +0.001 A 
ATOM     12  C   UNL     1       1.085   4.848  -9.956  0.00  0.00    +0.015 A 
ATOM     13  C   UNL     1       5.578   6.323 -10.507  0.00  0.00    +0.019 A 
ATOM     14  C   UNL     1       1.927   5.576 -10.789  0.00  0.00    +0.058 A 
ENDROOT
BRANCH   6  15
ATOM     15  C   UNL     1       8.086   6.221 -10.715  0.00  0.00    +0.419 C 
ATOM     16  F   UNL     1       8.088   7.387  -9.993  0.00  0.00    -0.166 F 
ATOM     17  F   UNL     1       8.955   6.290 -11.776  0.00  0.00    -0.166 F 
ATOM     18  F   UNL     1       8.439   5.208  -9.829  0.00  0.00    -0.166 F 
ENDBRANCH   6  15
BRANCH   1  19
ATOM     19  C   UNL     1       3.268   6.291  -8.846  0.00  0.00    +0.097 C 
BRANCH  19  20
ATOM     20  C   UNL     1       2.639   7.541  -8.309  0.00  0.00    +0.039 C 
BRANCH  20  21
ATOM     21  C   UNL     1       1.840   7.337  -7.060  0.00  0.00    +0.074 C 
BRANCH  21  26
ATOM     22  C   UNL     1       3.112   5.298  -2.134  0.00  0.00    +0.090 C 
ATOM     23  N   UNL     1       2.999   5.607  -3.536  0.00  0.00    -0.269 NA
ATOM     24  C   UNL     1       3.355   6.994  -3.826  0.00  0.00    +0.090 C 
ATOM     25  C   UNL     1       3.492   7.119  -5.308  0.00  0.00    +0.090 C 
ATOM     26  N   UNL     1       2.487   6.516  -6.090  0.00  0.00    -0.270 NA
ATOM     27  C   UNL     1       1.711   5.485  -5.521  0.00  0.00    +0.090 C 
ATOM     28  C   UNL     1       1.626   5.474  -4.024  0.00  0.00    +0.090 C 
ENDBRANCH  21  26
ENDBRANCH  20  21
ENDBRANCH  19  20
ENDBRANCH   1  19
TORSDOF 5
ENDMDL
MODEL 4
REMARK VINA RESULT:      -8.0      3.832      6.006
REMARK  Name = 
REMARK  5 active torsions:
REMARK  status: ('A' for Active; 'I' for Inactive)
REMARK    1  A    between atoms: N_5  and  C_6
REMARK    2  A    between atoms: C_6  and  C_7
REMARK    3  A    between atoms: C_7  and  C_8
REMARK    4  A    between atoms: C_8  and  N_9
REMARK    5  A    between atoms: C_20  and  C_21
REMARK                            x       y       z     vdW  Elec       q    Type
REMARK                         _______ _______ _______ _____ _____    ______ ____
ROOT
ATOM      1  N   UNL     1       0.957   5.688  -7.634  0.00  0.00    -0.286 N 
ATOM      2  C   UNL     1       0.499   5.911  -6.307  0.00  0.00    +0.058 A 
ATOM      3  C   UNL     1       1.337   6.281  -5.270  0.00  0.00    +0.043 A 
ATOM      4  C   UNL     1       1.135   5.762  -3.996  0.00  0.00    +0.008 A 
ATOM      5  C   UNL     1      -0.168   5.372  -3.715  0.00  0.00    +0.004 A 
ATOM      6  C   UNL     1      -1.189   5.579  -4.632  0.00  0.00    +0.073 A 
ATOM      7  S   UNL     1       2.923   6.977  -5.748  0.00  0.00    -0.084 S 
ATOM      8  C   UNL     1       3.290   6.277  -7.363  0.00  0.00    +0.043 A 
ATOM      9  C   UNL     1       4.608   5.897  -7.549  0.00  0.00    +0.008 A 
ATOM     10  C   UNL     1       4.993   4.988  -8.504  0.00  0.00    +0.001 A 
ATOM     11  C   UNL     1       4.054   4.083  -8.961  0.00  0.00    +0.001 A 
ATOM     12  C   UNL     1       2.724   4.463  -8.832  0.00  0.00    +0.015 A 
ATOM     13  C   UNL     1      -0.842   5.775  -5.963  0.00  0.00    +0.019 A 
ATOM     14  C   UNL     1       2.340   5.411  -7.891  0.00  0.00    +0.058 A 
ENDROOT
BRANCH   6  15
ATOM     15  C   UNL     1      -2.617   5.620  -4.183  0.00  0.00    +0.419 C 
ATOM     16  F   UNL     1      -3.087   6.908  -4.153  0.00  0.00    -0.166 F 
ATOM     17  F   UNL     1      -2.752   5.011  -2.959  0.00  0.00    -0.166 F 
ATOM     18  F   UNL     1      -3.343   4.957  -5.168  0.00  0.00    -0.166 F 
ENDBRANCH   6  15
BRANCH   1  19
ATOM     19  C   UNL     1      -0.008   5.222  -8.626  0.00  0.00    +0.097 C 
BRANCH  19  20
ATOM     20  C   UNL     1      -0.068   6.102  -9.838  0.00  0.00    +0.039 C 
BRANCH  20  21
ATOM     21  C   UNL     1      -0.013   5.361 -11.137  0.00  0.00    +0.074 C 
BRANCH  21  26
ATOM     22  C   UNL     1       4.384   5.818 -14.378  0.00  0.00    +0.090 C 
ATOM     23  N   UNL     1       3.147   5.993 -13.661  0.00  0.00    -0.269 NA
ATOM     24  C   UNL     1       3.346   6.014 -12.213  0.00  0.00    +0.090 C 
ATOM     25  C   UNL     1       2.075   6.492 -11.595  0.00  0.00    +0.090 C 
ATOM     26  N   UNL     1       0.880   5.934 -12.090  0.00  0.00    -0.270 NA
ATOM     27  C   UNL     1       0.884   5.353 -13.376  0.00  0.00    +0.090 C 
ATOM     28  C   UNL     1       2.216   4.887 -13.884  0.00  0.00    +0.090 C 
ENDBRANCH  21  26
ENDBRANCH  20  21
ENDBRANCH  19  20
ENDBRANCH   1  19
TORSDOF 5
ENDMDL
MODEL 5
REMARK VINA RESULT:      -8.0      4.261      8.976
REMARK  Name = 
REMARK  5 active torsions:
REMARK  status: ('A' for Active; 'I' for Inactive)
REMARK    1  A    between atoms: N_5  and  C_6
REMARK    2  A    between atoms: C_6  and  C_7
REMARK    3  A    between atoms: C_7  and  C_8
REMARK    4  A    between atoms: C_8  and  N_9
REMARK    5  A    between atoms: C_20  and  C_21
REMARK                            x       y       z     vdW  Elec       q    Type
REMARK                         _______ _______ _______ _____ _____    ______ ____
ROOT
ATOM      1  N   UNL     1       4.323   5.745 -10.633  0.00  0.00    -0.286 N 
ATOM      2  C   UNL     1       3.166   5.837 -11.454  0.00  0.00    +0.058 A 
ATOM      3  C   UNL     1       3.206   5.725 -12.833  0.00  0.00    +0.043 A 
ATOM      4  C   UNL     1       2.387   6.527 -13.618  0.00  0.00    +0.008 A 
ATOM      5  C   UNL     1       1.222   6.967 -13.004  0.00  0.00    +0.004 A 
ATOM      6  C   UNL     1       0.887   6.545 -11.724  0.00  0.00    +0.073 A 
ATOM      7  S   UNL     1       4.673   4.943 -13.517  0.00  0.00    -0.084 S 
ATOM      8  C   UNL     1       5.983   5.246 -12.324  0.00  0.00    +0.043 A 
ATOM      9  C   UNL     1       7.209   5.577 -12.873  0.00  0.00    +0.008 A 
ATOM     10  C   UNL     1       8.186   6.239 -12.170  0.00  0.00    +0.001 A 
ATOM     11  C   UNL     1       7.804   7.007 -11.086  0.00  0.00    +0.001 A 
ATOM     12  C   UNL     1       6.601   6.662 -10.485  0.00  0.00    +0.015 A 
ATOM     13  C   UNL     1       1.900   6.044 -10.916  0.00  0.00    +0.019 A 
ATOM     14  C   UNL     1       5.627   5.960 -11.185  0.00  0.00    +0.058 A 
ENDROOT
BRANCH   6  15
ATOM     15  C   UNL     1      -0.532   6.605 -11.252  0.00  0.00    +0.419 C 
ATOM     16  F   UNL     1      -1.211   5.461 -11.586  0.00  0.00    -0.166 F 
ATOM     17  F   UNL     1      -1.157   7.720 -11.753  0.00  0.00    -0.166 F 
ATOM     18  F   UNL     1      -0.468   6.634  -9.862  0.00  0.00    -0.166 F 
ENDBRANCH   6  15
BRANCH   1  19
ATOM     19  C   UNL     1       4.166   5.960  -9.197  0.00  0.00    +0.097 C 
BRANCH  19  20
ATOM     20  C   UNL     1       4.213   4.686  -8.408  0.00  0.00    +0.039 C 
BRANCH  20  21
ATOM     21  C   UNL     1       2.933   3.913  -8.417  0.00  0.00    +0.074 C 
BRANCH  21  26
ATOM     22  C   UNL     1       0.823   6.598  -4.129  0.00  0.00    +0.090 C 
ATOM     23  N   UNL     1       1.154   5.659  -5.170  0.00  0.00    -0.269 NA
ATOM     24  C   UNL     1       2.548   5.227  -5.101  0.00  0.00    +0.090 C 
ATOM     25  C   UNL     1       2.698   4.056  -6.014  0.00  0.00    +0.090 C 
ATOM     26  N   UNL     1       2.101   4.163  -7.285  0.00  0.00    -0.270 NA
ATOM     27  C   UNL     1       1.055   5.091  -7.467  0.00  0.00    +0.090 C 
ATOM     28  C   UNL     1       1.018   6.240  -6.505  0.00  0.00    +0.090 C 
ENDBRANCH  21  26
ENDBRANCH  20  21
ENDBRANCH  19  20
ENDBRANCH   1  19
TORSDOF 5
ENDMDL
MODEL 6
REMARK VINA RESULT:      -7.9      3.626      7.100
REMARK  Name = 
REMARK  5 active torsions:
REMARK  status: ('A' for Active; 'I' for Inactive)
REMARK    1  A    between atoms: N_5  and  C_6
REMARK    2  A    between atoms: C_6  and  C_7
REMARK    3  A    between atoms: C_7  and  C_8
REMARK    4  A    between atoms: C_8  and  N_9
REMARK    5  A    between atoms: C_20  and  C_21
REMARK                            x       y       z     vdW  Elec       q    Type
REMARK                         _______ _______ _______ _____ _____    ______ ____
ROOT
ATOM      1  N   UNL     1       1.731   5.215  -6.481  0.00  0.00    -0.286 N 
ATOM      2  C   UNL     1       1.947   5.330  -7.881  0.00  0.00    +0.058 A 
ATOM      3  C   UNL     1       3.161   5.698  -8.432  0.00  0.00    +0.043 A 
ATOM      4  C   UNL     1       3.196   6.524  -9.549  0.00  0.00    +0.008 A 
ATOM      5  C   UNL     1       2.068   6.476 -10.358  0.00  0.00    +0.004 A 
ATOM      6  C   UNL     1       1.034   5.590 -10.088  0.00  0.00    +0.073 A 
ATOM      7  S   UNL     1       4.597   5.519  -7.365  0.00  0.00    -0.084 S 
ATOM      8  C   UNL     1       3.971   5.675  -5.686  0.00  0.00    +0.043 A 
ATOM      9  C   UNL     1       4.765   6.422  -4.834  0.00  0.00    +0.008 A 
ATOM     10  C   UNL     1       4.284   7.001  -3.684  0.00  0.00    +0.001 A 
ATOM     11  C   UNL     1       2.930   7.262  -3.602  0.00  0.00    +0.001 A 
ATOM     12  C   UNL     1       2.107   6.490  -4.410  0.00  0.00    +0.015 A 
ATOM     13  C   UNL     1       0.936   5.073  -8.802  0.00  0.00    +0.019 A 
ATOM     14  C   UNL     1       2.602   5.873  -5.553  0.00  0.00    +0.058 A 
ENDROOT
BRANCH   6  15
ATOM     15  C   UNL     1       0.078   5.186 -11.167  0.00  0.00    +0.419 C 
ATOM     16  F   UNL     1       0.748   4.825 -12.308  0.00  0.00    -0.166 F 
ATOM     17  F   UNL     1      -0.819   6.195 -11.415  0.00  0.00    -0.166 F 
ATOM     18  F   UNL     1      -0.557   4.039 -10.702  0.00  0.00    -0.166 F 
ENDBRANCH   6  15
BRANCH   1  19
ATOM     19  C   UNL     1       0.383   4.898  -6.016  0.00  0.00    +0.097 C 
BRANCH  19  20
ATOM     20  C   UNL     1      -0.594   6.007  -6.264  0.00  0.00    +0.039 C 
BRANCH  20  21
ATOM     21  C   UNL     1      -2.026   5.614  -6.078  0.00  0.00    +0.074 C 
BRANCH  21  26
ATOM     22  C   UNL     1      -2.326   7.183  -0.834  0.00  0.00    +0.090 C 
ATOM     23  N   UNL     1      -2.571   6.856  -2.215  0.00  0.00    -0.269 NA
ATOM     24  C   UNL     1      -2.305   5.448  -2.505  0.00  0.00    +0.090 C 
ATOM     25  C   UNL     1      -2.867   5.158  -3.857  0.00  0.00    +0.090 C 
ATOM     26  N   UNL     1      -2.605   6.102  -4.868  0.00  0.00    -0.270 NA
ATOM     27  C   UNL     1      -2.265   7.419  -4.496  0.00  0.00    +0.090 C 
ATOM     28  C   UNL     1      -1.686   7.587  -3.123  0.00  0.00    +0.090 C 
ENDBRANCH  21  26
ENDBRANCH  20  21
ENDBRANCH  19  20
ENDBRANCH   1  19
TORSDOF 5
ENDMDL
MODEL 7
REMARK VINA RESULT:      -7.9      3.553      5.633
REMARK  Name = 
REMARK  5 active torsions:
REMARK  status: ('A' for Active; 'I' for Inactive)
REMARK    1  A    between atoms: N_5  and  C_6
REMARK    2  A    between atoms: C_6  and  C_7
REMARK    3  A    between atoms: C_7  and  C_8
REMARK    4  A    between atoms: C_8  and  N_9
REMARK    5  A    between atoms: C_20  and  C_21
REMARK                            x       y       z     vdW  Elec       q    Type
REMARK                         _______ _______ _______ _____ _____    ______ ____
ROOT
ATOM      1  N   UNL     1       2.779   6.484  -6.512  0.00  0.00    -0.286 N 
ATOM      2  C   UNL     1       1.519   6.374  -7.160  0.00  0.00    +0.058 A 
ATOM      3  C   UNL     1       0.323   6.251  -6.476  0.00  0.00    +0.043 A 
ATOM      4  C   UNL     1      -0.675   5.417  -6.965  0.00  0.00    +0.008 A 
ATOM      5  C   UNL     1      -0.651   5.205  -8.337  0.00  0.00    +0.004 A 
ATOM      6  C   UNL     1       0.266   5.864  -9.145  0.00  0.00    +0.073 A 
ATOM      7  S   UNL     1       0.347   6.758  -4.751  0.00  0.00    -0.084 S 
ATOM      8  C   UNL     1       2.045   6.526  -4.205  0.00  0.00    +0.043 A 
ATOM      9  C   UNL     1       2.182   5.987  -2.938  0.00  0.00    +0.008 A 
ATOM     10  C   UNL     1       3.328   5.356  -2.517  0.00  0.00    +0.001 A 
ATOM     11  C   UNL     1       4.167   4.820  -3.475  0.00  0.00    +0.001 A 
ATOM     12  C   UNL     1       4.085   5.379  -4.743  0.00  0.00    +0.015 A 
ATOM     13  C   UNL     1       1.406   6.387  -8.547  0.00  0.00    +0.019 A 
ATOM     14  C   UNL     1       2.940   6.050  -5.156  0.00  0.00    +0.058 A 
ENDROOT
BRANCH   6  15
ATOM     15  C   UNL     1       0.008   6.026 -10.611  0.00  0.00    +0.419 C 
ATOM     16  F   UNL     1      -0.895   7.032 -10.843  0.00  0.00    -0.166 F 
ATOM     17  F   UNL     1      -0.417   4.840 -11.157  0.00  0.00    -0.166 F 
ATOM     18  F   UNL     1       1.214   6.443 -11.164  0.00  0.00    -0.166 F 
ENDBRANCH   6  15
BRANCH   1  19
ATOM     19  C   UNL     1       3.979   6.527  -7.342  0.00  0.00    +0.097 C 
BRANCH  19  20
ATOM     20  C   UNL     1       4.230   5.241  -8.070  0.00  0.00    +0.039 C 
BRANCH  20  21
ATOM     21  C   UNL     1       5.652   5.044  -8.493  0.00  0.00    +0.074 C 
BRANCH  21  26
ATOM     22  C   UNL     1       7.466   6.139 -13.549  0.00  0.00    +0.090 C 
ATOM     23  N   UNL     1       6.955   6.184 -12.203  0.00  0.00    -0.269 NA
ATOM     24  C   UNL     1       7.892   5.611 -11.238  0.00  0.00    +0.090 C 
ATOM     25  C   UNL     1       7.405   5.975  -9.874  0.00  0.00    +0.090 C 
ATOM     26  N   UNL     1       6.027   5.819  -9.631  0.00  0.00    -0.270 NA
ATOM     27  C   UNL     1       5.142   5.791 -10.729  0.00  0.00    +0.090 C 
ATOM     28  C   UNL     1       5.738   5.387 -12.045  0.00  0.00    +0.090 C 
ENDBRANCH  21  26
ENDBRANCH  20  21
ENDBRANCH  19  20
ENDBRANCH   1  19
TORSDOF 5
ENDMDL
MODEL 8
REMARK VINA RESULT:      -7.8      2.595      6.535
REMARK  Name = 
REMARK  5 active torsions:
REMARK  status: ('A' for Active; 'I' for Inactive)
REMARK    1  A    between atoms: N_5  and  C_6
REMARK    2  A    between atoms: C_6  and  C_7
REMARK    3  A    between atoms: C_7  and  C_8
REMARK    4  A    between atoms: C_8  and  N_9
REMARK    5  A    between atoms: C_20  and  C_21
REMARK                            x       y       z     vdW  Elec       q    Type
REMARK                         _______ _______ _______ _____ _____    ______ ____
ROOT
ATOM      1  N   UNL     1       0.743   5.780  -7.454  0.00  0.00    -0.286 N 
ATOM      2  C   UNL     1       1.963   5.970  -6.750  0.00  0.00    +0.058 A 
ATOM      3  C   UNL     1       3.121   6.428  -7.352  0.00  0.00    +0.043 A 
ATOM      4  C   UNL     1       4.353   5.903  -6.977  0.00  0.00    +0.008 A 
ATOM      5  C   UNL     1       4.412   5.390  -5.688  0.00  0.00    +0.004 A 
ATOM      6  C   UNL     1       3.325   5.489  -4.831  0.00  0.00    +0.073 A 
ATOM      7  S   UNL     1       2.911   7.272  -8.925  0.00  0.00    -0.084 S 
ATOM      8  C   UNL     1       1.404   6.596  -9.636  0.00  0.00    +0.043 A 
ATOM      9  C   UNL     1       1.461   6.346 -10.996  0.00  0.00    +0.008 A 
ATOM     10  C   UNL     1       0.612   5.470 -11.628  0.00  0.00    +0.001 A 
ATOM     11  C   UNL     1       0.021   4.474 -10.874  0.00  0.00    +0.001 A 
ATOM     12  C   UNL     1      -0.094   4.723  -9.513  0.00  0.00    +0.015 A 
ATOM     13  C   UNL     1       2.071   5.706  -5.388  0.00  0.00    +0.019 A 
ATOM     14  C   UNL     1       0.740   5.637  -8.880  0.00  0.00    +0.058 A 
ENDROOT
BRANCH   6  15
ATOM     15  C   UNL     1       3.515   5.394  -3.349  0.00  0.00    +0.419 C 
ATOM     16  F   UNL     1       4.473   4.464  -3.034  0.00  0.00    -0.166 F 
ATOM     17  F   UNL     1       2.322   5.110  -2.730  0.00  0.00    -0.166 F 
ATOM     18  F   UNL     1       4.017   6.629  -2.951  0.00  0.00    -0.166 F 
ENDBRANCH   6  15
BRANCH   1  19
ATOM     19  C   UNL     1      -0.391   5.215  -6.728  0.00  0.00    +0.097 C 
BRANCH  19  20
ATOM     20  C   UNL     1      -1.102   6.225  -5.881  0.00  0.00    +0.039 C 
BRANCH  20  21
ATOM     21  C   UNL     1      -2.372   5.725  -5.267  0.00  0.00    +0.074 C 
BRANCH  21  26
ATOM     22  C   UNL     1      -1.686   6.617   0.098  0.00  0.00    +0.090 C 
ATOM     23  N   UNL     1      -1.904   6.065  -1.215  0.00  0.00    -0.269 NA
ATOM     24  C   UNL     1      -0.773   6.302  -2.108  0.00  0.00    +0.090 C 
ATOM     25  C   UNL     1      -0.971   5.448  -3.316  0.00  0.00    +0.090 C 
ATOM     26  N   UNL     1      -2.263   5.431  -3.876  0.00  0.00    -0.270 NA
ATOM     27  C   UNL     1      -3.357   5.805  -3.067  0.00  0.00    +0.090 C 
ATOM     28  C   UNL     1      -3.041   6.685  -1.896  0.00  0.00    +0.090 C 
ENDBRANCH  21  26
ENDBRANCH  20  21
ENDBRANCH  19  20
ENDBRANCH   1  19
TORSDOF 5
ENDMDL
MODEL 9
REMARK VINA RESULT:      -7.6      2.798      6.771
REMARK  Name = 
REMARK  5 active torsions:
REMARK  status: ('A' for Active; 'I' for Inactive)
REMARK    1  A    between atoms: N_5  and  C_6
REMARK    2  A    between atoms: C_6  and  C_7
REMARK    3  A    between atoms: C_7  and  C_8
REMARK    4  A    between atoms: C_8  and  N_9
REMARK    5  A    between atoms: C_20  and  C_21
REMARK                            x       y       z     vdW  Elec       q    Type
REMARK                         _______ _______ _______ _____ _____    ______ ____
ROOT
ATOM      1  N   UNL     1       1.725   6.473  -9.071  0.00  0.00    -0.286 N 
ATOM      2  C   UNL     1       3.000   6.349  -8.453  0.00  0.00    +0.058 A 
ATOM      3  C   UNL     1       4.166   6.126  -9.162  0.00  0.00    +0.043 A 
ATOM      4  C   UNL     1       5.142   5.281  -8.645  0.00  0.00    +0.008 A 
ATOM      5  C   UNL     1       5.152   5.163  -7.262  0.00  0.00    +0.004 A 
ATOM      6  C   UNL     1       4.292   5.917  -6.475  0.00  0.00    +0.073 A 
ATOM      7  S   UNL     1       4.109   6.515 -10.916  0.00  0.00    -0.084 S 
ATOM      8  C   UNL     1       2.386   6.325 -11.396  0.00  0.00    +0.043 A 
ATOM      9  C   UNL     1       2.185   5.708 -12.618  0.00  0.00    +0.008 A 
ATOM     10  C   UNL     1       0.999   5.104 -12.961  0.00  0.00    +0.001 A 
ATOM     11  C   UNL     1       0.168   4.674 -11.945  0.00  0.00    +0.001 A 
ATOM     12  C   UNL     1       0.316   5.313 -10.720  0.00  0.00    +0.015 A 
ATOM     13  C   UNL     1       3.158   6.451  -7.075  0.00  0.00    +0.019 A 
ATOM     14  C   UNL     1       1.502   5.957 -10.389  0.00  0.00    +0.058 A 
ENDROOT
BRANCH   6  15
ATOM     15  C   UNL     1       4.604   6.166  -5.032  0.00  0.00    +0.419 C 
ATOM     16  F   UNL     1       5.479   7.213  -4.892  0.00  0.00    -0.166 F 
ATOM     17  F   UNL     1       5.093   5.026  -4.444  0.00  0.00    -0.166 F 
ATOM     18  F   UNL     1       3.407   6.571  -4.450  0.00  0.00    -0.166 F 
ENDBRANCH   6  15
BRANCH   1  19
ATOM     19  C   UNL     1       0.555   6.627  -8.211  0.00  0.00    +0.097 C 
BRANCH  19  20
ATOM     20  C   UNL     1      -0.059   5.317  -7.823  0.00  0.00    +0.039 C 
BRANCH  20  21
ATOM     21  C   UNL     1       0.020   5.013  -6.360  0.00  0.00    +0.074 C 
BRANCH  21  26
ATOM     22  C   UNL     1      -2.763   6.872  -2.018  0.00  0.00    +0.090 C 
ATOM     23  N   UNL     1      -2.082   6.693  -3.275  0.00  0.00    -0.269 NA
ATOM     24  C   UNL     1      -2.681   5.632  -4.081  0.00  0.00    +0.090 C 
ATOM     25  C   UNL     1      -2.104   5.734  -5.453  0.00  0.00    +0.090 C 
ATOM     26  N   UNL     1      -0.711   5.925  -5.542  0.00  0.00    -0.270 NA
ATOM     27  C   UNL     1      -0.027   6.458  -4.429  0.00  0.00    +0.090 C 
ATOM     28  C   UNL     1      -0.692   6.275  -3.098  0.00  0.00    +0.090 C 
ENDBRANCH  21  26
ENDBRANCH  20  21
ENDBRANCH  19  20
ENDBRANCH   1  19
TORSDOF 5
ENDMDL
