MODEL 1
REMARK VINA RESULT:      -6.4      0.000      0.000
REMARK  Name = 
REMARK  11 active torsions:
REMARK  status: ('A' for Active; 'I' for Inactive)
REMARK    1  A    between atoms: C_2  and  C_3
REMARK    2  A    between atoms: C_13  and  O_14
REMARK    3  A    between atoms: O_14  and  C_15
REMARK    4  A    between atoms: C_20  and  N_21
REMARK    5  A    between atoms: C_26  and  O_28
REMARK    6  A    between atoms: N_38  and  C_39
REMARK    7  A    between atoms: C_39  and  C_40
REMARK    8  A    between atoms: C_40  and  C_41
REMARK    9  A    between atoms: C_41  and  C_42
REMARK   10  A    between atoms: C_42  and  N_43
REMARK   11  A    between atoms: C_46  and  C_47
REMARK                            x       y       z     vdW  Elec       q    Type
REMARK                         _______ _______ _______ _____ _____    ______ ____
ROOT
ATOM      1  C   UNL     1       3.929   5.303  -2.115  0.00  0.00    +0.207 C 
ATOM      2  C   UNL     1       2.597   5.260  -1.158  0.00  0.00    +0.191 C 
ATOM      3  C   UNL     1       1.671   6.531  -1.504  0.00  0.00    +0.125 C 
ATOM      4  N   UNL     1       1.462   6.800   0.028  0.00  0.00    -0.244 N 
ATOM      5  C   UNL     1       2.859   6.938   0.343  0.00  0.00    +0.405 C 
ATOM      6  O   UNL     1       3.408   7.676   1.214  0.00  0.00    -0.226 OA
ATOM      7  C   UNL     1       0.178   5.699  -1.603  0.00  0.00    +0.079 C 
ATOM      8  C   UNL     1      -0.717   7.055  -1.534  0.00  0.00    +0.010 C 
ATOM      9  C   UNL     1       0.027   5.621  -3.173  0.00  0.00    +0.152 C 
ATOM     10  O   UNL     1      -0.616   4.709  -3.485  0.00  0.00    -0.296 OA
ATOM     11  C   UNL     1       0.536   6.791  -4.107  0.00  0.00    +0.060 C 
ATOM     12  C   UNL     1      -0.774   7.779  -3.946  0.00  0.00    +0.008 C 
ATOM     13  C   UNL     1      -0.112   6.202  -5.471  0.00  0.00    +0.037 C 
ATOM     14  C   UNL     1       0.653   5.308  -6.248  0.00  0.00    +0.119 C 
ATOM     15  C   UNL     1       1.348   4.135  -5.684  0.00  0.00    +0.032 C 
ATOM     16  C   UNL     1       1.672   6.074  -7.287  0.00  0.00    +0.149 C 
ATOM     17  C   UNL     1       3.133   5.459  -6.642  0.00  0.00    +0.088 C 
ATOM     18  C   UNL     1       3.996   6.048  -7.885  0.00  0.00    +0.010 C 
ATOM     19  C   UNL     1       3.425   6.702  -5.690  0.00  0.00    +0.163 C 
ATOM     20  O   UNL     1       3.361   7.798  -6.084  0.00  0.00    -0.295 OA
ATOM     21  C   UNL     1       4.688   6.192  -4.830  0.00  0.00    +0.156 C 
ATOM     22  C   UNL     1       5.764   7.183  -5.578  0.00  0.00    +0.020 C 
ATOM     23  C   UNL     1       4.442   7.224  -3.626  0.00  0.00    +0.324 C 
ATOM     24  O   UNL     1       4.225   8.412  -3.912  0.00  0.00    -0.250 OA
ATOM     25  C   UNL     1       1.936   4.009  -1.190  0.00  0.00    +0.049 C 
ATOM     26  O   UNL     1       3.296   5.655  -0.004  0.00  0.00    -0.436 OA
ATOM     27  O   UNL     1       3.554   6.606  -2.820  0.00  0.00    -0.448 OA
ENDROOT
BRANCH  14  28
ATOM     28  O   UNL     1      -0.345   4.742  -7.078  0.00  0.00    -0.353 OA
ATOM     29  C   UNL     1      -1.636   5.078  -6.762  0.00  0.00    +0.174 C 
ENDBRANCH  14  28
BRANCH   1  31
ATOM     30  C   UNL     1       3.483   4.003  -3.505  0.00  0.00    +0.004 C 
ATOM     31  C   UNL     1       3.250   4.308  -3.239  0.00  0.00    +0.047 C 
ENDBRANCH   1  31
BRANCH  16  32
ATOM     32  O   UNL     1       1.667   4.927  -8.262  0.00  0.00    -0.328 OA
BRANCH  32  33
ATOM     33  C   UNL     1       0.736   5.402  -9.366  0.00  0.00    +0.268 C 
ATOM     34  C   UNL     1       1.971   6.453  -9.930  0.00  0.00    +0.222 C 
ATOM     35  O   UNL     1       1.250   7.650  -9.399  0.00  0.00    -0.216 OA
ATOM     36  C   UNL     1       1.353   6.692 -11.507  0.00  0.00    +0.096 C 
ATOM     37  C   UNL     1      -0.079   6.000 -11.396  0.00  0.00    +0.048 C 
ATOM     38  C   UNL     1      -0.170   4.445 -10.979  0.00  0.00    +0.119 C 
ATOM     39  C   UNL     1       0.325   3.851 -12.442  0.00  0.00    +0.032 C 
ATOM     40  O   UNL     1       1.216   4.345 -10.361  0.00  0.00    -0.331 OA
BRANCH  36  41
ATOM     41  N   UNL     1       2.217   5.531 -12.139  0.00  0.00    -0.269 NA
ATOM     42  C   UNL     1       2.097   5.928 -13.553  0.00  0.00    +0.090 C 
ATOM     43  C   UNL     1       3.609   5.921 -11.877  0.00  0.00    +0.090 C 
ENDBRANCH  36  41
ENDBRANCH  32  33
ENDBRANCH  16  32
BRANCH   4  44
ATOM     44  C   UNL     1       0.573   7.804   0.569  0.00  0.00    +0.097 C 
BRANCH  44  45
ATOM     45  C   UNL     1       0.094   7.301   1.960  0.00  0.00    +0.024 C 
BRANCH  45  46
ATOM     46  C   UNL     1      -0.017   8.635   2.700  0.00  0.00    +0.026 C 
BRANCH  46  47
ATOM     47  C   UNL     1       1.084   8.475   3.750  0.00  0.00    +0.108 C 
BRANCH  47  48
ATOM     48  N   UNL     1       1.886   9.681   3.543  0.00  0.00    -0.308 N 
ATOM     49  C   UNL     1       3.216   9.740   3.274  0.00  0.00    +0.096 A 
ATOM     50  C   UNL     1       3.487  10.972   2.686  0.00  0.00    +0.102 A 
ATOM     51  N   UNL     1       2.501  11.740   3.212  0.00  0.00    -0.224 NA
ATOM     52  C   UNL     1       1.419  10.952   3.434  0.00  0.00    +0.179 A 
BRANCH  50  53
ATOM     53  C   UNL     1       4.285  11.238   1.476  0.00  0.00    +0.038 A 
ATOM     54  C   UNL     1       5.415  12.052   1.496  0.00  0.00    +0.100 A 
ATOM     55  N   UNL     1       5.489  13.187   0.756  0.00  0.00    -0.242 NA
ATOM     56  C   UNL     1       4.724  13.308  -0.357  0.00  0.00    +0.099 A 
ATOM     57  C   UNL     1       4.014  12.173  -0.733  0.00  0.00    +0.021 A 
ATOM     58  C   UNL     1       3.612  11.283   0.259  0.00  0.00    +0.005 A 
ENDBRANCH  50  53
ENDBRANCH  47  48
ENDBRANCH  46  47
ENDBRANCH  45  46
ENDBRANCH  44  45
ENDBRANCH   4  44
TORSDOF 11
ENDMDL
MODEL 2
REMARK VINA RESULT:      -5.2      1.801      2.312
REMARK  Name = 
REMARK  11 active torsions:
REMARK  status: ('A' for Active; 'I' for Inactive)
REMARK    1  A    between atoms: C_2  and  C_3
REMARK    2  A    between atoms: C_13  and  O_14
REMARK    3  A    between atoms: O_14  and  C_15
REMARK    4  A    between atoms: C_20  and  N_21
REMARK    5  A    between atoms: C_26  and  O_28
REMARK    6  A    between atoms: N_38  and  C_39
REMARK    7  A    between atoms: C_39  and  C_40
REMARK    8  A    between atoms: C_40  and  C_41
REMARK    9  A    between atoms: C_41  and  C_42
REMARK   10  A    between atoms: C_42  and  N_43
REMARK   11  A    between atoms: C_46  and  C_47
REMARK                            x       y       z     vdW  Elec       q    Type
REMARK                         _______ _______ _______ _____ _____    ______ ____
ROOT
ATOM      1  C   UNL     1       3.018   5.315  -1.606  0.00  0.00    +0.207 C 
ATOM      2  C   UNL     1       1.424   5.271  -1.218  0.00  0.00    +0.191 C 
ATOM      3  C   UNL     1       0.705   6.569  -1.844  0.00  0.00    +0.125 C 
ATOM      4  N   UNL     1      -0.061   6.798  -0.493  0.00  0.00    -0.244 N 
ATOM      5  C   UNL     1       1.117   6.901   0.325  0.00  0.00    +0.405 C 
ATOM      6  O   UNL     1       1.305   7.604   1.363  0.00  0.00    -0.226 OA
ATOM      7  C   UNL     1      -0.648   5.768  -2.521  0.00  0.00    +0.079 C 
ATOM      8  C   UNL     1      -1.494   7.139  -2.748  0.00  0.00    +0.010 C 
ATOM      9  C   UNL     1      -0.201   5.736  -4.036  0.00  0.00    +0.152 C 
ATOM     10  O   UNL     1      -0.687   4.846  -4.595  0.00  0.00    -0.296 OA
ATOM     11  C   UNL     1       0.629   6.922  -4.672  0.00  0.00    +0.060 C 
ATOM     12  C   UNL     1      -0.638   7.930  -4.981  0.00  0.00    +0.008 C 
ATOM     13  C   UNL     1       0.536   6.384  -6.198  0.00  0.00    +0.037 C 
ATOM     14  C   UNL     1       1.529   5.497  -6.662  0.00  0.00    +0.119 C 
ATOM     15  C   UNL     1       1.954   4.296  -5.918  0.00  0.00    +0.032 C 
ATOM     16  C   UNL     1       2.868   6.272  -7.218  0.00  0.00    +0.149 C 
ATOM     17  C   UNL     1       3.978   5.611  -6.094  0.00  0.00    +0.088 C 
ATOM     18  C   UNL     1       5.247   6.218  -6.903  0.00  0.00    +0.010 C 
ATOM     19  C   UNL     1       3.901   6.822  -5.061  0.00  0.00    +0.163 C 
ATOM     20  O   UNL     1       3.996   7.929  -5.414  0.00  0.00    -0.295 OA
ATOM     21  C   UNL     1       4.746   6.264  -3.808  0.00  0.00    +0.156 C 
ATOM     22  C   UNL     1       6.030   7.255  -4.067  0.00  0.00    +0.020 C 
ATOM     23  C   UNL     1       4.074   7.267  -2.751  0.00  0.00    +0.324 C 
ATOM     24  O   UNL     1       3.988   8.467  -3.058  0.00  0.00    -0.250 OA
ATOM     25  C   UNL     1       0.814   4.034  -1.536  0.00  0.00    +0.049 C 
ATOM     26  O   UNL     1       1.642   5.621   0.125  0.00  0.00    -0.436 OA
ATOM     27  O   UNL     1       2.944   6.644  -2.356  0.00  0.00    -0.448 OA
ENDROOT
BRANCH  14  28
ATOM     28  O   UNL     1       0.911   4.973  -7.823  0.00  0.00    -0.353 OA
ATOM     29  C   UNL     1      -0.389   5.363  -8.026  0.00  0.00    +0.174 C 
ENDBRANCH  14  28
BRANCH   1  31
ATOM     30  C   UNL     1       3.119   4.070  -3.109  0.00  0.00    +0.004 C 
ATOM     31  C   UNL     1       2.802   4.365  -2.934  0.00  0.00    +0.047 C 
ENDBRANCH   1  31
BRANCH  16  32
ATOM     32  O   UNL     1       3.221   5.153  -8.161  0.00  0.00    -0.328 OA
BRANCH  32  33
ATOM     33  C   UNL     1       2.964   5.751  -9.535  0.00  0.00    +0.268 C 
ATOM     34  C   UNL     1       4.205   6.900  -9.247  0.00  0.00    +0.222 C 
ATOM     35  O   UNL     1       3.204   7.994  -9.060  0.00  0.00    -0.216 OA
ATOM     36  C   UNL     1       4.482   7.337 -10.878  0.00  0.00    +0.096 C 
ATOM     37  C   UNL     1       3.275   6.600 -11.614  0.00  0.00    +0.048 C 
ATOM     38  C   UNL     1       3.127   5.000 -11.471  0.00  0.00    +0.119 C 
ATOM     39  C   UNL     1       4.367   4.625 -12.501  0.00  0.00    +0.032 C 
ATOM     40  O   UNL     1       3.990   4.853 -10.227  0.00  0.00    -0.331 OA
BRANCH  36  41
ATOM     41  N   UNL     1       5.654   6.296 -11.072  0.00  0.00    -0.269 NA
ATOM     42  C   UNL     1       6.162   6.792 -12.363  0.00  0.00    +0.090 C 
ATOM     43  C   UNL     1       6.719   6.768 -10.176  0.00  0.00    +0.090 C 
ENDBRANCH  36  41
ENDBRANCH  32  33
ENDBRANCH  16  32
BRANCH   4  44
ATOM     44  C   UNL     1      -1.080   7.805  -0.292  0.00  0.00    +0.097 C 
BRANCH  44  45
ATOM     45  C   UNL     1      -2.126   7.215   0.697  0.00  0.00    +0.024 C 
BRANCH  45  46
ATOM     46  C   UNL     1      -2.380   8.442   1.575  0.00  0.00    +0.026 C 
BRANCH  46  47
ATOM     47  C   UNL     1      -1.728   7.999   2.886  0.00  0.00    +0.108 C 
BRANCH  47  48
ATOM     48  N   UNL     1      -0.886   9.149   3.217  0.00  0.00    -0.308 N 
ATOM     49  C   UNL     1       0.365   9.118   3.743  0.00  0.00    +0.096 A 
ATOM     50  C   UNL     1       0.985  10.333   3.462  0.00  0.00    +0.102 A 
ATOM     51  N   UNL     1      -0.085  11.164   3.377  0.00  0.00    -0.224 NA
ATOM     52  C   UNL     1      -1.144  10.449   2.920  0.00  0.00    +0.179 A 
BRANCH  50  53
ATOM     53  C   UNL     1       2.338  10.551   2.921  0.00  0.00    +0.038 A 
ATOM     54  C   UNL     1       2.554  10.990   1.618  0.00  0.00    +0.100 A 
ATOM     55  N   UNL     1       3.244  10.243   0.718  0.00  0.00    -0.242 NA
ATOM     56  C   UNL     1       4.135   9.323   1.161  0.00  0.00    +0.099 A 
ATOM     57  C   UNL     1       4.378   9.322   2.531  0.00  0.00    +0.021 A 
ATOM     58  C   UNL     1       3.357   9.725   3.385  0.00  0.00    +0.005 A 
ENDBRANCH  50  53
ENDBRANCH  47  48
ENDBRANCH  46  47
ENDBRANCH  45  46
ENDBRANCH  44  45
ENDBRANCH   4  44
TORSDOF 11
ENDMDL
MODEL 3
REMARK VINA RESULT:      -4.9      2.427     10.901
REMARK  Name = 
REMARK  11 active torsions:
REMARK  status: ('A' for Active; 'I' for Inactive)
REMARK    1  A    between atoms: C_2  and  C_3
REMARK    2  A    between atoms: C_13  and  O_14
REMARK    3  A    between atoms: O_14  and  C_15
REMARK    4  A    between atoms: C_20  and  N_21
REMARK    5  A    between atoms: C_26  and  O_28
REMARK    6  A    between atoms: N_38  and  C_39
REMARK    7  A    between atoms: C_39  and  C_40
REMARK    8  A    between atoms: C_40  and  C_41
REMARK    9  A    between atoms: C_41  and  C_42
REMARK   10  A    between atoms: C_42  and  N_43
REMARK   11  A    between atoms: C_46  and  C_47
REMARK                            x       y       z     vdW  Elec       q    Type
REMARK                         _______ _______ _______ _____ _____    ______ ____
ROOT
ATOM      1  C   UNL     1       0.446   3.757  -7.655  0.00  0.00    +0.207 C 
ATOM      2  C   UNL     1       1.528   4.075  -8.847  0.00  0.00    +0.191 C 
ATOM      3  C   UNL     1       1.604   5.669  -9.062  0.00  0.00    +0.125 C 
ATOM      4  N   UNL     1       1.553   5.465 -10.617  0.00  0.00    -0.244 N 
ATOM      5  C   UNL     1       0.302   4.754 -10.628  0.00  0.00    +0.405 C 
ATOM      6  O   UNL     1      -0.607   4.759 -11.511  0.00  0.00    -0.226 OA
ATOM      7  C   UNL     1       3.310   5.808  -9.095  0.00  0.00    +0.079 C 
ATOM      8  C   UNL     1       3.293   7.312  -9.715  0.00  0.00    +0.010 C 
ATOM      9  C   UNL     1       3.556   6.359  -7.636  0.00  0.00    +0.152 C 
ATOM     10  O   UNL     1       4.611   6.074  -7.255  0.00  0.00    -0.296 OA
ATOM     11  C   UNL     1       2.527   7.342  -6.945  0.00  0.00    +0.060 C 
ATOM     12  C   UNL     1       3.055   8.736  -7.651  0.00  0.00    +0.008 C 
ATOM     13  C   UNL     1       3.459   7.674  -5.661  0.00  0.00    +0.037 C 
ATOM     14  C   UNL     1       3.360   6.843  -4.526  0.00  0.00    +0.119 C 
ATOM     15  C   UNL     1       3.410   5.370  -4.593  0.00  0.00    +0.032 C 
ATOM     16  C   UNL     1       2.140   7.282  -3.516  0.00  0.00    +0.149 C 
ATOM     17  C   UNL     1       1.239   5.831  -3.628  0.00  0.00    +0.088 C 
ATOM     18  C   UNL     1       0.257   6.280  -2.416  0.00  0.00    +0.010 C 
ATOM     19  C   UNL     1       0.259   6.338  -4.775  0.00  0.00    +0.163 C 
ATOM     20  O   UNL     1      -0.279   7.371  -4.704  0.00  0.00    -0.295 OA
ATOM     21  C   UNL     1      -0.546   4.997  -5.162  0.00  0.00    +0.156 C 
ATOM     22  C   UNL     1      -1.954   5.487  -4.470  0.00  0.00    +0.020 C 
ATOM     23  C   UNL     1      -0.976   5.527  -6.615  0.00  0.00    +0.324 C 
ATOM     24  O   UNL     1      -1.444   6.674  -6.704  0.00  0.00    -0.250 OA
ATOM     25  C   UNL     1       2.774   3.436  -8.645  0.00  0.00    +0.049 C 
ATOM     26  O   UNL     1       0.672   3.637  -9.872  0.00  0.00    -0.436 OA
ATOM     27  O   UNL     1       0.065   5.217  -7.416  0.00  0.00    -0.448 OA
ENDROOT
BRANCH  14  28
ATOM     28  O   UNL     1       4.544   7.189  -3.829  0.00  0.00    -0.353 OA
ATOM     29  C   UNL     1       5.394   8.036  -4.493  0.00  0.00    +0.174 C 
ENDBRANCH  14  28
BRANCH   1  31
ATOM     30  C   UNL     1       1.866   3.323  -6.385  0.00  0.00    +0.004 C 
ATOM     31  C   UNL     1       1.618   3.701  -6.498  0.00  0.00    +0.047 C 
ENDBRANCH   1  31
BRANCH  16  32
ATOM     32  O   UNL     1       2.830   6.713  -2.306  0.00  0.00    -0.328 OA
BRANCH  32  33
ATOM     33  C   UNL     1       2.379   7.624  -1.175  0.00  0.00    +0.268 C 
ATOM     34  C   UNL     1       3.147   6.579  -0.051  0.00  0.00    +0.222 C 
ATOM     35  O   UNL     1       1.829   6.056   0.423  0.00  0.00    -0.216 OA
ATOM     36  C   UNL     1       3.251   7.690   1.246  0.00  0.00    +0.096 C 
ATOM     37  C   UNL     1       2.372   8.902   0.697  0.00  0.00    +0.048 C 
ATOM     38  C   UNL     1       2.787   9.608  -0.692  0.00  0.00    +0.119 C 
ATOM     39  C   UNL     1       4.078  10.442  -0.077  0.00  0.00    +0.032 C 
ATOM     40  O   UNL     1       3.650   8.472  -1.218  0.00  0.00    -0.331 OA
BRANCH  36  41
ATOM     41  N   UNL     1       4.710   8.162   0.868  0.00  0.00    -0.269 NA
ATOM     42  C   UNL     1       5.067   8.788   2.152  0.00  0.00    +0.090 C 
ATOM     43  C   UNL     1       5.523   6.940   0.940  0.00  0.00    +0.090 C 
ENDBRANCH  36  41
ENDBRANCH  32  33
ENDBRANCH  16  32
BRANCH   4  44
ATOM     44  C   UNL     1       1.704   6.527 -11.587  0.00  0.00    +0.097 C 
BRANCH  44  45
ATOM     45  C   UNL     1       1.796   5.864 -12.991  0.00  0.00    +0.024 C 
BRANCH  45  46
ATOM     46  C   UNL     1       3.151   5.167 -12.866  0.00  0.00    +0.026 C 
BRANCH  46  47
ATOM     47  C   UNL     1       3.686   5.319 -14.291  0.00  0.00    +0.108 C 
BRANCH  47  48
ATOM     48  N   UNL     1       4.885   6.133 -14.086  0.00  0.00    -0.308 N 
ATOM     49  C   UNL     1       5.213   6.834 -12.970  0.00  0.00    +0.096 A 
ATOM     50  C   UNL     1       6.587   7.058 -12.986  0.00  0.00    +0.102 A 
ATOM     51  N   UNL     1       6.842   7.051 -14.318  0.00  0.00    -0.224 NA
ATOM     52  C   UNL     1       5.956   6.216 -14.917  0.00  0.00    +0.179 A 
BRANCH  50  53
ATOM     53  C   UNL     1       7.546   6.857 -11.885  0.00  0.00    +0.038 A 
ATOM     54  C   UNL     1       8.451   5.799 -11.873  0.00  0.00    +0.100 A 
ATOM     55  N   UNL     1       8.439   4.861 -10.893  0.00  0.00    -0.242 NA
ATOM     56  C   UNL     1       7.913   5.169  -9.682  0.00  0.00    +0.099 A 
ATOM     57  C   UNL     1       7.550   6.500  -9.498  0.00  0.00    +0.021 A 
ATOM     58  C   UNL     1       7.146   7.236 -10.607  0.00  0.00    +0.005 A 
ENDBRANCH  50  53
ENDBRANCH  47  48
ENDBRANCH  46  47
ENDBRANCH  45  46
ENDBRANCH  44  45
ENDBRANCH   4  44
TORSDOF 11
ENDMDL
MODEL 4
REMARK VINA RESULT:      -4.6      2.724     10.629
REMARK  Name = 
REMARK  11 active torsions:
REMARK  status: ('A' for Active; 'I' for Inactive)
REMARK    1  A    between atoms: C_2  and  C_3
REMARK    2  A    between atoms: C_13  and  O_14
REMARK    3  A    between atoms: O_14  and  C_15
REMARK    4  A    between atoms: C_20  and  N_21
REMARK    5  A    between atoms: C_26  and  O_28
REMARK    6  A    between atoms: N_38  and  C_39
REMARK    7  A    between atoms: C_39  and  C_40
REMARK    8  A    between atoms: C_40  and  C_41
REMARK    9  A    between atoms: C_41  and  C_42
REMARK   10  A    between atoms: C_42  and  N_43
REMARK   11  A    between atoms: C_46  and  C_47
REMARK                            x       y       z     vdW  Elec       q    Type
REMARK                         _______ _______ _______ _____ _____    ______ ____
ROOT
ATOM      1  C   UNL     1       4.188   6.359  -6.116  0.00  0.00    +0.207 C 
ATOM      2  C   UNL     1       3.045   6.473  -7.288  0.00  0.00    +0.191 C 
ATOM      3  C   UNL     1       1.945   5.321  -7.050  0.00  0.00    +0.125 C 
ATOM      4  N   UNL     1       1.965   4.981  -8.583  0.00  0.00    -0.244 N 
ATOM      5  C   UNL     1       3.373   4.690  -8.647  0.00  0.00    +0.405 C 
ATOM      6  O   UNL     1       3.977   3.850  -9.379  0.00  0.00    -0.226 OA
ATOM      7  C   UNL     1       0.553   6.298  -7.244  0.00  0.00    +0.079 C 
ATOM      8  C   UNL     1      -0.457   5.033  -7.405  0.00  0.00    +0.010 C 
ATOM      9  C   UNL     1       0.153   6.486  -5.728  0.00  0.00    +0.152 C 
ATOM     10  O   UNL     1      -0.433   7.473  -5.570  0.00  0.00    -0.296 OA
ATOM     11  C   UNL     1       0.374   5.331  -4.671  0.00  0.00    +0.060 C 
ATOM     12  C   UNL     1      -0.989   4.466  -5.009  0.00  0.00    +0.008 C 
ATOM     13  C   UNL     1      -0.425   6.061  -3.464  0.00  0.00    +0.037 C 
ATOM     14  C   UNL     1       0.291   6.923  -2.607  0.00  0.00    +0.119 C 
ATOM     15  C   UNL     1       1.190   7.986  -3.095  0.00  0.00    +0.032 C 
ATOM     16  C   UNL     1       1.037   6.126  -1.378  0.00  0.00    +0.149 C 
ATOM     17  C   UNL     1       2.642   6.556  -1.789  0.00  0.00    +0.088 C 
ATOM     18  C   UNL     1       3.220   5.963  -0.393  0.00  0.00    +0.010 C 
ATOM     19  C   UNL     1       2.954   5.236  -2.622  0.00  0.00    +0.163 C 
ATOM     20  O   UNL     1       2.710   4.177  -2.198  0.00  0.00    -0.295 OA
ATOM     21  C   UNL     1       4.389   5.568  -3.275  0.00  0.00    +0.156 C 
ATOM     22  C   UNL     1       5.215   4.524  -2.312  0.00  0.00    +0.020 C 
ATOM     23  C   UNL     1       4.238   4.493  -4.458  0.00  0.00    +0.324 C 
ATOM     24  O   UNL     1       3.852   3.351  -4.162  0.00  0.00    -0.250 OA
ATOM     25  C   UNL     1       2.523   7.782  -7.424  0.00  0.00    +0.049 C 
ATOM     26  O   UNL     1       3.879   5.943  -8.287  0.00  0.00    -0.436 OA
ATOM     27  O   UNL     1       3.566   5.144  -5.430  0.00  0.00    -0.448 OA
ENDROOT
BRANCH  14  28
ATOM     28  O   UNL     1      -0.765   7.632  -1.986  0.00  0.00    -0.353 OA
ATOM     29  C   UNL     1      -2.012   7.417  -2.514  0.00  0.00    +0.174 C 
ENDBRANCH  14  28
BRANCH   1  31
ATOM     30  C   UNL     1       3.658   7.810  -4.918  0.00  0.00    +0.004 C 
ATOM     31  C   UNL     1       3.441   7.482  -5.169  0.00  0.00    +0.047 C 
ENDBRANCH   1  31
BRANCH  16  32
ATOM     32  O   UNL     1       0.992   7.325  -0.469  0.00  0.00    -0.328 OA
BRANCH  32  33
ATOM     33  C   UNL     1       0.321   6.794   0.789  0.00  0.00    +0.268 C 
ATOM     34  C   UNL     1       0.996   8.100   1.677  0.00  0.00    +0.222 C 
ATOM     35  O   UNL     1       1.981   7.192   2.339  0.00  0.00    -0.216 OA
ATOM     36  C   UNL     1      -0.072   8.031   3.012  0.00  0.00    +0.096 C 
ATOM     37  C   UNL     1      -0.858   6.674   2.721  0.00  0.00    +0.048 C 
ATOM     38  C   UNL     1      -1.669   6.517   1.336  0.00  0.00    +0.119 C 
ATOM     39  C   UNL     1      -2.931   7.496   1.769  0.00  0.00    +0.032 C 
ATOM     40  O   UNL     1      -0.947   7.623   0.581  0.00  0.00    -0.331 OA
BRANCH  36  41
ATOM     41  N   UNL     1      -1.064   9.105   2.414  0.00  0.00    -0.269 NA
ATOM     42  C   UNL     1      -1.786   9.436   3.654  0.00  0.00    +0.090 C 
ATOM     43  C   UNL     1      -0.246  10.316   2.259  0.00  0.00    +0.090 C 
ENDBRANCH  36  41
ENDBRANCH  32  33
ENDBRANCH  16  32
BRANCH   4  44
ATOM     44  C   UNL     1       1.077   4.036  -9.223  0.00  0.00    +0.097 C 
BRANCH  44  45
ATOM     45  C   UNL     1       0.237   4.823 -10.268  0.00  0.00    +0.024 C 
BRANCH  45  46
ATOM     46  C   UNL     1       1.329   5.709 -10.872  0.00  0.00    +0.026 C 
BRANCH  46  47
ATOM     47  C   UNL     1       1.241   5.311 -12.346  0.00  0.00    +0.108 C 
BRANCH  47  48
ATOM     48  N   UNL     1       2.577   5.651 -12.838  0.00  0.00    -0.308 N 
ATOM     49  C   UNL     1       3.589   6.210 -12.126  0.00  0.00    +0.096 A 
ATOM     50  C   UNL     1       4.786   5.932 -12.781  0.00  0.00    +0.102 A 
ATOM     51  N   UNL     1       4.365   5.810 -14.065  0.00  0.00    -0.224 NA
ATOM     52  C   UNL     1       3.094   5.333 -14.053  0.00  0.00    +0.179 A 
BRANCH  50  53
ATOM     53  C   UNL     1       6.038   5.425 -12.193  0.00  0.00    +0.038 A 
ATOM     54  C   UNL     1       6.396   5.681 -10.872  0.00  0.00    +0.100 A 
ATOM     55  N   UNL     1       7.527   6.361 -10.557  0.00  0.00    -0.242 NA
ATOM     56  C   UNL     1       8.559   6.379 -11.436  0.00  0.00    +0.099 A 
ATOM     57  C   UNL     1       8.422   5.561 -12.552  0.00  0.00    +0.021 A 
ATOM     58  C   UNL     1       7.141   5.305 -13.033  0.00  0.00    +0.005 A 
ENDBRANCH  50  53
ENDBRANCH  47  48
ENDBRANCH  46  47
ENDBRANCH  45  46
ENDBRANCH  44  45
ENDBRANCH   4  44
TORSDOF 11
ENDMDL
MODEL 5
REMARK VINA RESULT:      -4.6      2.148     11.413
REMARK  Name = 
REMARK  11 active torsions:
REMARK  status: ('A' for Active; 'I' for Inactive)
REMARK    1  A    between atoms: C_2  and  C_3
REMARK    2  A    between atoms: C_13  and  O_14
REMARK    3  A    between atoms: O_14  and  C_15
REMARK    4  A    between atoms: C_20  and  N_21
REMARK    5  A    between atoms: C_26  and  O_28
REMARK    6  A    between atoms: N_38  and  C_39
REMARK    7  A    between atoms: C_39  and  C_40
REMARK    8  A    between atoms: C_40  and  C_41
REMARK    9  A    between atoms: C_41  and  C_42
REMARK   10  A    between atoms: C_42  and  N_43
REMARK   11  A    between atoms: C_46  and  C_47
REMARK                            x       y       z     vdW  Elec       q    Type
REMARK                         _______ _______ _______ _____ _____    ______ ____
ROOT
ATOM      1  C   UNL     1      -0.459   4.998  -5.692  0.00  0.00    +0.207 C 
ATOM      2  C   UNL     1       1.050   4.843  -6.317  0.00  0.00    +0.191 C 
ATOM      3  C   UNL     1       1.829   6.241  -6.137  0.00  0.00    +0.125 C 
ATOM      4  N   UNL     1       2.357   6.139  -7.612  0.00  0.00    -0.244 N 
ATOM      5  C   UNL     1       1.058   6.064  -8.226  0.00  0.00    +0.405 C 
ATOM      6  O   UNL     1       0.685   6.509  -9.352  0.00  0.00    -0.226 OA
ATOM      7  C   UNL     1       3.295   5.601  -5.526  0.00  0.00    +0.079 C 
ATOM      8  C   UNL     1       4.132   6.976  -5.766  0.00  0.00    +0.010 C 
ATOM      9  C   UNL     1       3.104   5.929  -3.993  0.00  0.00    +0.152 C 
ATOM     10  O   UNL     1       3.697   5.187  -3.331  0.00  0.00    -0.296 OA
ATOM     11  C   UNL     1       2.359   7.242  -3.521  0.00  0.00    +0.060 C 
ATOM     12  C   UNL     1       3.634   8.277  -3.668  0.00  0.00    +0.008 C 
ATOM     13  C   UNL     1       2.715   7.072  -1.949  0.00  0.00    +0.037 C 
ATOM     14  C   UNL     1       1.834   6.332  -1.134  0.00  0.00    +0.119 C 
ATOM     15  C   UNL     1       1.323   4.996  -1.499  0.00  0.00    +0.032 C 
ATOM     16  C   UNL     1       0.585   7.233  -0.560  0.00  0.00    +0.149 C 
ATOM     17  C   UNL     1      -0.677   6.344  -1.300  0.00  0.00    +0.088 C 
ATOM     18  C   UNL     1      -1.811   7.140  -0.455  0.00  0.00    +0.010 C 
ATOM     19  C   UNL     1      -0.801   7.280  -2.583  0.00  0.00    +0.163 C 
ATOM     20  O   UNL     1      -0.865   8.440  -2.486  0.00  0.00    -0.295 OA
ATOM     21  C   UNL     1      -1.826   6.457  -3.515  0.00  0.00    +0.156 C 
ATOM     22  C   UNL     1      -3.075   7.499  -3.285  0.00  0.00    +0.020 C 
ATOM     23  C   UNL     1      -1.362   7.177  -4.873  0.00  0.00    +0.324 C 
ATOM     24  O   UNL     1      -1.257   8.414  -4.871  0.00  0.00    -0.250 OA
ATOM     25  C   UNL     1       1.735   3.706  -5.826  0.00  0.00    +0.049 C 
ATOM     26  O   UNL     1       0.606   4.873  -7.650  0.00  0.00    -0.436 OA
ATOM     27  O   UNL     1      -0.296   6.464  -5.294  0.00  0.00    -0.448 OA
ENDROOT
BRANCH  14  28
ATOM     28  O   UNL     1       2.648   6.084  -0.002  0.00  0.00    -0.353 OA
ATOM     29  C   UNL     1       3.955   6.483  -0.117  0.00  0.00    +0.174 C 
ENDBRANCH  14  28
BRANCH   1  31
ATOM     30  C   UNL     1      -0.096   4.573  -3.820  0.00  0.00    +0.004 C 
ATOM     31  C   UNL     1      -0.004   4.380  -4.234  0.00  0.00    +0.047 C 
ENDBRANCH   1  31
BRANCH  16  32
ATOM     32  O   UNL     1       0.421   6.369   0.662  0.00  0.00    -0.328 OA
BRANCH  32  33
ATOM     33  C   UNL     1       0.006   7.356   1.743  0.00  0.00    +0.268 C 
ATOM     34  C   UNL     1       1.346   6.852   2.691  0.00  0.00    +0.222 C 
ATOM     35  O   UNL     1       0.452   6.109   3.631  0.00  0.00    -0.216 OA
ATOM     36  C   UNL     1       1.412   8.217   3.720  0.00  0.00    +0.096 C 
ATOM     37  C   UNL     1       0.067   8.978   3.325  0.00  0.00    +0.048 C 
ATOM     38  C   UNL     1      -0.158   9.431   1.794  0.00  0.00    +0.119 C 
ATOM     39  C   UNL     1       0.895  10.707   1.841  0.00  0.00    +0.032 C 
ATOM     40  O   UNL     1       0.863   8.488   1.178  0.00  0.00    -0.331 OA
BRANCH  36  41
ATOM     41  N   UNL     1       2.476   8.972   2.831  0.00  0.00    -0.269 NA
ATOM     42  C   UNL     1       2.760  10.088   3.750  0.00  0.00    +0.090 C 
ATOM     43  C   UNL     1       3.709   8.189   2.986  0.00  0.00    +0.090 C 
ENDBRANCH  36  41
ENDBRANCH  32  33
ENDBRANCH  16  32
BRANCH   4  44
ATOM     44  C   UNL     1       3.303   7.057  -8.207  0.00  0.00    +0.097 C 
BRANCH  44  45
ATOM     45  C   UNL     1       4.186   6.239  -9.193  0.00  0.00    +0.024 C 
BRANCH  45  46
ATOM     46  C   UNL     1       3.788   6.899 -10.514  0.00  0.00    +0.026 C 
BRANCH  46  47
ATOM     47  C   UNL     1       4.596   6.064 -11.509  0.00  0.00    +0.108 C 
BRANCH  47  48
ATOM     48  N   UNL     1       3.569   5.642 -12.463  0.00  0.00    -0.308 N 
ATOM     49  C   UNL     1       2.238   5.903 -12.397  0.00  0.00    +0.096 A 
ATOM     50  C   UNL     1       1.704   5.765 -13.675  0.00  0.00    +0.102 A 
ATOM     51  N   UNL     1       2.558   4.867 -14.225  0.00  0.00    -0.224 NA
ATOM     52  C   UNL     1       3.781   5.042 -13.663  0.00  0.00    +0.179 A 
BRANCH  50  53
ATOM     53  C   UNL     1       0.796   6.690 -14.377  0.00  0.00    +0.038 A 
ATOM     54  C   UNL     1       0.260   6.397 -15.628  0.00  0.00    +0.100 A 
ATOM     55  N   UNL     1       0.508   7.176 -16.711  0.00  0.00    -0.242 NA
ATOM     56  C   UNL     1       0.849   8.476 -16.532  0.00  0.00    +0.099 A 
ATOM     57  C   UNL     1       0.776   8.949 -15.226  0.00  0.00    +0.021 A 
ATOM     58  C   UNL     1       0.993   8.054 -14.184  0.00  0.00    +0.005 A 
ENDBRANCH  50  53
ENDBRANCH  47  48
ENDBRANCH  46  47
ENDBRANCH  45  46
ENDBRANCH  44  45
ENDBRANCH   4  44
TORSDOF 11
ENDMDL
MODEL 6
REMARK VINA RESULT:      -4.4      2.711     11.608
REMARK  Name = 
REMARK  11 active torsions:
REMARK  status: ('A' for Active; 'I' for Inactive)
REMARK    1  A    between atoms: C_2  and  C_3
REMARK    2  A    between atoms: C_13  and  O_14
REMARK    3  A    between atoms: O_14  and  C_15
REMARK    4  A    between atoms: C_20  and  N_21
REMARK    5  A    between atoms: C_26  and  O_28
REMARK    6  A    between atoms: N_38  and  C_39
REMARK    7  A    between atoms: C_39  and  C_40
REMARK    8  A    between atoms: C_40  and  C_41
REMARK    9  A    between atoms: C_41  and  C_42
REMARK   10  A    between atoms: C_42  and  N_43
REMARK   11  A    between atoms: C_46  and  C_47
REMARK                            x       y       z     vdW  Elec       q    Type
REMARK                         _______ _______ _______ _____ _____    ______ ____
ROOT
ATOM      1  C   UNL     1      -0.413   5.035  -5.997  0.00  0.00    +0.207 C 
ATOM      2  C   UNL     1       1.121   4.831  -6.544  0.00  0.00    +0.191 C 
ATOM      3  C   UNL     1       1.937   6.201  -6.315  0.00  0.00    +0.125 C 
ATOM      4  N   UNL     1       2.537   6.089  -7.761  0.00  0.00    -0.244 N 
ATOM      5  C   UNL     1       1.269   6.063  -8.441  0.00  0.00    +0.405 C 
ATOM      6  O   UNL     1       0.970   6.527  -9.582  0.00  0.00    -0.226 OA
ATOM      7  C   UNL     1       3.346   5.508  -5.634  0.00  0.00    +0.079 C 
ATOM      8  C   UNL     1       4.241   6.854  -5.820  0.00  0.00    +0.010 C 
ATOM      9  C   UNL     1       3.087   5.834  -4.110  0.00  0.00    +0.152 C 
ATOM     10  O   UNL     1       3.620   5.068  -3.424  0.00  0.00    -0.296 OA
ATOM     11  C   UNL     1       2.364   7.169  -3.667  0.00  0.00    +0.060 C 
ATOM     12  C   UNL     1       3.680   8.159  -3.741  0.00  0.00    +0.008 C 
ATOM     13  C   UNL     1       2.633   6.978  -2.080  0.00  0.00    +0.037 C 
ATOM     14  C   UNL     1       1.686   6.264  -1.317  0.00  0.00    +0.119 C 
ATOM     15  C   UNL     1       1.150   4.949  -1.718  0.00  0.00    +0.032 C 
ATOM     16  C   UNL     1       0.441   7.205  -0.801  0.00  0.00    +0.149 C 
ATOM     17  C   UNL     1      -0.811   6.364  -1.612  0.00  0.00    +0.088 C 
ATOM     18  C   UNL     1      -1.959   7.194  -0.820  0.00  0.00    +0.010 C 
ATOM     19  C   UNL     1      -0.836   7.310  -2.893  0.00  0.00    +0.163 C 
ATOM     20  O   UNL     1      -0.866   8.472  -2.791  0.00  0.00    -0.295 OA
ATOM     21  C   UNL     1      -1.839   6.529  -3.882  0.00  0.00    +0.156 C 
ATOM     22  C   UNL     1      -3.063   7.612  -3.709  0.00  0.00    +0.020 C 
ATOM     23  C   UNL     1      -1.282   7.240  -5.209  0.00  0.00    +0.324 C 
ATOM     24  O   UNL     1      -1.135   8.472  -5.193  0.00  0.00    -0.250 OA
ATOM     25  C   UNL     1       1.740   3.669  -6.028  0.00  0.00    +0.049 C 
ATOM     26  O   UNL     1       0.747   4.884  -7.898  0.00  0.00    -0.436 OA
ATOM     27  O   UNL     1      -0.221   6.492  -5.580  0.00  0.00    -0.448 OA
ENDROOT
BRANCH  14  28
ATOM     28  O   UNL     1       2.431   5.982  -0.147  0.00  0.00    -0.353 OA
ATOM     29  C   UNL     1       3.755   6.339  -0.190  0.00  0.00    +0.174 C 
ENDBRANCH  14  28
BRANCH   1  31
ATOM     30  C   UNL     1      -0.369   4.244  -4.211  0.00  0.00    +0.004 C 
ATOM     31  C   UNL     1      -0.055   4.394  -4.522  0.00  0.00    +0.047 C 
ENDBRANCH   1  31
BRANCH  16  32
ATOM     32  O   UNL     1       0.184   6.340   0.404  0.00  0.00    -0.328 OA
BRANCH  32  33
ATOM     33  C   UNL     1      -0.252   7.334   1.470  0.00  0.00    +0.268 C 
ATOM     34  C   UNL     1       0.962   6.717   2.515  0.00  0.00    +0.222 C 
ATOM     35  O   UNL     1      -0.059   6.024   3.357  0.00  0.00    -0.216 OA
ATOM     36  C   UNL     1       1.036   8.055   3.579  0.00  0.00    +0.096 C 
ATOM     37  C   UNL     1      -0.212   8.919   3.090  0.00  0.00    +0.048 C 
ATOM     38  C   UNL     1      -0.272   9.415   1.557  0.00  0.00    +0.119 C 
ATOM     39  C   UNL     1       0.860  10.610   1.724  0.00  0.00    +0.032 C 
ATOM     40  O   UNL     1       0.730   8.411   1.006  0.00  0.00    -0.331 OA
BRANCH  36  41
ATOM     41  N   UNL     1       2.224   8.747   2.802  0.00  0.00    -0.269 NA
ATOM     42  C   UNL     1       2.468   9.856   3.740  0.00  0.00    +0.090 C 
ATOM     43  C   UNL     1       3.392   7.904   3.088  0.00  0.00    +0.090 C 
ENDBRANCH  36  41
ENDBRANCH  32  33
ENDBRANCH  16  32
BRANCH   4  44
ATOM     44  C   UNL     1       3.543   6.977  -8.300  0.00  0.00    +0.097 C 
BRANCH  44  45
ATOM     45  C   UNL     1       4.456   6.132  -9.233  0.00  0.00    +0.024 C 
BRANCH  45  46
ATOM     46  C   UNL     1       4.544   7.071 -10.437  0.00  0.00    +0.026 C 
BRANCH  46  47
ATOM     47  C   UNL     1       4.064   6.149 -11.559  0.00  0.00    +0.108 C 
BRANCH  47  48
ATOM     48  N   UNL     1       5.190   6.188 -12.494  0.00  0.00    -0.308 N 
ATOM     49  C   UNL     1       5.182   5.801 -13.796  0.00  0.00    +0.096 A 
ATOM     50  C   UNL     1       6.249   6.423 -14.440  0.00  0.00    +0.102 A 
ATOM     51  N   UNL     1       7.119   6.590 -13.413  0.00  0.00    -0.224 NA
ATOM     52  C   UNL     1       6.404   6.754 -12.271  0.00  0.00    +0.179 A 
BRANCH  50  53
ATOM     53  C   UNL     1       6.230   7.138 -15.729  0.00  0.00    +0.038 A 
ATOM     54  C   UNL     1       5.044   7.528 -16.344  0.00  0.00    +0.100 A 
ATOM     55  N   UNL     1       4.690   7.066 -17.570  0.00  0.00    -0.242 NA
ATOM     56  C   UNL     1       5.652   6.630 -18.421  0.00  0.00    +0.099 A 
ATOM     57  C   UNL     1       6.965   6.830 -18.007  0.00  0.00    +0.021 A 
ATOM     58  C   UNL     1       7.236   6.840 -16.643  0.00  0.00    +0.005 A 
ENDBRANCH  50  53
ENDBRANCH  47  48
ENDBRANCH  46  47
ENDBRANCH  45  46
ENDBRANCH  44  45
ENDBRANCH   4  44
TORSDOF 11
ENDMDL
MODEL 7
REMARK VINA RESULT:      -4.3      1.492      2.075
REMARK  Name = 
REMARK  11 active torsions:
REMARK  status: ('A' for Active; 'I' for Inactive)
REMARK    1  A    between atoms: C_2  and  C_3
REMARK    2  A    between atoms: C_13  and  O_14
REMARK    3  A    between atoms: O_14  and  C_15
REMARK    4  A    between atoms: C_20  and  N_21
REMARK    5  A    between atoms: C_26  and  O_28
REMARK    6  A    between atoms: N_38  and  C_39
REMARK    7  A    between atoms: C_39  and  C_40
REMARK    8  A    between atoms: C_40  and  C_41
REMARK    9  A    between atoms: C_41  and  C_42
REMARK   10  A    between atoms: C_42  and  N_43
REMARK   11  A    between atoms: C_46  and  C_47
REMARK                            x       y       z     vdW  Elec       q    Type
REMARK                         _______ _______ _______ _____ _____    ______ ____
ROOT
ATOM      1  C   UNL     1       3.992   5.242  -2.129  0.00  0.00    +0.207 C 
ATOM      2  C   UNL     1       2.681   5.109  -1.150  0.00  0.00    +0.191 C 
ATOM      3  C   UNL     1       1.734   6.391  -1.379  0.00  0.00    +0.125 C 
ATOM      4  N   UNL     1       1.555   6.540   0.173  0.00  0.00    -0.244 N 
ATOM      5  C   UNL     1       2.957   6.671   0.468  0.00  0.00    +0.405 C 
ATOM      6  O   UNL     1       3.517   7.347   1.382  0.00  0.00    -0.226 OA
ATOM      7  C   UNL     1       0.249   5.551  -1.511  0.00  0.00    +0.079 C 
ATOM      8  C   UNL     1      -0.659   6.887  -1.320  0.00  0.00    +0.010 C 
ATOM      9  C   UNL     1       0.064   5.590  -3.079  0.00  0.00    +0.152 C 
ATOM     10  O   UNL     1      -0.575   4.697  -3.446  0.00  0.00    -0.296 OA
ATOM     11  C   UNL     1       0.541   6.835  -3.931  0.00  0.00    +0.060 C 
ATOM     12  C   UNL     1      -0.776   7.791  -3.668  0.00  0.00    +0.008 C 
ATOM     13  C   UNL     1      -0.129   6.343  -5.322  0.00  0.00    +0.037 C 
ATOM     14  C   UNL     1       0.628   5.521  -6.181  0.00  0.00    +0.119 C 
ATOM     15  C   UNL     1       1.348   4.317  -5.723  0.00  0.00    +0.032 C 
ATOM     16  C   UNL     1       1.616   6.376  -7.178  0.00  0.00    +0.149 C 
ATOM     17  C   UNL     1       3.098   5.732  -6.613  0.00  0.00    +0.088 C 
ATOM     18  C   UNL     1       3.927   6.424  -7.825  0.00  0.00    +0.010 C 
ATOM     19  C   UNL     1       3.396   6.902  -5.575  0.00  0.00    +0.163 C 
ATOM     20  O   UNL     1       3.312   8.024  -5.882  0.00  0.00    -0.295 OA
ATOM     21  C   UNL     1       4.683   6.344  -4.783  0.00  0.00    +0.156 C 
ATOM     22  C   UNL     1       5.731   7.403  -5.475  0.00  0.00    +0.020 C 
ATOM     23  C   UNL     1       4.451   7.279  -3.499  0.00  0.00    +0.324 C 
ATOM     24  O   UNL     1       4.215   8.482  -3.688  0.00  0.00    -0.250 OA
ATOM     25  C   UNL     1       2.033   3.856  -1.264  0.00  0.00    +0.049 C 
ATOM     26  O   UNL     1       3.400   5.424   0.016  0.00  0.00    -0.436 OA
ATOM     27  O   UNL     1       3.588   6.589  -2.723  0.00  0.00    -0.448 OA
ENDROOT
BRANCH  14  28
ATOM     28  O   UNL     1      -0.381   5.007  -7.031  0.00  0.00    -0.353 OA
ATOM     29  C   UNL     1      -1.670   5.247  -6.629  0.00  0.00    +0.174 C 
ENDBRANCH  14  28
BRANCH   1  31
ATOM     30  C   UNL     1       3.469   3.923  -3.474  0.00  0.00    +0.004 C 
ATOM     31  C   UNL     1       3.300   4.326  -3.311  0.00  0.00    +0.047 C 
ENDBRANCH   1  31
BRANCH  16  32
ATOM     32  O   UNL     1       1.602   5.307  -8.238  0.00  0.00    -0.328 OA
BRANCH  32  33
ATOM     33  C   UNL     1       1.725   6.089  -9.536  0.00  0.00    +0.268 C 
ATOM     34  C   UNL     1       2.007   4.618 -10.375  0.00  0.00    +0.222 C 
ATOM     35  O   UNL     1       3.455   4.945 -10.544  0.00  0.00    -0.216 OA
ATOM     36  C   UNL     1       1.623   5.183 -11.943  0.00  0.00    +0.096 C 
ATOM     37  C   UNL     1       1.480   6.751 -11.690  0.00  0.00    +0.048 C 
ATOM     38  C   UNL     1       0.400   7.279 -10.616  0.00  0.00    +0.119 C 
ATOM     39  C   UNL     1      -0.926   7.018 -11.571  0.00  0.00    +0.032 C 
ATOM     40  O   UNL     1       0.238   5.965  -9.867  0.00  0.00    -0.331 OA
BRANCH  36  41
ATOM     41  N   UNL     1       0.117   4.712 -11.864  0.00  0.00    -0.269 NA
ATOM     42  C   UNL     1      -0.054   4.321 -13.273  0.00  0.00    +0.090 C 
ATOM     43  C   UNL     1       0.178   3.388 -11.232  0.00  0.00    +0.090 C 
ENDBRANCH  36  41
ENDBRANCH  32  33
ENDBRANCH  16  32
BRANCH   4  44
ATOM     44  C   UNL     1       0.668   7.489   0.807  0.00  0.00    +0.097 C 
BRANCH  44  45
ATOM     45  C   UNL     1       1.344   8.887   0.719  0.00  0.00    +0.024 C 
BRANCH  45  46
ATOM     46  C   UNL     1       0.599   9.612   1.841  0.00  0.00    +0.026 C 
BRANCH  46  47
ATOM     47  C   UNL     1       1.398   9.151   3.062  0.00  0.00    +0.108 C 
BRANCH  47  48
ATOM     48  N   UNL     1       2.557  10.045   3.028  0.00  0.00    -0.308 N 
ATOM     49  C   UNL     1       3.743   9.865   3.663  0.00  0.00    +0.096 A 
ATOM     50  C   UNL     1       4.703  10.639   3.018  0.00  0.00    +0.102 A 
ATOM     51  N   UNL     1       3.941  11.639   2.510  0.00  0.00    -0.224 NA
ATOM     52  C   UNL     1       2.708  11.139   2.239  0.00  0.00    +0.179 A 
BRANCH  50  53
ATOM     53  C   UNL     1       6.052  10.229   2.588  0.00  0.00    +0.038 A 
ATOM     54  C   UNL     1       6.483   8.907   2.656  0.00  0.00    +0.100 A 
ATOM     55  N   UNL     1       7.545   8.540   3.416  0.00  0.00    -0.242 NA
ATOM     56  C   UNL     1       8.492   9.459   3.726  0.00  0.00    +0.099 A 
ATOM     57  C   UNL     1       8.363  10.697   3.105  0.00  0.00    +0.021 A 
ATOM     58  C   UNL     1       7.089  11.141   2.768  0.00  0.00    +0.005 A 
ENDBRANCH  50  53
ENDBRANCH  47  48
ENDBRANCH  46  47
ENDBRANCH  45  46
ENDBRANCH  44  45
ENDBRANCH   4  44
TORSDOF 11
ENDMDL
MODEL 8
REMARK VINA RESULT:      -4.2      3.171     11.736
REMARK  Name = 
REMARK  11 active torsions:
REMARK  status: ('A' for Active; 'I' for Inactive)
REMARK    1  A    between atoms: C_2  and  C_3
REMARK    2  A    between atoms: C_13  and  O_14
REMARK    3  A    between atoms: O_14  and  C_15
REMARK    4  A    between atoms: C_20  and  N_21
REMARK    5  A    between atoms: C_26  and  O_28
REMARK    6  A    between atoms: N_38  and  C_39
REMARK    7  A    between atoms: C_39  and  C_40
REMARK    8  A    between atoms: C_40  and  C_41
REMARK    9  A    between atoms: C_41  and  C_42
REMARK   10  A    between atoms: C_42  and  N_43
REMARK   11  A    between atoms: C_46  and  C_47
REMARK                            x       y       z     vdW  Elec       q    Type
REMARK                         _______ _______ _______ _____ _____    ______ ____
ROOT
ATOM      1  C   UNL     1       0.496   3.745  -7.675  0.00  0.00    +0.207 C 
ATOM      2  C   UNL     1       1.599   4.058  -8.849  0.00  0.00    +0.191 C 
ATOM      3  C   UNL     1       1.683   5.652  -9.066  0.00  0.00    +0.125 C 
ATOM      4  N   UNL     1       1.658   5.444 -10.622  0.00  0.00    -0.244 N 
ATOM      5  C   UNL     1       0.406   4.736 -10.653  0.00  0.00    +0.405 C 
ATOM      6  O   UNL     1      -0.488   4.742 -11.552  0.00  0.00    -0.226 OA
ATOM      7  C   UNL     1       3.389   5.786  -9.071  0.00  0.00    +0.079 C 
ATOM      8  C   UNL     1       3.387   7.289  -9.694  0.00  0.00    +0.010 C 
ATOM      9  C   UNL     1       3.612   6.340  -7.609  0.00  0.00    +0.152 C 
ATOM     10  O   UNL     1       4.660   6.053  -7.209  0.00  0.00    -0.296 OA
ATOM     11  C   UNL     1       2.574   7.327  -6.938  0.00  0.00    +0.060 C 
ATOM     12  C   UNL     1       3.118   8.717  -7.637  0.00  0.00    +0.008 C 
ATOM     13  C   UNL     1       3.484   7.658  -5.638  0.00  0.00    +0.037 C 
ATOM     14  C   UNL     1       3.364   6.831  -4.503  0.00  0.00    +0.119 C 
ATOM     15  C   UNL     1       3.411   5.357  -4.567  0.00  0.00    +0.032 C 
ATOM     16  C   UNL     1       2.128   7.275  -3.516  0.00  0.00    +0.149 C 
ATOM     17  C   UNL     1       1.225   5.826  -3.639  0.00  0.00    +0.088 C 
ATOM     18  C   UNL     1       0.223   6.280  -2.446  0.00  0.00    +0.010 C 
ATOM     19  C   UNL     1       0.266   6.333  -4.805  0.00  0.00    +0.163 C 
ATOM     20  O   UNL     1      -0.271   7.367  -4.745  0.00  0.00    -0.295 OA
ATOM     21  C   UNL     1      -0.536   4.993  -5.203  0.00  0.00    +0.156 C 
ATOM     22  C   UNL     1      -1.954   5.488  -4.536  0.00  0.00    +0.020 C 
ATOM     23  C   UNL     1      -0.939   5.521  -6.664  0.00  0.00    +0.324 C 
ATOM     24  O   UNL     1      -1.402   6.668  -6.763  0.00  0.00    -0.250 OA
ATOM     25  C   UNL     1       2.839   3.416  -8.625  0.00  0.00    +0.049 C 
ATOM     26  O   UNL     1       0.759   3.620  -9.888  0.00  0.00    -0.436 OA
ATOM     27  O   UNL     1       0.115   5.207  -7.446  0.00  0.00    -0.448 OA
ENDROOT
BRANCH  14  28
ATOM     28  O   UNL     1       4.536   7.175  -3.787  0.00  0.00    -0.353 OA
ATOM     29  C   UNL     1       5.385   8.042  -4.426  0.00  0.00    +0.174 C 
ENDBRANCH  14  28
BRANCH   1  31
ATOM     30  C   UNL     1       1.876   3.305  -6.363  0.00  0.00    +0.004 C 
ATOM     31  C   UNL     1       1.648   3.689  -6.499  0.00  0.00    +0.047 C 
ENDBRANCH   1  31
BRANCH  16  32
ATOM     32  O   UNL     1       2.796   6.706  -2.292  0.00  0.00    -0.328 OA
BRANCH  32  33
ATOM     33  C   UNL     1       2.343   7.633  -1.175  0.00  0.00    +0.268 C 
ATOM     34  C   UNL     1       3.098   6.596  -0.034  0.00  0.00    +0.222 C 
ATOM     35  O   UNL     1       1.775   6.086   0.438  0.00  0.00    -0.216 OA
ATOM     36  C   UNL     1       3.201   7.721   1.250  0.00  0.00    +0.096 C 
ATOM     37  C   UNL     1       2.333   8.932   0.683  0.00  0.00    +0.048 C 
ATOM     38  C   UNL     1       2.760   9.620  -0.712  0.00  0.00    +0.119 C 
ATOM     39  C   UNL     1       4.052  10.453  -0.098  0.00  0.00    +0.032 C 
ATOM     40  O   UNL     1       3.620   8.472  -1.219  0.00  0.00    -0.331 OA
BRANCH  36  41
ATOM     41  N   UNL     1       4.665   8.179   0.876  0.00  0.00    -0.269 NA
ATOM     42  C   UNL     1       4.999   8.864   2.137  0.00  0.00    +0.090 C 
ATOM     43  C   UNL     1       5.480   6.965   1.017  0.00  0.00    +0.090 C 
ENDBRANCH  36  41
ENDBRANCH  32  33
ENDBRANCH  16  32
BRANCH   4  44
ATOM     44  C   UNL     1       1.828   6.503 -11.591  0.00  0.00    +0.097 C 
BRANCH  44  45
ATOM     45  C   UNL     1       2.166   5.836 -12.955  0.00  0.00    +0.024 C 
BRANCH  45  46
ATOM     46  C   UNL     1       1.357   6.731 -13.895  0.00  0.00    +0.026 C 
BRANCH  46  47
ATOM     47  C   UNL     1       2.300   6.813 -15.097  0.00  0.00    +0.108 C 
BRANCH  47  48
ATOM     48  N   UNL     1       1.627   7.793 -15.951  0.00  0.00    -0.308 N 
ATOM     49  C   UNL     1       0.727   8.732 -15.561  0.00  0.00    +0.096 A 
ATOM     50  C   UNL     1       0.699   9.735 -16.527  0.00  0.00    +0.102 A 
ATOM     51  N   UNL     1       1.062   9.045 -17.636  0.00  0.00    -0.224 NA
ATOM     52  C   UNL     1       1.891   8.039 -17.260  0.00  0.00    +0.179 A 
BRANCH  50  53
ATOM     53  C   UNL     1       0.753  11.192 -16.315  0.00  0.00    +0.038 A 
ATOM     54  C   UNL     1       0.863  11.755 -15.046  0.00  0.00    +0.100 A 
ATOM     55  N   UNL     1      -0.091  12.580 -14.546  0.00  0.00    -0.242 NA
ATOM     56  C   UNL     1      -0.896  13.260 -15.398  0.00  0.00    +0.099 A 
ATOM     57  C   UNL     1      -0.575  13.161 -16.748  0.00  0.00    +0.021 A 
ATOM     58  C   UNL     1       0.041  11.998 -17.198  0.00  0.00    +0.005 A 
ENDBRANCH  50  53
ENDBRANCH  47  48
ENDBRANCH  46  47
ENDBRANCH  45  46
ENDBRANCH  44  45
ENDBRANCH   4  44
TORSDOF 11
ENDMDL
MODEL 9
REMARK VINA RESULT:      -4.1      2.294      5.022
REMARK  Name = 
REMARK  11 active torsions:
REMARK  status: ('A' for Active; 'I' for Inactive)
REMARK    1  A    between atoms: C_2  and  C_3
REMARK    2  A    between atoms: C_13  and  O_14
REMARK    3  A    between atoms: O_14  and  C_15
REMARK    4  A    between atoms: C_20  and  N_21
REMARK    5  A    between atoms: C_26  and  O_28
REMARK    6  A    between atoms: N_38  and  C_39
REMARK    7  A    between atoms: C_39  and  C_40
REMARK    8  A    between atoms: C_40  and  C_41
REMARK    9  A    between atoms: C_41  and  C_42
REMARK   10  A    between atoms: C_42  and  N_43
REMARK   11  A    between atoms: C_46  and  C_47
REMARK                            x       y       z     vdW  Elec       q    Type
REMARK                         _______ _______ _______ _____ _____    ______ ____
ROOT
ATOM      1  C   UNL     1       0.645   6.827  -4.273  0.00  0.00    +0.207 C 
ATOM      2  C   UNL     1       2.076   6.905  -3.475  0.00  0.00    +0.191 C 
ATOM      3  C   UNL     1       2.906   5.557  -3.772  0.00  0.00    +0.125 C 
ATOM      4  N   UNL     1       3.276   5.445  -2.250  0.00  0.00    -0.244 N 
ATOM      5  C   UNL     1       1.918   5.414  -1.775  0.00  0.00    +0.405 C 
ATOM      6  O   UNL     1       1.441   4.804  -0.772  0.00  0.00    -0.226 OA
ATOM      7  C   UNL     1       4.410   6.296  -4.124  0.00  0.00    +0.079 C 
ATOM      8  C   UNL     1       5.254   4.910  -3.999  0.00  0.00    +0.010 C 
ATOM      9  C   UNL     1       4.388   6.196  -5.700  0.00  0.00    +0.152 C 
ATOM     10  O   UNL     1       5.027   7.034  -6.179  0.00  0.00    -0.296 OA
ATOM     11  C   UNL     1       3.732   4.960  -6.435  0.00  0.00    +0.060 C 
ATOM     12  C   UNL     1       5.011   3.929  -6.306  0.00  0.00    +0.008 C 
ATOM     13  C   UNL     1       4.245   5.364  -7.919  0.00  0.00    +0.037 C 
ATOM     14  C   UNL     1       3.434   6.207  -8.706  0.00  0.00    +0.119 C 
ATOM     15  C   UNL     1       2.853   7.468  -8.207  0.00  0.00    +0.032 C 
ATOM     16  C   UNL     1       2.276   5.387  -9.536  0.00  0.00    +0.149 C 
ATOM     17  C   UNL     1       0.921   6.143  -8.812  0.00  0.00    +0.088 C 
ATOM     18  C   UNL     1      -0.098   5.469  -9.881  0.00  0.00    +0.010 C 
ATOM     19  C   UNL     1       0.689   5.027  -7.700  0.00  0.00    +0.163 C 
ATOM     20  O   UNL     1       0.666   3.893  -7.972  0.00  0.00    -0.295 OA
ATOM     21  C   UNL     1      -0.449   5.691  -6.773  0.00  0.00    +0.156 C 
ATOM     22  C   UNL     1      -1.640   4.682  -7.285  0.00  0.00    +0.020 C 
ATOM     23  C   UNL     1      -0.110   4.783  -5.494  0.00  0.00    +0.324 C 
ATOM     24  O   UNL     1       0.027   3.562  -5.665  0.00  0.00    -0.250 OA
ATOM     25  C   UNL     1       2.778   8.109  -3.718  0.00  0.00    +0.049 C 
ATOM     26  O   UNL     1       1.496   6.673  -2.216  0.00  0.00    -0.436 OA
ATOM     27  O   UNL     1       0.887   5.438  -4.862  0.00  0.00    -0.448 OA
ENDROOT
BRANCH  14  28
ATOM     28  O   UNL     1       4.354   6.628  -9.696  0.00  0.00    -0.353 OA
ATOM     29  C   UNL     1       5.543   5.944  -9.726  0.00  0.00    +0.174 C 
ENDBRANCH  14  28
BRANCH   1  31
ATOM     30  C   UNL     1       1.006   7.997  -5.796  0.00  0.00    +0.004 C 
ATOM     31  C   UNL     1       1.232   7.659  -5.568  0.00  0.00    +0.047 C 
ENDBRANCH   1  31
BRANCH  16  32
ATOM     32  O   UNL     1       2.217   6.420 -10.629  0.00  0.00    -0.328 OA
BRANCH  32  33
ATOM     33  C   UNL     1       2.454   5.613 -11.896  0.00  0.00    +0.268 C 
ATOM     34  C   UNL     1       1.021   6.278 -12.566  0.00  0.00    +0.222 C 
ATOM     35  O   UNL     1       0.293   4.985 -12.395  0.00  0.00    -0.216 OA
ATOM     36  C   UNL     1       1.371   5.945 -14.207  0.00  0.00    +0.096 C 
ATOM     37  C   UNL     1       2.669   5.028 -14.075  0.00  0.00    +0.048 C 
ATOM     38  C   UNL     1       3.970   5.611 -13.323  0.00  0.00    +0.119 C 
ATOM     39  C   UNL     1       4.444   6.607 -14.558  0.00  0.00    +0.032 C 
ATOM     40  O   UNL     1       3.257   6.725 -12.572  0.00  0.00    -0.331 OA
BRANCH  36  41
ATOM     41  N   UNL     1       2.012   7.364 -14.473  0.00  0.00    -0.269 NA
ATOM     42  C   UNL     1       1.982   7.335 -15.945  0.00  0.00    +0.090 C 
ATOM     43  C   UNL     1       0.925   8.315 -14.209  0.00  0.00    +0.090 C 
ENDBRANCH  36  41
ENDBRANCH  32  33
ENDBRANCH  16  32
BRANCH   4  44
ATOM     44  C   UNL     1       4.179   4.460  -1.698  0.00  0.00    +0.097 C 
BRANCH  44  45
ATOM     45  C   UNL     1       4.770   5.055  -0.389  0.00  0.00    +0.024 C 
BRANCH  45  46
ATOM     46  C   UNL     1       4.629   6.548  -0.689  0.00  0.00    +0.026 C 
BRANCH  46  47
ATOM     47  C   UNL     1       5.153   7.155   0.614  0.00  0.00    +0.108 C 
BRANCH  47  48
ATOM     48  N   UNL     1       3.944   7.749   1.187  0.00  0.00    -0.308 N 
ATOM     49  C   UNL     1       2.830   8.138   0.515  0.00  0.00    +0.096 A 
ATOM     50  C   UNL     1       1.773   8.189   1.419  0.00  0.00    +0.102 A 
ATOM     51  N   UNL     1       2.427   8.446   2.579  0.00  0.00    -0.224 NA
ATOM     52  C   UNL     1       3.659   7.881   2.508  0.00  0.00    +0.179 A 
BRANCH  50  53
ATOM     53  C   UNL     1       0.418   7.631   1.254  0.00  0.00    +0.038 A 
ATOM     54  C   UNL     1      -0.420   8.014   0.210  0.00  0.00    +0.100 A 
ATOM     55  N   UNL     1      -1.619   8.606   0.437  0.00  0.00    -0.242 NA
ATOM     56  C   UNL     1      -2.247   8.405   1.622  0.00  0.00    +0.099 A 
ATOM     57  C   UNL     1      -1.661   7.471   2.470  0.00  0.00    +0.021 A 
ATOM     58  C   UNL     1      -0.282   7.292   2.407  0.00  0.00    +0.005 A 
ENDBRANCH  50  53
ENDBRANCH  47  48
ENDBRANCH  46  47
ENDBRANCH  45  46
ENDBRANCH  44  45
ENDBRANCH   4  44
TORSDOF 11
ENDMDL
