MODEL 1
REMARK VINA RESULT:      -7.3      0.000      0.000
REMARK  Name = 
REMARK  5 active torsions:
REMARK  status: ('A' for Active; 'I' for Inactive)
REMARK    1  A    between atoms: C_2  and  C_4
REMARK    2  A    between atoms: C_4  and  S_5
REMARK    3  A    between atoms: S_5  and  C_7
REMARK    4  A    between atoms: C_7  and  C_8
REMARK    5  A    between atoms: C_7  and  C_14
REMARK                            x       y       z     vdW  Elec       q    Type
REMARK                         _______ _______ _______ _____ _____    ______ ____
ROOT
ATOM      1  C   UNL     1       0.792   5.135  -4.893  0.00  0.00    +0.124 C 
ENDROOT
BRANCH   1   2
ATOM      2  C   UNL     1       1.172   5.519  -3.527  0.00  0.00    -0.006 A 
ATOM      3  C   UNL     1       2.436   5.890  -3.134  0.00  0.00    -0.003 A 
ATOM      4  C   UNL     1       2.747   5.995  -1.785  0.00  0.00    -0.000 A 
ATOM      5  C   UNL     1       1.848   5.617  -0.817  0.00  0.00    -0.000 A 
ATOM      6  C   UNL     1       0.556   5.304  -1.189  0.00  0.00    -0.000 A 
ATOM      7  C   UNL     1       0.316   5.090  -2.519  0.00  0.00    -0.003 A 
ENDBRANCH   1   2
BRANCH   1   8
ATOM      8  C   UNL     1      -0.279   5.950  -5.480  0.00  0.00    -0.006 A 
ATOM      9  C   UNL     1      -0.407   7.243  -4.987  0.00  0.00    -0.003 A 
ATOM     10  C   UNL     1      -1.642   7.843  -4.790  0.00  0.00    -0.000 A 
ATOM     11  C   UNL     1      -2.764   7.225  -5.319  0.00  0.00    -0.000 A 
ATOM     12  C   UNL     1      -2.570   6.119  -6.137  0.00  0.00    -0.000 A 
ATOM     13  C   UNL     1      -1.342   5.470  -6.202  0.00  0.00    -0.003 A 
ENDBRANCH   1   8
BRANCH   1  14
ATOM     14  S   UNL     1       2.252   5.038  -5.990  0.00  0.00    +0.059 S 
ATOM     15  O   UNL     1       2.094   3.605  -6.571  0.00  0.00    -0.255 OA
BRANCH  14  16
ATOM     16  C   UNL     1       1.655   6.046  -7.407  0.00  0.00    +0.180 C 
BRANCH  16  18
ATOM     17  N   UNL     1       2.156   8.192  -7.900  0.00  0.00    -0.087 NA
ATOM     18  C   UNL     1       2.438   7.322  -7.332  0.00  0.00    +0.274 C 
ATOM     19  O   UNL     1       3.176   7.416  -6.303  0.00  0.00    -0.271 OA
ENDBRANCH  16  18
ENDBRANCH  14  16
ENDBRANCH   1  14
TORSDOF 5
ENDMDL
MODEL 2
REMARK VINA RESULT:      -7.2      2.806      4.792
REMARK  Name = 
REMARK  5 active torsions:
REMARK  status: ('A' for Active; 'I' for Inactive)
REMARK    1  A    between atoms: C_2  and  C_4
REMARK    2  A    between atoms: C_4  and  S_5
REMARK    3  A    between atoms: S_5  and  C_7
REMARK    4  A    between atoms: C_7  and  C_8
REMARK    5  A    between atoms: C_7  and  C_14
REMARK                            x       y       z     vdW  Elec       q    Type
REMARK                         _______ _______ _______ _____ _____    ______ ____
ROOT
ATOM      1  C   UNL     1       0.531   4.912  -7.802  0.00  0.00    +0.124 C 
ENDROOT
BRANCH   1   2
ATOM      2  C   UNL     1      -0.321   5.494  -6.756  0.00  0.00    -0.006 A 
ATOM      3  C   UNL     1      -1.692   5.402  -6.714  0.00  0.00    -0.003 A 
ATOM      4  C   UNL     1      -2.419   6.188  -5.829  0.00  0.00    -0.000 A 
ATOM      5  C   UNL     1      -1.806   7.155  -5.069  0.00  0.00    -0.000 A 
ATOM      6  C   UNL     1      -0.427   7.218  -5.051  0.00  0.00    -0.000 A 
ATOM      7  C   UNL     1       0.249   6.524  -6.017  0.00  0.00    -0.003 A 
ENDBRANCH   1   2
BRANCH   1   8
ATOM      8  C   UNL     1       0.366   5.518  -9.129  0.00  0.00    -0.006 A 
ATOM      9  C   UNL     1      -0.174   4.700 -10.114  0.00  0.00    -0.003 A 
ATOM     10  C   UNL     1       0.264   4.735 -11.430  0.00  0.00    -0.000 A 
ATOM     11  C   UNL     1       1.094   5.775 -11.818  0.00  0.00    -0.000 A 
ATOM     12  C   UNL     1       1.322   6.798 -10.906  0.00  0.00    -0.000 A 
ATOM     13  C   UNL     1       0.982   6.664  -9.565  0.00  0.00    -0.003 A 
ENDBRANCH   1   8
BRANCH   1  14
ATOM     14  S   UNL     1       2.286   4.871  -7.286  0.00  0.00    +0.059 S 
ATOM     15  O   UNL     1       2.240   3.801  -6.159  0.00  0.00    -0.255 OA
BRANCH  14  16
ATOM     16  C   UNL     1       3.001   3.882  -8.662  0.00  0.00    +0.180 C 
BRANCH  16  18
ATOM     17  N   UNL     1       4.321   5.001 -10.112  0.00  0.00    -0.087 NA
ATOM     18  C   UNL     1       4.212   4.648  -9.100  0.00  0.00    +0.274 C 
ATOM     19  O   UNL     1       4.870   5.165  -8.146  0.00  0.00    -0.271 OA
ENDBRANCH  16  18
ENDBRANCH  14  16
ENDBRANCH   1  14
TORSDOF 5
ENDMDL
MODEL 3
REMARK VINA RESULT:      -7.2      3.135      4.239
REMARK  Name = 
REMARK  5 active torsions:
REMARK  status: ('A' for Active; 'I' for Inactive)
REMARK    1  A    between atoms: C_2  and  C_4
REMARK    2  A    between atoms: C_4  and  S_5
REMARK    3  A    between atoms: S_5  and  C_7
REMARK    4  A    between atoms: C_7  and  C_8
REMARK    5  A    between atoms: C_7  and  C_14
REMARK                            x       y       z     vdW  Elec       q    Type
REMARK                         _______ _______ _______ _____ _____    ______ ____
ROOT
ATOM      1  C   UNL     1       0.730   6.479  -3.738  0.00  0.00    +0.124 C 
ENDROOT
BRANCH   1   2
ATOM      2  C   UNL     1       2.136   6.293  -4.121  0.00  0.00    -0.006 A 
ATOM      3  C   UNL     1       2.700   5.097  -4.495  0.00  0.00    -0.003 A 
ATOM      4  C   UNL     1       4.080   4.976  -4.599  0.00  0.00    -0.000 A 
ATOM      5  C   UNL     1       4.913   5.999  -4.216  0.00  0.00    -0.000 A 
ATOM      6  C   UNL     1       4.365   7.226  -3.900  0.00  0.00    -0.000 A 
ATOM      7  C   UNL     1       3.015   7.279  -3.687  0.00  0.00    -0.003 A 
ENDBRANCH   1   2
BRANCH   1   8
ATOM      8  C   UNL     1      -0.203   6.574  -4.868  0.00  0.00    -0.006 A 
ATOM      9  C   UNL     1      -1.096   7.637  -4.839  0.00  0.00    -0.003 A 
ATOM     10  C   UNL     1      -2.410   7.514  -5.265  0.00  0.00    -0.000 A 
ATOM     11  C   UNL     1      -2.772   6.368  -5.956  0.00  0.00    -0.000 A 
ATOM     12  C   UNL     1      -1.765   5.477  -6.305  0.00  0.00    -0.000 A 
ATOM     13  C   UNL     1      -0.493   5.563  -5.749  0.00  0.00    -0.003 A 
ENDBRANCH   1   8
BRANCH   1  14
ATOM     14  S   UNL     1       0.198   5.220  -2.522  0.00  0.00    +0.059 S 
ATOM     15  O   UNL     1       1.439   5.165  -1.587  0.00  0.00    -0.255 OA
BRANCH  14  16
ATOM     16  C   UNL     1      -0.951   6.227  -1.499  0.00  0.00    +0.180 C 
BRANCH  16  18
ATOM     17  N   UNL     1      -3.140   6.505  -1.981  0.00  0.00    -0.087 NA
ATOM     18  C   UNL     1      -2.323   5.804  -1.929  0.00  0.00    +0.274 C 
ATOM     19  O   UNL     1      -2.349   4.711  -2.574  0.00  0.00    -0.271 OA
ENDBRANCH  16  18
ENDBRANCH  14  16
ENDBRANCH   1  14
TORSDOF 5
ENDMDL
MODEL 4
REMARK VINA RESULT:      -7.2      3.074      5.576
REMARK  Name = 
REMARK  5 active torsions:
REMARK  status: ('A' for Active; 'I' for Inactive)
REMARK    1  A    between atoms: C_2  and  C_4
REMARK    2  A    between atoms: C_4  and  S_5
REMARK    3  A    between atoms: S_5  and  C_7
REMARK    4  A    between atoms: C_7  and  C_8
REMARK    5  A    between atoms: C_7  and  C_14
REMARK                            x       y       z     vdW  Elec       q    Type
REMARK                         _______ _______ _______ _____ _____    ______ ____
ROOT
ATOM      1  C   UNL     1       1.138   5.377  -3.990  0.00  0.00    +0.124 C 
ENDROOT
BRANCH   1   2
ATOM      2  C   UNL     1       0.005   5.777  -4.835  0.00  0.00    -0.006 A 
ATOM      3  C   UNL     1      -1.063   6.534  -4.416  0.00  0.00    -0.003 A 
ATOM      4  C   UNL     1      -2.195   6.650  -5.213  0.00  0.00    -0.000 A 
ATOM      5  C   UNL     1      -2.326   5.921  -6.370  0.00  0.00    -0.000 A 
ATOM      6  C   UNL     1      -1.241   5.207  -6.839  0.00  0.00    -0.000 A 
ATOM      7  C   UNL     1      -0.195   5.013  -5.979  0.00  0.00    -0.003 A 
ENDBRANCH   1   2
BRANCH   1   8
ATOM      8  C   UNL     1       2.447   5.843  -4.466  0.00  0.00    -0.006 A 
ATOM      9  C   UNL     1       3.409   4.863  -4.676  0.00  0.00    -0.003 A 
ATOM     10  C   UNL     1       4.746   5.058  -4.367  0.00  0.00    -0.000 A 
ATOM     11  C   UNL     1       5.170   6.342  -4.063  0.00  0.00    -0.000 A 
ATOM     12  C   UNL     1       4.261   7.380  -4.226  0.00  0.00    -0.000 A 
ATOM     13  C   UNL     1       2.904   7.136  -4.404  0.00  0.00    -0.003 A 
ENDBRANCH   1   8
BRANCH   1  14
ATOM     14  S   UNL     1       0.854   5.820  -2.239  0.00  0.00    +0.059 S 
ATOM     15  O   UNL     1      -0.185   4.741  -1.823  0.00  0.00    -0.255 OA
BRANCH  14  16
ATOM     16  C   UNL     1       2.380   5.130  -1.481  0.00  0.00    +0.180 C 
BRANCH  16  18
ATOM     17  N   UNL     1       2.560   7.259  -0.752  0.00  0.00    -0.087 NA
ATOM     18  C   UNL     1       3.031   6.292  -0.793  0.00  0.00    +0.274 C 
ATOM     19  O   UNL     1       3.936   5.962   0.033  0.00  0.00    -0.271 OA
ENDBRANCH  16  18
ENDBRANCH  14  16
ENDBRANCH   1  14
TORSDOF 5
ENDMDL
MODEL 5
REMARK VINA RESULT:      -7.2      3.009      6.117
REMARK  Name = 
REMARK  5 active torsions:
REMARK  status: ('A' for Active; 'I' for Inactive)
REMARK    1  A    between atoms: C_2  and  C_4
REMARK    2  A    between atoms: C_4  and  S_5
REMARK    3  A    between atoms: S_5  and  C_7
REMARK    4  A    between atoms: C_7  and  C_8
REMARK    5  A    between atoms: C_7  and  C_14
REMARK                            x       y       z     vdW  Elec       q    Type
REMARK                         _______ _______ _______ _____ _____    ______ ____
ROOT
ATOM      1  C   UNL     1       3.094   5.371  -7.228  0.00  0.00    +0.124 C 
ENDROOT
BRANCH   1   2
ATOM      2  C   UNL     1       4.047   5.900  -8.213  0.00  0.00    -0.006 A 
ATOM      3  C   UNL     1       3.712   6.679  -9.295  0.00  0.00    -0.003 A 
ATOM      4  C   UNL     1       4.642   6.921 -10.297  0.00  0.00    -0.000 A 
ATOM      5  C   UNL     1       5.866   6.297 -10.297  0.00  0.00    -0.000 A 
ATOM      6  C   UNL     1       6.243   5.564  -9.189  0.00  0.00    -0.000 A 
ATOM      7  C   UNL     1       5.269   5.243  -8.283  0.00  0.00    -0.003 A 
ENDBRANCH   1   2
BRANCH   1   8
ATOM      8  C   UNL     1       3.417   5.695  -5.832  0.00  0.00    -0.006 A 
ATOM      9  C   UNL     1       3.571   7.044  -5.534  0.00  0.00    -0.003 A 
ATOM     10  C   UNL     1       4.534   7.503  -4.649  0.00  0.00    -0.000 A 
ATOM     11  C   UNL     1       5.202   6.575  -3.866  0.00  0.00    -0.000 A 
ATOM     12  C   UNL     1       4.766   5.256  -3.909  0.00  0.00    -0.000 A 
ATOM     13  C   UNL     1       3.897   4.811  -4.899  0.00  0.00    -0.003 A 
ENDBRANCH   1   8
BRANCH   1  14
ATOM     14  S   UNL     1       1.374   5.828  -7.651  0.00  0.00    +0.059 S 
ATOM     15  O   UNL     1       1.084   4.846  -8.820  0.00  0.00    -0.255 OA
BRANCH  14  16
ATOM     16  C   UNL     1       0.475   4.995  -6.280  0.00  0.00    +0.180 C 
BRANCH  16  18
ATOM     17  N   UNL     1      -0.265   6.911  -5.341  0.00  0.00    -0.087 NA
ATOM     18  C   UNL     1      -0.548   5.992  -5.826  0.00  0.00    +0.274 C 
ATOM     19  O   UNL     1      -1.680   5.863  -6.386  0.00  0.00    -0.271 OA
ENDBRANCH  16  18
ENDBRANCH  14  16
ENDBRANCH   1  14
TORSDOF 5
ENDMDL
MODEL 6
REMARK VINA RESULT:      -7.1      2.686      4.867
REMARK  Name = 
REMARK  5 active torsions:
REMARK  status: ('A' for Active; 'I' for Inactive)
REMARK    1  A    between atoms: C_2  and  C_4
REMARK    2  A    between atoms: C_4  and  S_5
REMARK    3  A    between atoms: S_5  and  C_7
REMARK    4  A    between atoms: C_7  and  C_8
REMARK    5  A    between atoms: C_7  and  C_14
REMARK                            x       y       z     vdW  Elec       q    Type
REMARK                         _______ _______ _______ _____ _____    ______ ____
ROOT
ATOM      1  C   UNL     1       1.754   6.643  -7.027  0.00  0.00    +0.124 C 
ENDROOT
BRANCH   1   2
ATOM      2  C   UNL     1       0.463   6.284  -6.425  0.00  0.00    -0.006 A 
ATOM      3  C   UNL     1      -0.497   5.502  -7.022  0.00  0.00    -0.003 A 
ATOM      4  C   UNL     1      -1.774   5.425  -6.481  0.00  0.00    -0.000 A 
ATOM      5  C   UNL     1      -2.144   6.214  -5.419  0.00  0.00    -0.000 A 
ATOM      6  C   UNL     1      -1.178   6.956  -4.768  0.00  0.00    -0.000 A 
ATOM      7  C   UNL     1       0.029   7.108  -5.392  0.00  0.00    -0.003 A 
ENDBRANCH   1   2
BRANCH   1   8
ATOM      8  C   UNL     1       2.926   6.266  -6.226  0.00  0.00    -0.006 A 
ATOM      9  C   UNL     1       2.998   4.935  -5.832  0.00  0.00    -0.003 A 
ATOM     10  C   UNL     1       3.470   4.556  -4.584  0.00  0.00    -0.000 A 
ATOM     11  C   UNL     1       4.105   5.511  -3.805  0.00  0.00    -0.000 A 
ATOM     12  C   UNL     1       4.358   6.751  -4.376  0.00  0.00    -0.000 A 
ATOM     13  C   UNL     1       3.756   7.138  -5.568  0.00  0.00    -0.003 A 
ENDBRANCH   1   8
BRANCH   1  14
ATOM     14  S   UNL     1       1.880   6.032  -8.747  0.00  0.00    +0.059 S 
ATOM     15  O   UNL     1       1.171   7.177  -9.523  0.00  0.00    -0.255 OA
BRANCH  14  16
ATOM     16  C   UNL     1       3.642   6.427  -9.098  0.00  0.00    +0.180 C 
BRANCH  16  18
ATOM     17  N   UNL     1       3.987   4.195  -9.139  0.00  0.00    -0.087 NA
ATOM     18  C   UNL     1       4.236   5.141  -9.590  0.00  0.00    +0.274 C 
ATOM     19  O   UNL     1       4.712   5.207 -10.765  0.00  0.00    -0.271 OA
ENDBRANCH  16  18
ENDBRANCH  14  16
ENDBRANCH   1  14
TORSDOF 5
ENDMDL
MODEL 7
REMARK VINA RESULT:      -7.1      4.518      7.056
REMARK  Name = 
REMARK  5 active torsions:
REMARK  status: ('A' for Active; 'I' for Inactive)
REMARK    1  A    between atoms: C_2  and  C_4
REMARK    2  A    between atoms: C_4  and  S_5
REMARK    3  A    between atoms: S_5  and  C_7
REMARK    4  A    between atoms: C_7  and  C_8
REMARK    5  A    between atoms: C_7  and  C_14
REMARK                            x       y       z     vdW  Elec       q    Type
REMARK                         _______ _______ _______ _____ _____    ______ ____
ROOT
ATOM      1  C   UNL     1       3.781   5.702 -10.429  0.00  0.00    +0.124 C 
ENDROOT
BRANCH   1   2
ATOM      2  C   UNL     1       5.100   6.332 -10.289  0.00  0.00    -0.006 A 
ATOM      3  C   UNL     1       5.559   7.378 -11.054  0.00  0.00    -0.003 A 
ATOM      4  C   UNL     1       6.900   7.739 -11.013  0.00  0.00    -0.000 A 
ATOM      5  C   UNL     1       7.815   6.992 -10.313  0.00  0.00    -0.000 A 
ATOM      6  C   UNL     1       7.364   5.979  -9.490  0.00  0.00    -0.000 A 
ATOM      7  C   UNL     1       6.068   5.570  -9.645  0.00  0.00    -0.003 A 
ENDBRANCH   1   2
BRANCH   1   8
ATOM      8  C   UNL     1       2.928   5.803  -9.238  0.00  0.00    -0.006 A 
ATOM      9  C   UNL     1       2.695   7.086  -8.757  0.00  0.00    -0.003 A 
ATOM     10  C   UNL     1       2.635   7.370  -7.401  0.00  0.00    -0.000 A 
ATOM     11  C   UNL     1       2.570   6.310  -6.510  0.00  0.00    -0.000 A 
ATOM     12  C   UNL     1       2.424   5.031  -7.033  0.00  0.00    -0.000 A 
ATOM     13  C   UNL     1       2.623   4.773  -8.385  0.00  0.00    -0.003 A 
ENDBRANCH   1   8
BRANCH   1  14
ATOM     14  S   UNL     1       2.919   6.283 -11.934  0.00  0.00    +0.059 S 
ATOM     15  O   UNL     1       3.536   5.347 -13.011  0.00  0.00    -0.255 OA
BRANCH  14  16
ATOM     16  C   UNL     1       1.279   5.486 -11.693  0.00  0.00    +0.180 C 
BRANCH  16  18
ATOM     17  N   UNL     1       0.066   7.230 -12.457  0.00  0.00    -0.087 NA
ATOM     18  C   UNL     1       0.306   6.622 -11.601  0.00  0.00    +0.274 C 
ATOM     19  O   UNL     1      -0.468   6.561 -10.597  0.00  0.00    -0.271 OA
ENDBRANCH  16  18
ENDBRANCH  14  16
ENDBRANCH   1  14
TORSDOF 5
ENDMDL
MODEL 8
REMARK VINA RESULT:      -7.1      2.535      4.741
REMARK  Name = 
REMARK  5 active torsions:
REMARK  status: ('A' for Active; 'I' for Inactive)
REMARK    1  A    between atoms: C_2  and  C_4
REMARK    2  A    between atoms: C_4  and  S_5
REMARK    3  A    between atoms: S_5  and  C_7
REMARK    4  A    between atoms: C_7  and  C_8
REMARK    5  A    between atoms: C_7  and  C_14
REMARK                            x       y       z     vdW  Elec       q    Type
REMARK                         _______ _______ _______ _____ _____    ______ ____
ROOT
ATOM      1  C   UNL     1       1.659   5.803  -5.239  0.00  0.00    +0.124 C 
ENDROOT
BRANCH   1   2
ATOM      2  C   UNL     1       0.264   6.106  -5.587  0.00  0.00    -0.006 A 
ATOM      3  C   UNL     1      -0.555   6.961  -4.889  0.00  0.00    -0.003 A 
ATOM      4  C   UNL     1      -1.919   6.991  -5.149  0.00  0.00    -0.000 A 
ATOM      5  C   UNL     1      -2.498   6.091  -6.012  0.00  0.00    -0.000 A 
ATOM      6  C   UNL     1      -1.685   5.270  -6.767  0.00  0.00    -0.000 A 
ATOM      7  C   UNL     1      -0.369   5.175  -6.403  0.00  0.00    -0.003 A 
ENDBRANCH   1   2
BRANCH   1   8
ATOM      8  C   UNL     1       2.631   6.113  -6.294  0.00  0.00    -0.006 A 
ATOM      9  C   UNL     1       2.490   7.347  -6.917  0.00  0.00    -0.003 A 
ATOM     10  C   UNL     1       2.702   7.521  -8.276  0.00  0.00    -0.000 A 
ATOM     11  C   UNL     1       3.299   6.490  -8.984  0.00  0.00    -0.000 A 
ATOM     12  C   UNL     1       3.779   5.402  -8.266  0.00  0.00    -0.000 A 
ATOM     13  C   UNL     1       3.431   5.200  -6.935  0.00  0.00    -0.003 A 
ENDBRANCH   1   8
BRANCH   1  14
ATOM     14  S   UNL     1       2.126   6.558  -3.640  0.00  0.00    +0.059 S 
ATOM     15  O   UNL     1       1.652   5.464  -2.643  0.00  0.00    -0.255 OA
BRANCH  14  16
ATOM     16  C   UNL     1       3.938   6.241  -3.653  0.00  0.00    +0.180 C 
BRANCH  16  18
ATOM     17  N   UNL     1       5.223   8.003  -4.238  0.00  0.00    -0.087 NA
ATOM     18  C   UNL     1       4.568   7.590  -3.489  0.00  0.00    +0.274 C 
ATOM     19  O   UNL     1       3.987   8.333  -2.639  0.00  0.00    -0.271 OA
ENDBRANCH  16  18
ENDBRANCH  14  16
ENDBRANCH   1  14
TORSDOF 5
ENDMDL
MODEL 9
REMARK VINA RESULT:      -7.0      4.614      8.472
REMARK  Name = 
REMARK  5 active torsions:
REMARK  status: ('A' for Active; 'I' for Inactive)
REMARK    1  A    between atoms: C_2  and  C_4
REMARK    2  A    between atoms: C_4  and  S_5
REMARK    3  A    between atoms: S_5  and  C_7
REMARK    4  A    between atoms: C_7  and  C_8
REMARK    5  A    between atoms: C_7  and  C_14
REMARK                            x       y       z     vdW  Elec       q    Type
REMARK                         _______ _______ _______ _____ _____    ______ ____
ROOT
ATOM      1  C   UNL     1       3.828   5.395 -10.570  0.00  0.00    +0.124 C 
ENDROOT
BRANCH   1   2
ATOM      2  C   UNL     1       3.188   5.900 -11.792  0.00  0.00    -0.006 A 
ATOM      3  C   UNL     1       1.907   6.392 -11.867  0.00  0.00    -0.003 A 
ATOM      4  C   UNL     1       1.313   6.613 -13.103  0.00  0.00    -0.000 A 
ATOM      5  C   UNL     1       1.935   6.233 -14.267  0.00  0.00    -0.000 A 
ATOM      6  C   UNL     1       3.244   5.798 -14.217  0.00  0.00    -0.000 A 
ATOM      7  C   UNL     1       3.755   5.475 -12.989  0.00  0.00    -0.003 A 
ENDBRANCH   1   2
BRANCH   1   8
ATOM      8  C   UNL     1       5.024   6.140 -10.156  0.00  0.00    -0.006 A 
ATOM      9  C   UNL     1       5.223   7.371 -10.768  0.00  0.00    -0.003 A 
ATOM     10  C   UNL     1       6.483   7.825 -11.129  0.00  0.00    -0.000 A 
ATOM     11  C   UNL     1       7.589   7.138 -10.654  0.00  0.00    -0.000 A 
ATOM     12  C   UNL     1       7.375   6.124  -9.729  0.00  0.00    -0.000 A 
ATOM     13  C   UNL     1       6.104   5.610  -9.496  0.00  0.00    -0.003 A 
ENDBRANCH   1   8
BRANCH   1  14
ATOM     14  S   UNL     1       2.622   5.232  -9.204  0.00  0.00    +0.059 S 
ATOM     15  O   UNL     1       3.079   3.892  -8.562  0.00  0.00    -0.255 OA
BRANCH  14  16
ATOM     16  C   UNL     1       3.327   6.438  -8.008  0.00  0.00    +0.180 C 
BRANCH  16  18
ATOM     17  N   UNL     1       1.585   6.925  -6.656  0.00  0.00    -0.087 NA
ATOM     18  C   UNL     1       2.153   7.230  -7.519  0.00  0.00    +0.274 C 
ATOM     19  O   UNL     1       2.129   8.430  -7.934  0.00  0.00    -0.271 OA
ENDBRANCH  16  18
ENDBRANCH  14  16
ENDBRANCH   1  14
TORSDOF 5
ENDMDL
