MODEL 1
REMARK VINA RESULT:      -7.9      0.000      0.000
REMARK  Name = 
REMARK  7 active torsions:
REMARK  status: ('A' for Active; 'I' for Inactive)
REMARK    1  A    between atoms: O_2  and  N_3
REMARK    2  A    between atoms: C_4  and  C_5
REMARK    3  A    between atoms: C_4  and  C_28
REMARK    4  A    between atoms: N_7  and  CA_8
REMARK    5  A    between atoms: CA_12  and  C_13
REMARK    6  A    between atoms: C_16  and  C_17
REMARK    7  A    between atoms: C_18  and  C_19
REMARK                            x       y       z     vdW  Elec       q    Type
REMARK                         _______ _______ _______ _____ _____    ______ ____
ROOT
ATOM      1  CA  UNL     1       3.757   6.887  -9.289  0.00  0.00    +0.201 C 
ATOM      2  C   UNL     1       2.281   7.151  -8.519  0.00  0.00    +0.157 C 
ATOM      3  N   UNL     1       2.540   5.792  -7.898  0.00  0.00    -0.242 N 
ATOM      4  CA  UNL     1       1.493   5.386  -7.028  0.00  0.00    +0.132 C 
ATOM      5  C   UNL     1       0.203   5.582  -7.321  0.00  0.00    +0.009 C 
ATOM      6  C   UNL     1      -0.216   5.770  -8.750  0.00  0.00    +0.087 C 
ATOM      7  S   UNL     1       0.987   6.556  -9.783  0.00  0.00    -0.114 S 
ATOM      8  C   UNL     1       3.916   5.717  -8.192  0.00  0.00    +0.253 C 
ATOM      9  O   UNL     1       4.964   5.645  -7.484  0.00  0.00    -0.273 OA
ENDROOT
BRANCH   1  11
ATOM     10  C   UNL     1       4.295   5.573 -11.333  0.00  0.00    +0.288 C 
ATOM     11  N   UNL     1       3.272   5.870 -10.402  0.00  0.00    -0.190 NA
ATOM     12  O   UNL     1       5.333   5.077 -10.816  0.00  0.00    -0.267 OA
BRANCH  10  14
ATOM     13  N   UNL     1       5.091   6.082 -13.503  0.00  0.00    -0.077 NA
ATOM     14  C   UNL     1       4.104   5.631 -12.789  0.00  0.00    +0.192 C 
BRANCH  14  15
ATOM     15  C   UNL     1       2.758   5.626 -13.388  0.00  0.00    +0.115 A 
ATOM     16  N   UNL     1       2.411   4.710 -14.326  0.00  0.00    -0.220 NA
ATOM     17  C   UNL     1       1.100   4.379 -14.213  0.00  0.00    +0.201 A 
ATOM     18  N   UNL     1       0.473   3.151 -14.604  0.00  0.00    -0.100 NA
ATOM     19  S   UNL     1       0.440   5.918 -13.833  0.00  0.00    -0.048 S 
ATOM     20  C   UNL     1       1.915   6.731 -13.491  0.00  0.00    +0.059 A 
ENDBRANCH  14  15
BRANCH  13  22
ATOM     21  C   UNL     1       6.877   6.941 -13.060  0.00  0.00    +0.288 C 
ATOM     22  O   UNL     1       6.244   6.555 -12.899  0.00  0.00    -0.373 OA
ENDBRANCH  13  22
ENDBRANCH  10  14
ENDBRANCH   1  11
BRANCH   4  23
ATOM     23  C   UNL     1       1.836   4.421  -5.969  0.00  0.00    +0.401 C 
ATOM     24  OXT UNL     1       2.596   4.807  -4.858  0.00  0.00    -0.239 OA
ATOM     25  O   UNL     1       2.081   3.236  -6.356  0.00  0.00    -0.239 OA
ENDBRANCH   4  23
BRANCH   5  26
ATOM     26  C   UNL     1      -0.865   4.813  -6.656  0.00  0.00    -0.001 C 
ATOM     27  C   UNL     1      -1.892   5.635  -6.403  0.00  0.00    +0.007 C 
BRANCH  27  28
ATOM     28  C   UNL     1      -1.562   6.380  -5.176  0.00  0.00    +0.044 A 
ATOM     29  C   UNL     1      -2.253   7.321  -4.486  0.00  0.00    +0.066 A 
ATOM     30  C   UNL     1      -3.047   8.355  -5.230  0.00  0.00    +0.053 C 
ATOM     31  N   UNL     1      -1.977   7.462  -3.222  0.00  0.00    -0.241 NA
ATOM     32  C   UNL     1      -1.250   6.558  -2.618  0.00  0.00    +0.134 A 
ATOM     33  S   UNL     1      -0.886   5.463  -3.887  0.00  0.00    -0.065 S 
ENDBRANCH  27  28
ENDBRANCH   5  26
TORSDOF 7
ENDMDL
MODEL 2
REMARK VINA RESULT:      -7.8      3.364      9.377
REMARK  Name = 
REMARK  7 active torsions:
REMARK  status: ('A' for Active; 'I' for Inactive)
REMARK    1  A    between atoms: O_2  and  N_3
REMARK    2  A    between atoms: C_4  and  C_5
REMARK    3  A    between atoms: C_4  and  C_28
REMARK    4  A    between atoms: N_7  and  CA_8
REMARK    5  A    between atoms: CA_12  and  C_13
REMARK    6  A    between atoms: C_16  and  C_17
REMARK    7  A    between atoms: C_18  and  C_19
REMARK                            x       y       z     vdW  Elec       q    Type
REMARK                         _______ _______ _______ _____ _____    ______ ____
ROOT
ATOM      1  CA  UNL     1       0.646   6.997  -5.835  0.00  0.00    +0.201 C 
ATOM      2  C   UNL     1       2.045   7.243  -6.740  0.00  0.00    +0.157 C 
ATOM      3  N   UNL     1       1.807   5.819  -7.205  0.00  0.00    -0.242 N 
ATOM      4  CA  UNL     1       2.804   5.372  -8.112  0.00  0.00    +0.132 C 
ATOM      5  C   UNL     1       4.101   5.648  -7.942  0.00  0.00    +0.009 C 
ATOM      6  C   UNL     1       4.616   5.994  -6.575  0.00  0.00    +0.087 C 
ATOM      7  S   UNL     1       3.457   6.829  -5.531  0.00  0.00    -0.114 S 
ATOM      8  C   UNL     1       0.461   5.717  -6.798  0.00  0.00    +0.253 C 
ATOM      9  O   UNL     1      -0.632   5.533  -7.411  0.00  0.00    -0.273 OA
ENDROOT
BRANCH   1  11
ATOM     10  C   UNL     1       0.328   5.881  -3.632  0.00  0.00    +0.288 C 
ATOM     11  N   UNL     1       1.260   6.116  -4.670  0.00  0.00    -0.190 NA
ATOM     12  O   UNL     1      -0.726   5.301  -4.009  0.00  0.00    -0.267 OA
BRANCH  10  14
ATOM     13  N   UNL     1      -0.306   6.601  -1.468  0.00  0.00    -0.077 NA
ATOM     14  C   UNL     1       0.633   6.095  -2.211  0.00  0.00    +0.192 C 
BRANCH  14  15
ATOM     15  C   UNL     1       2.021   6.177  -1.726  0.00  0.00    +0.115 A 
ATOM     16  N   UNL     1       2.498   5.297  -0.810  0.00  0.00    -0.220 NA
ATOM     17  C   UNL     1       3.812   5.040  -1.028  0.00  0.00    +0.201 A 
ATOM     18  N   UNL     1       4.540   3.856  -0.676  0.00  0.00    -0.100 NA
ATOM     19  S   UNL     1       4.348   6.607  -1.479  0.00  0.00    -0.048 S 
ATOM     20  C   UNL     1       2.804   7.329  -1.706  0.00  0.00    +0.059 A 
ENDBRANCH  14  15
BRANCH  13  22
ATOM     21  C   UNL     1      -2.189   7.273  -1.823  0.00  0.00    +0.288 C 
ATOM     22  O   UNL     1      -1.515   6.987  -2.022  0.00  0.00    -0.373 OA
ENDBRANCH  13  22
ENDBRANCH  10  14
ENDBRANCH   1  11
BRANCH   4  23
ATOM     23  C   UNL     1       2.431   4.293  -9.044  0.00  0.00    +0.401 C 
ATOM     24  OXT UNL     1       1.423   4.478  -9.997  0.00  0.00    -0.239 OA
ATOM     25  O   UNL     1       2.459   3.115  -8.568  0.00  0.00    -0.239 OA
ENDBRANCH   4  23
BRANCH   5  26
ATOM     26  C   UNL     1       5.153   4.860  -8.612  0.00  0.00    -0.001 C 
ATOM     27  C   UNL     1       6.092   5.699  -9.070  0.00  0.00    +0.007 C 
BRANCH  27  28
ATOM     28  C   UNL     1       5.596   6.257 -10.340  0.00  0.00    +0.044 A 
ATOM     29  C   UNL     1       6.181   7.078 -11.247  0.00  0.00    +0.066 A 
ATOM     30  C   UNL     1       7.057   8.203 -10.775  0.00  0.00    +0.053 C 
ATOM     31  N   UNL     1       5.740   7.033 -12.470  0.00  0.00    -0.241 NA
ATOM     32  C   UNL     1       4.948   6.056 -12.832  0.00  0.00    +0.134 A 
ATOM     33  S   UNL     1       4.765   5.166 -11.377  0.00  0.00    -0.065 S 
ENDBRANCH  27  28
ENDBRANCH   5  26
TORSDOF 7
ENDMDL
MODEL 3
REMARK VINA RESULT:      -7.6      3.012      4.394
REMARK  Name = 
REMARK  7 active torsions:
REMARK  status: ('A' for Active; 'I' for Inactive)
REMARK    1  A    between atoms: O_2  and  N_3
REMARK    2  A    between atoms: C_4  and  C_5
REMARK    3  A    between atoms: C_4  and  C_28
REMARK    4  A    between atoms: N_7  and  CA_8
REMARK    5  A    between atoms: CA_12  and  C_13
REMARK    6  A    between atoms: C_16  and  C_17
REMARK    7  A    between atoms: C_18  and  C_19
REMARK                            x       y       z     vdW  Elec       q    Type
REMARK                         _______ _______ _______ _____ _____    ______ ____
ROOT
ATOM      1  CA  UNL     1       1.212   5.153 -10.867  0.00  0.00    +0.201 C 
ATOM      2  C   UNL     1       1.831   4.649  -9.383  0.00  0.00    +0.157 C 
ATOM      3  N   UNL     1       1.894   6.135  -9.082  0.00  0.00    -0.242 N 
ATOM      4  CA  UNL     1       2.420   6.403  -7.790  0.00  0.00    +0.132 C 
ATOM      5  C   UNL     1       3.460   5.732  -7.288  0.00  0.00    +0.009 C 
ATOM      6  C   UNL     1       4.416   5.036  -8.213  0.00  0.00    +0.087 C 
ATOM      7  S   UNL     1       3.694   4.428  -9.711  0.00  0.00    -0.114 S 
ATOM      8  C   UNL     1       1.032   6.565 -10.111  0.00  0.00    +0.253 C 
ATOM      9  O   UNL     1      -0.086   7.160 -10.129  0.00  0.00    -0.273 OA
ENDROOT
BRANCH   1  11
ATOM     10  C   UNL     1       2.378   5.976 -12.906  0.00  0.00    +0.288 C 
ATOM     11  N   UNL     1       2.563   5.616 -11.551  0.00  0.00    -0.190 NA
ATOM     12  O   UNL     1       1.545   6.907 -13.082  0.00  0.00    -0.267 OA
BRANCH  10  14
ATOM     13  N   UNL     1       2.821   4.401 -14.617  0.00  0.00    -0.077 NA
ATOM     14  C   UNL     1       3.221   5.471 -13.999  0.00  0.00    +0.192 C 
BRANCH  14  15
ATOM     15  C   UNL     1       4.641   5.849 -14.110  0.00  0.00    +0.115 A 
ATOM     16  N   UNL     1       5.482   5.740 -13.052  0.00  0.00    -0.220 NA
ATOM     17  C   UNL     1       6.733   5.412 -13.462  0.00  0.00    +0.201 A 
ATOM     18  N   UNL     1       7.741   4.715 -12.719  0.00  0.00    -0.100 NA
ATOM     19  S   UNL     1       6.829   6.356 -14.893  0.00  0.00    -0.048 S 
ATOM     20  C   UNL     1       5.164   6.766 -15.020  0.00  0.00    +0.059 A 
ENDBRANCH  14  15
BRANCH  13  22
ATOM     21  C   UNL     1       0.950   3.650 -14.381  0.00  0.00    +0.288 C 
ATOM     22  O   UNL     1       1.683   3.729 -14.204  0.00  0.00    -0.373 OA
ENDBRANCH  13  22
ENDBRANCH  10  14
ENDBRANCH   1  11
BRANCH   4  23
ATOM     23  C   UNL     1       2.034   7.678  -7.159  0.00  0.00    +0.401 C 
ATOM     24  OXT UNL     1       0.920   7.758  -6.315  0.00  0.00    -0.239 OA
ATOM     25  O   UNL     1       2.202   8.720  -7.867  0.00  0.00    -0.239 OA
ENDBRANCH   4  23
BRANCH   5  26
ATOM     26  C   UNL     1       4.259   6.267  -6.169  0.00  0.00    -0.001 C 
ATOM     27  C   UNL     1       4.131   5.445  -5.119  0.00  0.00    +0.007 C 
BRANCH  27  28
ATOM     28  C   UNL     1       2.853   5.771  -4.462  0.00  0.00    +0.044 A 
ATOM     29  C   UNL     1       1.693   5.075  -4.362  0.00  0.00    +0.066 A 
ATOM     30  C   UNL     1       1.204   4.274  -5.535  0.00  0.00    +0.053 C 
ATOM     31  N   UNL     1       0.912   5.350  -3.359  0.00  0.00    -0.241 NA
ATOM     32  C   UNL     1       1.364   6.083  -2.374  0.00  0.00    +0.134 A 
ATOM     33  S   UNL     1       2.959   6.452  -2.887  0.00  0.00    -0.065 S 
ENDBRANCH  27  28
ENDBRANCH   5  26
TORSDOF 7
ENDMDL
MODEL 4
REMARK VINA RESULT:      -7.6      3.208      4.704
REMARK  Name = 
REMARK  7 active torsions:
REMARK  status: ('A' for Active; 'I' for Inactive)
REMARK    1  A    between atoms: O_2  and  N_3
REMARK    2  A    between atoms: C_4  and  C_5
REMARK    3  A    between atoms: C_4  and  C_28
REMARK    4  A    between atoms: N_7  and  CA_8
REMARK    5  A    between atoms: CA_12  and  C_13
REMARK    6  A    between atoms: C_16  and  C_17
REMARK    7  A    between atoms: C_18  and  C_19
REMARK                            x       y       z     vdW  Elec       q    Type
REMARK                         _______ _______ _______ _____ _____    ______ ____
ROOT
ATOM      1  CA  UNL     1       1.826   4.418  -8.931  0.00  0.00    +0.201 C 
ATOM      2  C   UNL     1       2.505   4.385  -7.389  0.00  0.00    +0.157 C 
ATOM      3  N   UNL     1       1.594   5.570  -7.133  0.00  0.00    -0.242 N 
ATOM      4  CA  UNL     1       1.729   6.081  -5.814  0.00  0.00    +0.132 C 
ATOM      5  C   UNL     1       2.917   6.205  -5.213  0.00  0.00    +0.009 C 
ATOM      6  C   UNL     1       4.166   6.289  -6.042  0.00  0.00    +0.087 C 
ATOM      7  S   UNL     1       4.109   5.395  -7.568  0.00  0.00    -0.114 S 
ATOM      8  C   UNL     1       0.738   5.383  -8.236  0.00  0.00    +0.253 C 
ATOM      9  O   UNL     1      -0.500   5.139  -8.358  0.00  0.00    -0.273 OA
ENDROOT
BRANCH   1  11
ATOM     10  C   UNL     1       2.277   5.913 -10.868  0.00  0.00    +0.288 C 
ATOM     11  N   UNL     1       2.632   5.644  -9.526  0.00  0.00    -0.190 NA
ATOM     12  O   UNL     1       1.053   6.168 -11.035  0.00  0.00    -0.267 OA
BRANCH  10  14
ATOM     13  N   UNL     1       2.929   5.684 -13.133  0.00  0.00    -0.077 NA
ATOM     14  C   UNL     1       3.262   6.092 -11.944  0.00  0.00    +0.192 C 
BRANCH  14  15
ATOM     15  C   UNL     1       4.692   6.287 -11.652  0.00  0.00    +0.115 A 
ATOM     16  N   UNL     1       5.554   5.241 -11.634  0.00  0.00    -0.220 NA
ATOM     17  C   UNL     1       6.780   5.619 -12.077  0.00  0.00    +0.201 A 
ATOM     18  N   UNL     1       7.777   4.797 -12.696  0.00  0.00    -0.100 NA
ATOM     19  S   UNL     1       6.879   7.180 -11.368  0.00  0.00    -0.048 S 
ATOM     20  C   UNL     1       5.229   7.337 -10.909  0.00  0.00    +0.059 A 
ENDBRANCH  14  15
BRANCH  13  22
ATOM     21  C   UNL     1       1.344   4.663 -13.886  0.00  0.00    +0.288 C 
ATOM     22  O   UNL     1       1.722   5.042 -13.348  0.00  0.00    -0.373 OA
ENDBRANCH  13  22
ENDBRANCH  10  14
ENDBRANCH   1  11
BRANCH   4  23
ATOM     23  C   UNL     1       0.578   6.812  -5.256  0.00  0.00    +0.401 C 
ATOM     24  OXT UNL     1      -0.575   6.136  -4.841  0.00  0.00    -0.239 OA
ATOM     25  O   UNL     1       0.333   7.944  -5.779  0.00  0.00    -0.239 OA
ENDBRANCH   4  23
BRANCH   5  26
ATOM     26  C   UNL     1       3.108   7.099  -4.056  0.00  0.00    -0.001 C 
ATOM     27  C   UNL     1       3.816   6.449  -3.124  0.00  0.00    +0.007 C 
BRANCH  27  28
ATOM     28  C   UNL     1       2.880   5.578  -2.392  0.00  0.00    +0.044 A 
ATOM     29  C   UNL     1       3.062   4.764  -1.323  0.00  0.00    +0.066 A 
ATOM     30  C   UNL     1       4.330   3.969  -1.201  0.00  0.00    +0.053 C 
ATOM     31  N   UNL     1       2.021   4.491  -0.591  0.00  0.00    -0.241 NA
ATOM     32  C   UNL     1       0.922   5.183  -0.753  0.00  0.00    +0.134 A 
ATOM     33  S   UNL     1       1.340   6.251  -2.030  0.00  0.00    -0.065 S 
ENDBRANCH  27  28
ENDBRANCH   5  26
TORSDOF 7
ENDMDL
MODEL 5
REMARK VINA RESULT:      -7.5      2.855      8.894
REMARK  Name = 
REMARK  7 active torsions:
REMARK  status: ('A' for Active; 'I' for Inactive)
REMARK    1  A    between atoms: O_2  and  N_3
REMARK    2  A    between atoms: C_4  and  C_5
REMARK    3  A    between atoms: C_4  and  C_28
REMARK    4  A    between atoms: N_7  and  CA_8
REMARK    5  A    between atoms: CA_12  and  C_13
REMARK    6  A    between atoms: C_16  and  C_17
REMARK    7  A    between atoms: C_18  and  C_19
REMARK                            x       y       z     vdW  Elec       q    Type
REMARK                         _______ _______ _______ _____ _____    ______ ____
ROOT
ATOM      1  CA  UNL     1       3.630   5.906  -4.084  0.00  0.00    +0.201 C 
ATOM      2  C   UNL     1       3.065   5.067  -5.431  0.00  0.00    +0.157 C 
ATOM      3  N   UNL     1       2.820   6.453  -5.996  0.00  0.00    -0.242 N 
ATOM      4  CA  UNL     1       2.256   6.415  -7.300  0.00  0.00    +0.132 C 
ATOM      5  C   UNL     1       1.300   5.544  -7.640  0.00  0.00    +0.009 C 
ATOM      6  C   UNL     1       0.443   4.924  -6.574  0.00  0.00    +0.087 C 
ATOM      7  S   UNL     1       1.245   4.693  -5.014  0.00  0.00    -0.114 S 
ATOM      8  C   UNL     1       3.632   7.165  -5.090  0.00  0.00    +0.253 C 
ATOM      9  O   UNL     1       4.670   7.880  -5.214  0.00  0.00    -0.273 OA
ENDROOT
BRANCH   1  11
ATOM     10  C   UNL     1       2.344   6.624  -2.077  0.00  0.00    +0.288 C 
ATOM     11  N   UNL     1       2.237   6.325  -3.455  0.00  0.00    -0.190 NA
ATOM     12  O   UNL     1       3.155   7.554  -1.814  0.00  0.00    -0.267 OA
BRANCH  10  14
ATOM     13  N   UNL     1       1.857   5.009  -0.417  0.00  0.00    -0.077 NA
ATOM     14  C   UNL     1       1.448   6.063  -1.057  0.00  0.00    +0.192 C 
BRANCH  14  15
ATOM     15  C   UNL     1       0.006   6.362  -1.054  0.00  0.00    +0.115 A 
ATOM     16  N   UNL     1      -0.766   6.114  -2.142  0.00  0.00    -0.220 NA
ATOM     17  C   UNL     1      -2.018   5.746  -1.771  0.00  0.00    +0.201 A 
ATOM     18  N   UNL     1      -2.941   4.929  -2.503  0.00  0.00    -0.100 NA
ATOM     19  S   UNL     1      -2.249   6.799  -0.435  0.00  0.00    -0.048 S 
ATOM     20  C   UNL     1      -0.620   7.318  -0.256  0.00  0.00    +0.059 A 
ENDBRANCH  14  15
BRANCH  13  22
ATOM     21  C   UNL     1       3.339   3.741  -0.981  0.00  0.00    +0.288 C 
ATOM     22  O   UNL     1       3.059   4.405  -0.744  0.00  0.00    -0.373 OA
ENDBRANCH  13  22
ENDBRANCH  10  14
ENDBRANCH   1  11
BRANCH   4  23
ATOM     23  C   UNL     1       2.480   7.587  -8.164  0.00  0.00    +0.401 C 
ATOM     24  OXT UNL     1       3.656   7.720  -8.911  0.00  0.00    -0.239 OA
ATOM     25  O   UNL     1       2.041   8.694  -7.721  0.00  0.00    -0.239 OA
ENDBRANCH   4  23
BRANCH   5  26
ATOM     26  C   UNL     1       0.435   5.766  -8.813  0.00  0.00    -0.001 C 
ATOM     27  C   UNL     1       0.766   4.883  -9.764  0.00  0.00    +0.007 C 
BRANCH  27  28
ATOM     28  C   UNL     1       1.959   5.407 -10.451  0.00  0.00    +0.044 A 
ATOM     29  C   UNL     1       3.224   4.926 -10.545  0.00  0.00    +0.066 A 
ATOM     30  C   UNL     1       3.859   4.267  -9.354  0.00  0.00    +0.053 C 
ATOM     31  N   UNL     1       3.934   5.300 -11.569  0.00  0.00    -0.241 NA
ATOM     32  C   UNL     1       3.349   5.905 -12.571  0.00  0.00    +0.134 A 
ATOM     33  S   UNL     1       1.719   6.003 -12.046  0.00  0.00    -0.065 S 
ENDBRANCH  27  28
ENDBRANCH   5  26
TORSDOF 7
ENDMDL
MODEL 6
REMARK VINA RESULT:      -7.3      1.802      2.994
REMARK  Name = 
REMARK  7 active torsions:
REMARK  status: ('A' for Active; 'I' for Inactive)
REMARK    1  A    between atoms: O_2  and  N_3
REMARK    2  A    between atoms: C_4  and  C_5
REMARK    3  A    between atoms: C_4  and  C_28
REMARK    4  A    between atoms: N_7  and  CA_8
REMARK    5  A    between atoms: CA_12  and  C_13
REMARK    6  A    between atoms: C_16  and  C_17
REMARK    7  A    between atoms: C_18  and  C_19
REMARK                            x       y       z     vdW  Elec       q    Type
REMARK                         _______ _______ _______ _____ _____    ______ ____
ROOT
ATOM      1  CA  UNL     1       3.387   7.033  -8.631  0.00  0.00    +0.201 C 
ATOM      2  C   UNL     1       1.864   7.305  -7.964  0.00  0.00    +0.157 C 
ATOM      3  N   UNL     1       2.008   5.885  -7.451  0.00  0.00    -0.242 N 
ATOM      4  CA  UNL     1       0.873   5.460  -6.709  0.00  0.00    +0.132 C 
ATOM      5  C   UNL     1      -0.377   5.746  -7.088  0.00  0.00    +0.009 C 
ATOM      6  C   UNL     1      -0.663   6.080  -8.523  0.00  0.00    +0.087 C 
ATOM      7  S   UNL     1       0.658   6.890  -9.378  0.00  0.00    -0.114 S 
ATOM      8  C   UNL     1       3.399   5.765  -7.637  0.00  0.00    +0.253 C 
ATOM      9  O   UNL     1       4.378   5.577  -6.855  0.00  0.00    -0.273 OA
ENDROOT
BRANCH   1  11
ATOM     10  C   UNL     1       4.049   5.842 -10.714  0.00  0.00    +0.288 C 
ATOM     11  N   UNL     1       2.956   6.144  -9.869  0.00  0.00    -0.190 NA
ATOM     12  O   UNL     1       4.991   5.232 -10.139  0.00  0.00    -0.267 OA
BRANCH  10  14
ATOM     13  N   UNL     1       2.926   5.691 -12.793  0.00  0.00    -0.077 NA
ATOM     14  C   UNL     1       4.017   6.026 -12.171  0.00  0.00    +0.192 C 
BRANCH  14  15
ATOM     15  C   UNL     1       5.257   6.141 -12.958  0.00  0.00    +0.115 A 
ATOM     16  N   UNL     1       6.375   6.699 -12.430  0.00  0.00    -0.220 NA
ATOM     17  C   UNL     1       7.489   6.099 -12.919  0.00  0.00    +0.201 A 
ATOM     18  N   UNL     1       8.773   5.996 -12.290  0.00  0.00    -0.100 NA
ATOM     19  S   UNL     1       7.004   5.862 -14.549  0.00  0.00    -0.048 S 
ATOM     20  C   UNL     1       5.330   6.198 -14.349  0.00  0.00    +0.059 A 
ENDBRANCH  14  15
BRANCH  13  22
ATOM     21  C   UNL     1       1.189   4.804 -12.228  0.00  0.00    +0.288 C 
ATOM     22  O   UNL     1       1.870   5.116 -12.107  0.00  0.00    -0.373 OA
ENDBRANCH  13  22
ENDBRANCH  10  14
ENDBRANCH   1  11
BRANCH   4  23
ATOM     23  C   UNL     1       1.080   4.389  -5.719  0.00  0.00    +0.401 C 
ATOM     24  OXT UNL     1       1.327   4.687  -4.373  0.00  0.00    -0.239 OA
ATOM     25  O   UNL     1       1.715   3.368  -6.129  0.00  0.00    -0.239 OA
ENDBRANCH   4  23
BRANCH   5  26
ATOM     26  C   UNL     1      -1.532   4.978  -6.586  0.00  0.00    -0.001 C 
ATOM     27  C   UNL     1      -2.431   5.834  -6.083  0.00  0.00    +0.007 C 
BRANCH  27  28
ATOM     28  C   UNL     1      -1.983   6.190  -4.726  0.00  0.00    +0.044 A 
ATOM     29  C   UNL     1      -2.033   7.361  -4.043  0.00  0.00    +0.066 A 
ATOM     30  C   UNL     1      -1.780   8.654  -4.765  0.00  0.00    +0.053 C 
ATOM     31  N   UNL     1      -2.023   7.300  -2.743  0.00  0.00    -0.241 NA
ATOM     32  C   UNL     1      -2.210   6.147  -2.153  0.00  0.00    +0.134 A 
ATOM     33  S   UNL     1      -2.369   5.071  -3.479  0.00  0.00    -0.065 S 
ENDBRANCH  27  28
ENDBRANCH   5  26
TORSDOF 7
ENDMDL
MODEL 7
REMARK VINA RESULT:      -7.2      1.737      2.715
REMARK  Name = 
REMARK  7 active torsions:
REMARK  status: ('A' for Active; 'I' for Inactive)
REMARK    1  A    between atoms: O_2  and  N_3
REMARK    2  A    between atoms: C_4  and  C_5
REMARK    3  A    between atoms: C_4  and  C_28
REMARK    4  A    between atoms: N_7  and  CA_8
REMARK    5  A    between atoms: CA_12  and  C_13
REMARK    6  A    between atoms: C_16  and  C_17
REMARK    7  A    between atoms: C_18  and  C_19
REMARK                            x       y       z     vdW  Elec       q    Type
REMARK                         _______ _______ _______ _____ _____    ______ ____
ROOT
ATOM      1  CA  UNL     1       3.676   6.990  -9.430  0.00  0.00    +0.201 C 
ATOM      2  C   UNL     1       2.280   7.228  -8.517  0.00  0.00    +0.157 C 
ATOM      3  N   UNL     1       2.536   5.810  -8.044  0.00  0.00    -0.242 N 
ATOM      4  CA  UNL     1       1.549   5.359  -7.127  0.00  0.00    +0.132 C 
ATOM      5  C   UNL     1       0.249   5.621  -7.290  0.00  0.00    +0.009 C 
ATOM      6  C   UNL     1      -0.279   5.953  -8.656  0.00  0.00    +0.087 C 
ATOM      7  S   UNL     1       0.865   6.792  -9.713  0.00  0.00    -0.114 S 
ATOM      8  C   UNL     1       3.880   5.719  -8.460  0.00  0.00    +0.253 C 
ATOM      9  O   UNL     1       4.979   5.550  -7.853  0.00  0.00    -0.273 OA
ENDROOT
BRANCH   1  11
ATOM     10  C   UNL     1       4.017   5.784 -11.581  0.00  0.00    +0.288 C 
ATOM     11  N   UNL     1       3.063   6.095 -10.584  0.00  0.00    -0.190 NA
ATOM     12  O   UNL     1       5.033   5.173 -11.149  0.00  0.00    -0.267 OA
BRANCH  10  14
ATOM     13  N   UNL     1       2.633   5.536 -13.485  0.00  0.00    -0.077 NA
ATOM     14  C   UNL     1       3.770   5.960 -13.019  0.00  0.00    +0.192 C 
BRANCH  14  15
ATOM     15  C   UNL     1       4.875   6.170 -13.968  0.00  0.00    +0.115 A 
ATOM     16  N   UNL     1       4.659   6.726 -15.187  0.00  0.00    -0.220 NA
ATOM     17  C   UNL     1       5.722   7.477 -15.569  0.00  0.00    +0.201 A 
ATOM     18  N   UNL     1       5.723   8.599 -16.462  0.00  0.00    -0.100 NA
ATOM     19  S   UNL     1       7.002   6.493 -14.985  0.00  0.00    -0.048 S 
ATOM     20  C   UNL     1       6.062   5.441 -14.002  0.00  0.00    +0.059 A 
ENDBRANCH  14  15
BRANCH  13  22
ATOM     21  C   UNL     1       1.042   4.565 -12.681  0.00  0.00    +0.288 C 
ATOM     22  O   UNL     1       1.731   4.881 -12.664  0.00  0.00    -0.373 OA
ENDBRANCH  13  22
ENDBRANCH  10  14
ENDBRANCH   1  11
BRANCH   4  23
ATOM     23  C   UNL     1       1.940   4.291  -6.191  0.00  0.00    +0.401 C 
ATOM     24  OXT UNL     1       2.698   4.572  -5.048  0.00  0.00    -0.239 OA
ATOM     25  O   UNL     1       2.225   3.170  -6.716  0.00  0.00    -0.239 OA
ENDBRANCH   4  23
BRANCH   5  26
ATOM     26  C   UNL     1      -0.791   4.827  -6.608  0.00  0.00    -0.001 C 
ATOM     27  C   UNL     1      -1.831   5.627  -6.335  0.00  0.00    +0.007 C 
BRANCH  27  28
ATOM     28  C   UNL     1      -1.495   6.377  -5.112  0.00  0.00    +0.044 A 
ATOM     29  C   UNL     1      -2.191   7.305  -4.410  0.00  0.00    +0.066 A 
ATOM     30  C   UNL     1      -3.016   8.325  -5.141  0.00  0.00    +0.053 C 
ATOM     31  N   UNL     1      -1.898   7.450  -3.151  0.00  0.00    -0.241 NA
ATOM     32  C   UNL     1      -1.145   6.559  -2.559  0.00  0.00    +0.134 A 
ATOM     33  S   UNL     1      -0.782   5.472  -3.836  0.00  0.00    -0.065 S 
ENDBRANCH  27  28
ENDBRANCH   5  26
TORSDOF 7
ENDMDL
MODEL 8
REMARK VINA RESULT:      -6.7      3.119      9.217
REMARK  Name = 
REMARK  7 active torsions:
REMARK  status: ('A' for Active; 'I' for Inactive)
REMARK    1  A    between atoms: O_2  and  N_3
REMARK    2  A    between atoms: C_4  and  C_5
REMARK    3  A    between atoms: C_4  and  C_28
REMARK    4  A    between atoms: N_7  and  CA_8
REMARK    5  A    between atoms: CA_12  and  C_13
REMARK    6  A    between atoms: C_16  and  C_17
REMARK    7  A    between atoms: C_18  and  C_19
REMARK                            x       y       z     vdW  Elec       q    Type
REMARK                         _______ _______ _______ _____ _____    ______ ____
ROOT
ATOM      1  CA  UNL     1       0.869   7.107  -6.055  0.00  0.00    +0.201 C 
ATOM      2  C   UNL     1       2.199   7.328  -7.066  0.00  0.00    +0.157 C 
ATOM      3  N   UNL     1       1.988   5.864  -7.402  0.00  0.00    -0.242 N 
ATOM      4  CA  UNL     1       2.944   5.380  -8.335  0.00  0.00    +0.132 C 
ATOM      5  C   UNL     1       4.237   5.713  -8.272  0.00  0.00    +0.009 C 
ATOM      6  C   UNL     1       4.822   6.186  -6.973  0.00  0.00    +0.087 C 
ATOM      7  S   UNL     1       3.698   7.061  -5.924  0.00  0.00    -0.114 S 
ATOM      8  C   UNL     1       0.676   5.750  -6.902  0.00  0.00    +0.253 C 
ATOM      9  O   UNL     1      -0.445   5.480  -7.426  0.00  0.00    -0.273 OA
ENDROOT
BRANCH   1  11
ATOM     10  C   UNL     1       0.679   5.950  -3.860  0.00  0.00    +0.288 C 
ATOM     11  N   UNL     1       1.589   6.344  -4.868  0.00  0.00    -0.190 NA
ATOM     12  O   UNL     1      -0.245   5.195  -4.268  0.00  0.00    -0.267 OA
BRANCH  10  14
ATOM     13  N   UNL     1       2.012   5.797  -1.909  0.00  0.00    -0.077 NA
ATOM     14  C   UNL     1       0.896   6.210  -2.430  0.00  0.00    +0.192 C 
BRANCH  14  15
ATOM     15  C   UNL     1      -0.228   6.499  -1.523  0.00  0.00    +0.115 A 
ATOM     16  N   UNL     1      -1.330   7.160  -1.959  0.00  0.00    -0.220 NA
ATOM     17  C   UNL     1      -2.442   6.713  -1.322  0.00  0.00    +0.201 A 
ATOM     18  N   UNL     1      -3.791   6.733  -1.805  0.00  0.00    -0.100 NA
ATOM     19  S   UNL     1      -1.807   6.489   0.257  0.00  0.00    -0.048 S 
ATOM     20  C   UNL     1      -0.138   6.621  -0.138  0.00  0.00    +0.059 A 
ENDBRANCH  14  15
BRANCH  13  22
ATOM     21  C   UNL     1       3.638   4.830  -2.647  0.00  0.00    +0.288 C 
ATOM     22  O   UNL     1       2.921   5.075  -2.665  0.00  0.00    -0.373 OA
ENDBRANCH  13  22
ENDBRANCH  10  14
ENDBRANCH   1  11
BRANCH   4  23
ATOM     23  C   UNL     1       2.556   4.218  -9.153  0.00  0.00    +0.401 C 
ATOM     24  OXT UNL     1       1.544   4.317 -10.116  0.00  0.00    -0.239 OA
ATOM     25  O   UNL     1       2.577   3.093  -8.564  0.00  0.00    -0.239 OA
ENDBRANCH   4  23
BRANCH   5  26
ATOM     26  C   UNL     1       5.276   4.911  -8.945  0.00  0.00    -0.001 C 
ATOM     27  C   UNL     1       6.174   5.742  -9.490  0.00  0.00    +0.007 C 
BRANCH  27  28
ATOM     28  C   UNL     1       5.611   6.221 -10.764  0.00  0.00    +0.044 A 
ATOM     29  C   UNL     1       6.066   7.132 -11.659  0.00  0.00    +0.066 A 
ATOM     30  C   UNL     1       6.741   8.382 -11.170  0.00  0.00    +0.053 C 
ATOM     31  N   UNL     1       5.654   7.024 -12.889  0.00  0.00    -0.241 NA
ATOM     32  C   UNL     1       5.037   5.934 -13.266  0.00  0.00    +0.134 A 
ATOM     33  S   UNL     1       4.983   5.016 -11.818  0.00  0.00    -0.065 S 
ENDBRANCH  27  28
ENDBRANCH   5  26
TORSDOF 7
ENDMDL
MODEL 9
REMARK VINA RESULT:      -6.6      2.180      8.353
REMARK  Name = 
REMARK  7 active torsions:
REMARK  status: ('A' for Active; 'I' for Inactive)
REMARK    1  A    between atoms: O_2  and  N_3
REMARK    2  A    between atoms: C_4  and  C_5
REMARK    3  A    between atoms: C_4  and  C_28
REMARK    4  A    between atoms: N_7  and  CA_8
REMARK    5  A    between atoms: CA_12  and  C_13
REMARK    6  A    between atoms: C_16  and  C_17
REMARK    7  A    between atoms: C_18  and  C_19
REMARK                            x       y       z     vdW  Elec       q    Type
REMARK                         _______ _______ _______ _____ _____    ______ ____
ROOT
ATOM      1  CA  UNL     1       2.555   4.377  -5.834  0.00  0.00    +0.201 C 
ATOM      2  C   UNL     1       1.905   4.216  -7.380  0.00  0.00    +0.157 C 
ATOM      3  N   UNL     1       2.535   5.576  -7.616  0.00  0.00    -0.242 N 
ATOM      4  CA  UNL     1       2.296   6.063  -8.930  0.00  0.00    +0.132 C 
ATOM      5  C   UNL     1       1.113   5.931  -9.536  0.00  0.00    +0.009 C 
ATOM      6  C   UNL     1      -0.128   5.728  -8.715  0.00  0.00    +0.087 C 
ATOM      7  S   UNL     1       0.118   4.848  -7.199  0.00  0.00    -0.114 S 
ATOM      8  C   UNL     1       3.408   5.566  -6.510  0.00  0.00    +0.253 C 
ATOM      9  O   UNL     1       4.668   5.598  -6.383  0.00  0.00    -0.273 OA
ENDROOT
BRANCH   1  11
ATOM     10  C   UNL     1       1.863   5.830  -3.936  0.00  0.00    +0.288 C 
ATOM     11  N   UNL     1       1.497   5.388  -5.229  0.00  0.00    -0.190 NA
ATOM     12  O   UNL     1       2.984   6.404  -3.886  0.00  0.00    -0.267 OA
BRANCH  10  14
ATOM     13  N   UNL     1       1.391   5.331  -1.670  0.00  0.00    -0.077 NA
ATOM     14  C   UNL     1       0.944   5.818  -2.789  0.00  0.00    +0.192 C 
BRANCH  14  15
ATOM     15  C   UNL     1      -0.514   5.912  -2.972  0.00  0.00    +0.115 A 
ATOM     16  N   UNL     1      -1.068   6.922  -3.687  0.00  0.00    -0.220 NA
ATOM     17  C   UNL     1      -2.178   6.497  -4.342  0.00  0.00    +0.201 A 
ATOM     18  N   UNL     1      -2.736   7.027  -5.552  0.00  0.00    -0.100 NA
ATOM     19  S   UNL     1      -2.843   5.458  -3.148  0.00  0.00    -0.048 S 
ATOM     20  C   UNL     1      -1.473   5.380  -2.112  0.00  0.00    +0.059 A 
ENDBRANCH  14  15
BRANCH  13  22
ATOM     21  C   UNL     1       3.126   4.443  -1.101  0.00  0.00    +0.288 C 
ATOM     22  O   UNL     1       2.659   4.780  -1.595  0.00  0.00    -0.373 OA
ENDBRANCH  13  22
ENDBRANCH  10  14
ENDBRANCH   1  11
BRANCH   4  23
ATOM     23  C   UNL     1       3.261   7.035  -9.471  0.00  0.00    +0.401 C 
ATOM     24  OXT UNL     1       4.586   6.669  -9.737  0.00  0.00    -0.239 OA
ATOM     25  O   UNL     1       3.148   8.226  -9.042  0.00  0.00    -0.239 OA
ENDBRANCH   4  23
BRANCH   5  26
ATOM     26  C   UNL     1       0.735   6.777 -10.684  0.00  0.00    -0.001 C 
ATOM     27  C   UNL     1       0.164   6.004 -11.618  0.00  0.00    +0.007 C 
BRANCH  27  28
ATOM     28  C   UNL     1       1.251   5.346 -12.364  0.00  0.00    +0.044 A 
ATOM     29  C   UNL     1       1.240   4.620 -13.509  0.00  0.00    +0.066 A 
ATOM     30  C   UNL     1       0.109   3.669 -13.776  0.00  0.00    +0.053 C 
ATOM     31  N   UNL     1       2.344   4.567 -14.197  0.00  0.00    -0.241 NA
ATOM     32  C   UNL     1       3.321   5.388 -13.909  0.00  0.00    +0.134 A 
ATOM     33  S   UNL     1       2.692   6.261 -12.572  0.00  0.00    -0.065 S 
ENDBRANCH  27  28
ENDBRANCH   5  26
TORSDOF 7
ENDMDL
