MODEL 1
REMARK VINA RESULT:      -4.6      0.000      0.000
REMARK  Name = 
REMARK  5 active torsions:
REMARK  status: ('A' for Active; 'I' for Inactive)
REMARK    1  A    between atoms: C_2  and  C_4
REMARK    2  A    between atoms: C_4  and  C_5
REMARK    3  A    between atoms: C_5  and  C_6
REMARK    4  A    between atoms: C_5  and  C_8
REMARK    5  A    between atoms: C_8  and  C_9
REMARK                            x       y       z     vdW  Elec       q    Type
REMARK                         _______ _______ _______ _____ _____    ______ ____
ROOT
ATOM      1  C   UNL     1       0.326   5.560  -6.206  0.00  0.00    +0.030 C 
ENDROOT
BRANCH   1   2
ATOM      2  C   UNL     1       1.467   4.612  -5.467  0.00  0.00    +0.110 C 
ATOM      3  N   UNL     1       1.957   3.723  -6.476  0.00  0.00    -0.131 NA
ENDBRANCH   1   2
BRANCH   1   4
ATOM      4  C   UNL     1      -0.430   5.880  -4.762  0.00  0.00    +0.002 C 
BRANCH   4   6
ATOM      5  C   UNL     1      -2.029   5.476  -6.577  0.00  0.00    +0.000 C 
ATOM      6  C   UNL     1      -1.856   5.962  -5.231  0.00  0.00    +0.000 C 
ATOM      7  C   UNL     1      -2.482   7.311  -5.094  0.00  0.00    +0.000 C 
ENDBRANCH   4   6
ENDBRANCH   1   4
BRANCH   1   8
ATOM      8  C   UNL     1       1.314   6.884  -6.192  0.00  0.00    +0.116 C 
BRANCH   8   9
ATOM      9  C   UNL     1       1.744   7.223  -7.509  0.00  0.00    +0.365 C 
ATOM     10  O   UNL     1       1.206   6.481  -8.569  0.00  0.00    -0.246 OA
ATOM     11  O   UNL     1       2.149   8.367  -7.879  0.00  0.00    -0.246 OA
ENDBRANCH   8   9
ENDBRANCH   1   8
TORSDOF 5
ENDMDL
MODEL 2
REMARK VINA RESULT:      -4.5      5.508      7.847
REMARK  Name = 
REMARK  5 active torsions:
REMARK  status: ('A' for Active; 'I' for Inactive)
REMARK    1  A    between atoms: C_2  and  C_4
REMARK    2  A    between atoms: C_4  and  C_5
REMARK    3  A    between atoms: C_5  and  C_6
REMARK    4  A    between atoms: C_5  and  C_8
REMARK    5  A    between atoms: C_8  and  C_9
REMARK                            x       y       z     vdW  Elec       q    Type
REMARK                         _______ _______ _______ _____ _____    ______ ____
ROOT
ATOM      1  C   UNL     1       5.250   5.599 -10.986  0.00  0.00    +0.030 C 
ENDROOT
BRANCH   1   2
ATOM      2  C   UNL     1       4.517   5.752 -12.465  0.00  0.00    +0.110 C 
ATOM      3  N   UNL     1       5.163   4.811 -13.327  0.00  0.00    -0.131 NA
ENDBRANCH   1   2
BRANCH   1   4
ATOM      4  C   UNL     1       5.963   7.093 -11.117  0.00  0.00    +0.002 C 
BRANCH   4   6
ATOM      5  C   UNL     1       8.163   6.226 -11.767  0.00  0.00    +0.000 C 
ATOM      6  C   UNL     1       7.362   6.748 -10.688  0.00  0.00    +0.000 C 
ATOM      7  C   UNL     1       7.447   5.840  -9.506  0.00  0.00    +0.000 C 
ENDBRANCH   4   6
ENDBRANCH   1   4
BRANCH   1   8
ATOM      8  C   UNL     1       3.899   6.111 -10.185  0.00  0.00    +0.116 C 
BRANCH   8   9
ATOM      9  C   UNL     1       3.265   5.033  -9.498  0.00  0.00    +0.365 C 
ATOM     10  O   UNL     1       1.921   4.781  -9.804  0.00  0.00    -0.246 OA
ATOM     11  O   UNL     1       3.853   4.009  -9.036  0.00  0.00    -0.246 OA
ENDBRANCH   8   9
ENDBRANCH   1   8
TORSDOF 5
ENDMDL
MODEL 3
REMARK VINA RESULT:      -4.5      5.707      7.948
REMARK  Name = 
REMARK  5 active torsions:
REMARK  status: ('A' for Active; 'I' for Inactive)
REMARK    1  A    between atoms: C_2  and  C_4
REMARK    2  A    between atoms: C_4  and  C_5
REMARK    3  A    between atoms: C_5  and  C_6
REMARK    4  A    between atoms: C_5  and  C_8
REMARK    5  A    between atoms: C_8  and  C_9
REMARK                            x       y       z     vdW  Elec       q    Type
REMARK                         _______ _______ _______ _____ _____    ______ ____
ROOT
ATOM      1  C   UNL     1       4.976   6.618 -10.502  0.00  0.00    +0.030 C 
ENDROOT
BRANCH   1   2
ATOM      2  C   UNL     1       4.190   6.192  -9.106  0.00  0.00    +0.110 C 
ATOM      3  N   UNL     1       5.062   5.288  -8.420  0.00  0.00    -0.131 NA
ENDBRANCH   1   2
BRANCH   1   4
ATOM      4  C   UNL     1       6.407   5.968  -9.967  0.00  0.00    +0.002 C 
BRANCH   4   6
ATOM      5  C   UNL     1       6.748   8.054 -11.210  0.00  0.00    +0.000 C 
ATOM      6  C   UNL     1       7.380   6.880 -10.662  0.00  0.00    +0.000 C 
ATOM      7  C   UNL     1       8.218   6.219 -11.706  0.00  0.00    +0.000 C 
ENDBRANCH   4   6
ENDBRANCH   1   4
BRANCH   1   8
ATOM      8  C   UNL     1       4.447   5.268 -11.295  0.00  0.00    +0.116 C 
BRANCH   8   9
ATOM      9  C   UNL     1       4.495   5.447 -12.709  0.00  0.00    +0.365 C 
ATOM     10  O   UNL     1       5.483   4.744 -13.411  0.00  0.00    -0.246 OA
ATOM     11  O   UNL     1       3.508   5.753 -13.445  0.00  0.00    -0.246 OA
ENDBRANCH   8   9
ENDBRANCH   1   8
TORSDOF 5
ENDMDL
MODEL 4
REMARK VINA RESULT:      -4.5      3.405      4.561
REMARK  Name = 
REMARK  5 active torsions:
REMARK  status: ('A' for Active; 'I' for Inactive)
REMARK    1  A    between atoms: C_2  and  C_4
REMARK    2  A    between atoms: C_4  and  C_5
REMARK    3  A    between atoms: C_5  and  C_6
REMARK    4  A    between atoms: C_5  and  C_8
REMARK    5  A    between atoms: C_8  and  C_9
REMARK                            x       y       z     vdW  Elec       q    Type
REMARK                         _______ _______ _______ _____ _____    ______ ____
ROOT
ATOM      1  C   UNL     1      -1.738   5.909  -4.728  0.00  0.00    +0.030 C 
ENDROOT
BRANCH   1   2
ATOM      2  C   UNL     1      -3.062   5.145  -4.087  0.00  0.00    +0.110 C 
ATOM      3  N   UNL     1      -2.707   4.794  -2.746  0.00  0.00    -0.131 NA
ENDBRANCH   1   2
BRANCH   1   4
ATOM      4  C   UNL     1      -2.127   5.423  -6.267  0.00  0.00    +0.002 C 
BRANCH   4   6
ATOM      5  C   UNL     1       0.237   5.063  -5.720  0.00  0.00    +0.000 C 
ATOM      6  C   UNL     1      -0.776   4.963  -6.741  0.00  0.00    +0.000 C 
ATOM      7  C   UNL     1      -0.299   5.618  -7.996  0.00  0.00    +0.000 C 
ENDBRANCH   4   6
ENDBRANCH   1   4
BRANCH   1   8
ATOM      8  C   UNL     1      -2.519   7.363  -4.792  0.00  0.00    +0.116 C 
BRANCH   8   9
ATOM      9  C   UNL     1      -2.007   8.269  -3.817  0.00  0.00    +0.365 C 
ATOM     10  O   UNL     1      -1.947   9.623  -4.170  0.00  0.00    -0.246 OA
ATOM     11  O   UNL     1      -2.054   8.101  -2.561  0.00  0.00    -0.246 OA
ENDBRANCH   8   9
ENDBRANCH   1   8
TORSDOF 5
ENDMDL
MODEL 5
REMARK VINA RESULT:      -4.4      3.456      4.332
REMARK  Name = 
REMARK  5 active torsions:
REMARK  status: ('A' for Active; 'I' for Inactive)
REMARK    1  A    between atoms: C_2  and  C_4
REMARK    2  A    between atoms: C_4  and  C_5
REMARK    3  A    between atoms: C_5  and  C_6
REMARK    4  A    between atoms: C_5  and  C_8
REMARK    5  A    between atoms: C_8  and  C_9
REMARK                            x       y       z     vdW  Elec       q    Type
REMARK                         _______ _______ _______ _____ _____    ______ ____
ROOT
ATOM      1  C   UNL     1      -0.244   6.509  -4.234  0.00  0.00    +0.030 C 
ENDROOT
BRANCH   1   2
ATOM      2  C   UNL     1       1.380   6.479  -3.903  0.00  0.00    +0.110 C 
ATOM      3  N   UNL     1       1.852   5.204  -4.347  0.00  0.00    -0.131 NA
ENDBRANCH   1   2
BRANCH   1   4
ATOM      4  C   UNL     1      -0.107   5.262  -5.321  0.00  0.00    +0.002 C 
BRANCH   4   6
ATOM      5  C   UNL     1      -2.346   5.505  -6.292  0.00  0.00    +0.000 C 
ATOM      6  C   UNL     1      -0.944   5.806  -6.445  0.00  0.00    +0.000 C 
ATOM      7  C   UNL     1      -0.486   5.414  -7.811  0.00  0.00    +0.000 C 
ENDBRANCH   4   6
ENDBRANCH   1   4
BRANCH   1   8
ATOM      8  C   UNL     1      -0.601   5.570  -2.922  0.00  0.00    +0.116 C 
BRANCH   8   9
ATOM      9  C   UNL     1      -1.993   5.617  -2.616  0.00  0.00    +0.365 C 
ATOM     10  O   UNL     1      -2.645   6.846  -2.781  0.00  0.00    -0.246 OA
ATOM     11  O   UNL     1      -2.794   4.635  -2.684  0.00  0.00    -0.246 OA
ENDBRANCH   8   9
ENDBRANCH   1   8
TORSDOF 5
ENDMDL
MODEL 6
REMARK VINA RESULT:      -4.4      1.207      1.677
REMARK  Name = 
REMARK  5 active torsions:
REMARK  status: ('A' for Active; 'I' for Inactive)
REMARK    1  A    between atoms: C_2  and  C_4
REMARK    2  A    between atoms: C_4  and  C_5
REMARK    3  A    between atoms: C_5  and  C_6
REMARK    4  A    between atoms: C_5  and  C_8
REMARK    5  A    between atoms: C_8  and  C_9
REMARK                            x       y       z     vdW  Elec       q    Type
REMARK                         _______ _______ _______ _____ _____    ______ ____
ROOT
ATOM      1  C   UNL     1      -0.009   5.131  -6.645  0.00  0.00    +0.030 C 
ENDROOT
BRANCH   1   2
ATOM      2  C   UNL     1       1.176   4.543  -5.646  0.00  0.00    +0.110 C 
ATOM      3  N   UNL     1       2.004   3.709  -6.462  0.00  0.00    -0.131 NA
ENDBRANCH   1   2
BRANCH   1   4
ATOM      4  C   UNL     1      -0.240   6.466  -5.685  0.00  0.00    +0.002 C 
BRANCH   4   6
ATOM      5  C   UNL     1      -2.434   5.622  -6.385  0.00  0.00    +0.000 C 
ATOM      6  C   UNL     1      -1.694   6.288  -5.342  0.00  0.00    +0.000 C 
ATOM      7  C   UNL     1      -2.398   7.541  -4.938  0.00  0.00    +0.000 C 
ENDBRANCH   4   6
ENDBRANCH   1   4
BRANCH   1   8
ATOM      8  C   UNL     1       1.094   5.826  -7.661  0.00  0.00    +0.116 C 
BRANCH   8   9
ATOM      9  C   UNL     1       0.560   5.984  -8.974  0.00  0.00    +0.365 C 
ATOM     10  O   UNL     1       1.024   7.069  -9.728  0.00  0.00    -0.246 OA
ATOM     11  O   UNL     1       0.114   5.046  -9.704  0.00  0.00    -0.246 OA
ENDBRANCH   8   9
ENDBRANCH   1   8
TORSDOF 5
ENDMDL
MODEL 7
REMARK VINA RESULT:      -4.4      3.080      4.214
REMARK  Name = 
REMARK  5 active torsions:
REMARK  status: ('A' for Active; 'I' for Inactive)
REMARK    1  A    between atoms: C_2  and  C_4
REMARK    2  A    between atoms: C_4  and  C_5
REMARK    3  A    between atoms: C_5  and  C_6
REMARK    4  A    between atoms: C_5  and  C_8
REMARK    5  A    between atoms: C_8  and  C_9
REMARK                            x       y       z     vdW  Elec       q    Type
REMARK                         _______ _______ _______ _____ _____    ______ ____
ROOT
ATOM      1  C   UNL     1       1.870   6.143  -9.485  0.00  0.00    +0.030 C 
ENDROOT
BRANCH   1   2
ATOM      2  C   UNL     1       3.102   5.035  -9.452  0.00  0.00    +0.110 C 
ATOM      3  N   UNL     1       2.592   3.895  -8.754  0.00  0.00    -0.131 NA
ENDBRANCH   1   2
BRANCH   1   4
ATOM      4  C   UNL     1       0.731   4.959  -9.727  0.00  0.00    +0.002 C 
BRANCH   4   6
ATOM      5  C   UNL     1       0.550   4.911 -12.173  0.00  0.00    +0.000 C 
ATOM      6  C   UNL     1       0.052   5.501 -10.955  0.00  0.00    +0.000 C 
ATOM      7  C   UNL     1       0.065   6.990 -11.069  0.00  0.00    +0.000 C 
ENDBRANCH   4   6
ENDBRANCH   1   4
BRANCH   1   8
ATOM      8  C   UNL     1       1.757   6.171  -7.837  0.00  0.00    +0.116 C 
BRANCH   8   9
ATOM      9  C   UNL     1       2.191   7.424  -7.310  0.00  0.00    +0.365 C 
ATOM     10  O   UNL     1       3.207   7.395  -6.346  0.00  0.00    -0.246 OA
ATOM     11  O   UNL     1       2.135   8.536  -7.919  0.00  0.00    -0.246 OA
ENDBRANCH   8   9
ENDBRANCH   1   8
TORSDOF 5
ENDMDL
MODEL 8
REMARK VINA RESULT:      -4.3      3.389      4.709
REMARK  Name = 
REMARK  5 active torsions:
REMARK  status: ('A' for Active; 'I' for Inactive)
REMARK    1  A    between atoms: C_2  and  C_4
REMARK    2  A    between atoms: C_4  and  C_5
REMARK    3  A    between atoms: C_5  and  C_6
REMARK    4  A    between atoms: C_5  and  C_8
REMARK    5  A    between atoms: C_8  and  C_9
REMARK                            x       y       z     vdW  Elec       q    Type
REMARK                         _______ _______ _______ _____ _____    ______ ____
ROOT
ATOM      1  C   UNL     1      -0.541   5.521  -5.090  0.00  0.00    +0.030 C 
ENDROOT
BRANCH   1   2
ATOM      2  C   UNL     1      -1.584   5.634  -6.373  0.00  0.00    +0.110 C 
ATOM      3  N   UNL     1      -0.809   5.348  -7.541  0.00  0.00    -0.131 NA
ENDBRANCH   1   2
BRANCH   1   4
ATOM      4  C   UNL     1       0.204   6.950  -5.492  0.00  0.00    +0.002 C 
BRANCH   4   6
ATOM      5  C   UNL     1       2.533   6.971  -6.262  0.00  0.00    +0.000 C 
ATOM      6  C   UNL     1       1.634   6.585  -5.203  0.00  0.00    +0.000 C 
ATOM      7  C   UNL     1       1.852   5.152  -4.846  0.00  0.00    +0.000 C 
ENDBRANCH   4   6
ENDBRANCH   1   4
BRANCH   1   8
ATOM      8  C   UNL     1      -1.641   6.176  -4.047  0.00  0.00    +0.116 C 
BRANCH   8   9
ATOM      9  C   UNL     1      -1.673   5.461  -2.813  0.00  0.00    +0.365 C 
ATOM     10  O   UNL     1      -2.836   4.735  -2.523  0.00  0.00    -0.246 OA
ATOM     11  O   UNL     1      -0.659   5.011  -2.198  0.00  0.00    -0.246 OA
ENDBRANCH   8   9
ENDBRANCH   1   8
TORSDOF 5
ENDMDL
MODEL 9
REMARK VINA RESULT:      -4.3      2.666      3.162
REMARK  Name = 
REMARK  5 active torsions:
REMARK  status: ('A' for Active; 'I' for Inactive)
REMARK    1  A    between atoms: C_2  and  C_4
REMARK    2  A    between atoms: C_4  and  C_5
REMARK    3  A    between atoms: C_5  and  C_6
REMARK    4  A    between atoms: C_5  and  C_8
REMARK    5  A    between atoms: C_8  and  C_9
REMARK                            x       y       z     vdW  Elec       q    Type
REMARK                         _______ _______ _______ _____ _____    ______ ____
ROOT
ATOM      1  C   UNL     1       1.142   6.459  -6.441  0.00  0.00    +0.030 C 
ENDROOT
BRANCH   1   2
ATOM      2  C   UNL     1       1.695   6.847  -7.955  0.00  0.00    +0.110 C 
ATOM      3  N   UNL     1       2.139   8.205  -7.879  0.00  0.00    -0.131 NA
ENDBRANCH   1   2
BRANCH   1   4
ATOM      4  C   UNL     1      -0.160   5.636  -7.062  0.00  0.00    +0.002 C 
BRANCH   4   6
ATOM      5  C   UNL     1      -2.497   5.607  -6.319  0.00  0.00    +0.000 C 
ATOM      6  C   UNL     1      -1.123   5.778  -5.916  0.00  0.00    +0.000 C 
ATOM      7  C   UNL     1      -0.978   7.039  -5.129  0.00  0.00    +0.000 C 
ENDBRANCH   4   6
ENDBRANCH   1   4
BRANCH   1   8
ATOM      8  C   UNL     1       2.148   5.153  -6.331  0.00  0.00    +0.116 C 
BRANCH   8   9
ATOM      9  C   UNL     1       2.515   4.895  -4.977  0.00  0.00    +0.365 C 
ATOM     10  O   UNL     1       3.858   4.590  -4.724  0.00  0.00    -0.246 OA
ATOM     11  O   UNL     1       1.927   5.362  -3.955  0.00  0.00    -0.246 OA
ENDBRANCH   8   9
ENDBRANCH   1   8
TORSDOF 5
ENDMDL
