MODEL 1
REMARK VINA RESULT:      -8.6      0.000      0.000
REMARK  Name = 
REMARK  0 active torsions:
REMARK  status: ('A' for Active; 'I' for Inactive)
REMARK                            x       y       z     vdW  Elec       q    Type
REMARK                         _______ _______ _______ _____ _____    ______ ____
ROOT
ATOM      1  C   UNL     1      -0.005   7.220  -5.072  0.00  0.00    +0.007 C 
ATOM      2  C   UNL     1      -0.490   5.838  -4.822  0.00  0.00    +0.052 C 
ATOM      3  C   UNL     1      -1.776   5.893  -4.176  0.00  0.00    +0.150 C 
ATOM      4  O   UNL     1      -2.262   6.939  -3.718  0.00  0.00    -0.296 OA
ATOM      5  C   UNL     1      -2.745   5.365  -5.219  0.00  0.00    +0.064 C 
ATOM      6  C   UNL     1      -2.082   6.004  -6.448  0.00  0.00    +0.008 C 
ATOM      7  C   UNL     1      -0.786   5.057  -6.209  0.00  0.00    +0.007 C 
ATOM      8  C   UNL     1       0.295   6.022  -7.057  0.00  0.00    +0.005 C 
ATOM      9  C   UNL     1      -0.053   5.372  -8.482  0.00  0.00    +0.025 C 
ATOM     10  C   UNL     1       1.063   6.004  -9.272  0.00  0.00    -0.035 C 
ATOM     11  C   UNL     1       2.068   6.571  -8.584  0.00  0.00    -0.047 C 
ATOM     12  C   UNL     1       2.651   5.801  -7.480  0.00  0.00    +0.015 C 
ATOM     13  C   UNL     1       3.516   6.509  -6.550  0.00  0.00    +0.004 C 
ATOM     14  C   UNL     1       3.556   4.793  -8.192  0.00  0.00    +0.006 C 
ATOM     15  C   UNL     1       4.630   5.597  -8.867  0.00  0.00    +0.034 C 
ATOM     16  C   UNL     1       3.900   6.210 -10.212  0.00  0.00    +0.156 C 
ATOM     17  O   UNL     1       5.067   7.145 -10.474  0.00  0.00    -0.223 OA
ATOM     18  C   UNL     1       3.113   7.357  -9.325  0.00  0.00    +0.055 C 
ATOM     19  C   UNL     1       1.523   4.900  -6.764  0.00  0.00    +0.004 C 
ATOM     20  C   UNL     1       1.799   5.435  -5.258  0.00  0.00    +0.001 C 
ATOM     21  C   UNL     1       0.633   5.026  -4.367  0.00  0.00    +0.007 C 
ENDROOT
TORSDOF 0
ENDMDL
MODEL 2
REMARK VINA RESULT:      -8.6      1.898      7.011
REMARK  Name = 
REMARK  0 active torsions:
REMARK  status: ('A' for Active; 'I' for Inactive)
REMARK                            x       y       z     vdW  Elec       q    Type
REMARK                         _______ _______ _______ _____ _____    ______ ____
ROOT
ATOM      1  C   UNL     1       5.090   7.489 -10.875  0.00  0.00    +0.007 C 
ATOM      2  C   UNL     1       5.544   6.118 -11.223  0.00  0.00    +0.052 C 
ATOM      3  C   UNL     1       6.848   6.185 -11.830  0.00  0.00    +0.150 C 
ATOM      4  O   UNL     1       7.375   7.250 -12.190  0.00  0.00    -0.296 OA
ATOM      5  C   UNL     1       7.773   5.547 -10.808  0.00  0.00    +0.064 C 
ATOM      6  C   UNL     1       7.094   6.105  -9.550  0.00  0.00    +0.008 C 
ATOM      7  C   UNL     1       5.779   5.220  -9.896  0.00  0.00    +0.007 C 
ATOM      8  C   UNL     1       4.703   6.145  -9.001  0.00  0.00    +0.005 C 
ATOM      9  C   UNL     1       4.993   5.374  -7.624  0.00  0.00    +0.025 C 
ATOM     10  C   UNL     1       3.874   5.974  -6.814  0.00  0.00    -0.035 C 
ATOM     11  C   UNL     1       2.904   6.624  -7.479  0.00  0.00    -0.047 C 
ATOM     12  C   UNL     1       2.330   5.963  -8.656  0.00  0.00    +0.015 C 
ATOM     13  C   UNL     1       1.512   6.767  -9.548  0.00  0.00    +0.004 C 
ATOM     14  C   UNL     1       1.379   4.928  -8.050  0.00  0.00    +0.006 C 
ATOM     15  C   UNL     1       0.310   5.707  -7.340  0.00  0.00    +0.034 C 
ATOM     16  C   UNL     1       1.019   6.189  -5.932  0.00  0.00    +0.156 C 
ATOM     17  O   UNL     1      -0.129   7.134  -5.625  0.00  0.00    -0.223 OA
ATOM     18  C   UNL     1       1.862   7.379  -6.704  0.00  0.00    +0.055 C 
ATOM     19  C   UNL     1       3.452   5.088  -9.413  0.00  0.00    +0.004 C 
ATOM     20  C   UNL     1       3.233   5.749 -10.878  0.00  0.00    +0.001 C 
ATOM     21  C   UNL     1       4.411   5.378 -11.770  0.00  0.00    +0.007 C 
ENDROOT
TORSDOF 0
ENDMDL
MODEL 3
REMARK VINA RESULT:      -8.4      2.760      5.477
REMARK  Name = 
REMARK  0 active torsions:
REMARK  status: ('A' for Active; 'I' for Inactive)
REMARK                            x       y       z     vdW  Elec       q    Type
REMARK                         _______ _______ _______ _____ _____    ______ ____
ROOT
ATOM      1  C   UNL     1       2.499   4.157  -7.371  0.00  0.00    +0.007 C 
ATOM      2  C   UNL     1       2.344   5.416  -8.143  0.00  0.00    +0.052 C 
ATOM      3  C   UNL     1       1.611   5.148  -9.353  0.00  0.00    +0.150 C 
ATOM      4  O   UNL     1       1.363   4.001  -9.757  0.00  0.00    -0.296 OA
ATOM      5  C   UNL     1       0.280   5.853  -9.153  0.00  0.00    +0.064 C 
ATOM      6  C   UNL     1       0.118   5.551  -7.657  0.00  0.00    +0.008 C 
ATOM      7  C   UNL     1       1.413   6.481  -7.354  0.00  0.00    +0.007 C 
ATOM      8  C   UNL     1       1.779   5.796  -5.867  0.00  0.00    +0.005 C 
ATOM      9  C   UNL     1       0.773   6.738  -5.046  0.00  0.00    +0.025 C 
ATOM     10  C   UNL     1       1.228   6.364  -3.660  0.00  0.00    -0.035 C 
ATOM     11  C   UNL     1       2.393   5.706  -3.544  0.00  0.00    -0.047 C 
ATOM     12  C   UNL     1       3.543   6.228  -4.291  0.00  0.00    +0.015 C 
ATOM     13  C   UNL     1       4.709   5.370  -4.417  0.00  0.00    +0.004 C 
ATOM     14  C   UNL     1       4.001   7.419  -3.445  0.00  0.00    +0.006 C 
ATOM     15  C   UNL     1       4.468   6.849  -2.137  0.00  0.00    +0.034 C 
ATOM     16  C   UNL     1       3.079   6.527  -1.310  0.00  0.00    +0.156 C 
ATOM     17  O   UNL     1       3.836   5.739  -0.256  0.00  0.00    -0.223 OA
ATOM     18  C   UNL     1       2.802   5.168  -2.202  0.00  0.00    +0.055 C 
ATOM     19  C   UNL     1       3.060   6.881  -5.683  0.00  0.00    +0.004 C 
ATOM     20  C   UNL     1       4.059   6.027  -6.634  0.00  0.00    +0.001 C 
ATOM     21  C   UNL     1       3.598   6.158  -8.081  0.00  0.00    +0.007 C 
ENDROOT
TORSDOF 0
ENDMDL
MODEL 4
REMARK VINA RESULT:      -8.2      1.731      3.237
REMARK  Name = 
REMARK  0 active torsions:
REMARK  status: ('A' for Active; 'I' for Inactive)
REMARK                            x       y       z     vdW  Elec       q    Type
REMARK                         _______ _______ _______ _____ _____    ______ ____
ROOT
ATOM      1  C   UNL     1       0.743   4.728  -4.851  0.00  0.00    +0.007 C 
ATOM      2  C   UNL     1       0.803   6.051  -4.177  0.00  0.00    +0.052 C 
ATOM      3  C   UNL     1       0.508   5.889  -2.777  0.00  0.00    +0.150 C 
ATOM      4  O   UNL     1       0.061   4.836  -2.295  0.00  0.00    -0.296 OA
ATOM      5  C   UNL     1       1.824   6.182  -2.077  0.00  0.00    +0.064 C 
ATOM      6  C   UNL     1       2.749   5.522  -3.109  0.00  0.00    +0.008 C 
ATOM      7  C   UNL     1       2.308   6.650  -4.189  0.00  0.00    +0.007 C 
ATOM      8  C   UNL     1       2.720   5.760  -5.551  0.00  0.00    +0.005 C 
ATOM      9  C   UNL     1       4.258   6.219  -5.537  0.00  0.00    +0.025 C 
ATOM     10  C   UNL     1       4.647   5.668  -6.883  0.00  0.00    -0.035 C 
ATOM     11  C   UNL     1       3.658   5.307  -7.717  0.00  0.00    -0.047 C 
ATOM     12  C   UNL     1       2.549   6.249  -7.899  0.00  0.00    +0.015 C 
ATOM     13  C   UNL     1       1.346   5.754  -8.548  0.00  0.00    +0.004 C 
ATOM     14  C   UNL     1       3.127   7.295  -8.854  0.00  0.00    +0.006 C 
ATOM     15  C   UNL     1       3.396   6.580 -10.147  0.00  0.00    +0.034 C 
ATOM     16  C   UNL     1       4.794   5.750  -9.874  0.00  0.00    +0.156 C 
ATOM     17  O   UNL     1       4.626   4.957 -11.158  0.00  0.00    -0.223 OA
ATOM     18  C   UNL     1       4.000   4.599  -8.998  0.00  0.00    +0.055 C 
ATOM     19  C   UNL     1       2.268   7.057  -6.533  0.00  0.00    +0.004 C 
ATOM     20  C   UNL     1       0.686   6.710  -6.445  0.00  0.00    +0.001 C 
ATOM     21  C   UNL     1       0.183   7.045  -5.046  0.00  0.00    +0.007 C 
ENDROOT
TORSDOF 0
ENDMDL
MODEL 5
REMARK VINA RESULT:      -8.2      1.448      5.936
REMARK  Name = 
REMARK  0 active torsions:
REMARK  status: ('A' for Active; 'I' for Inactive)
REMARK                            x       y       z     vdW  Elec       q    Type
REMARK                         _______ _______ _______ _____ _____    ______ ____
ROOT
ATOM      1  C   UNL     1       2.487   4.554  -6.688  0.00  0.00    +0.007 C 
ATOM      2  C   UNL     1       2.657   5.636  -7.691  0.00  0.00    +0.052 C 
ATOM      3  C   UNL     1       3.424   5.140  -8.805  0.00  0.00    +0.150 C 
ATOM      4  O   UNL     1       4.019   4.049  -8.788  0.00  0.00    -0.296 OA
ATOM      5  C   UNL     1       2.434   5.095  -9.955  0.00  0.00    +0.064 C 
ATOM      6  C   UNL     1       1.211   4.639  -9.148  0.00  0.00    +0.008 C 
ATOM      7  C   UNL     1       1.239   6.054  -8.353  0.00  0.00    +0.007 C 
ATOM      8  C   UNL     1       0.383   5.520  -7.012  0.00  0.00    +0.005 C 
ATOM      9  C   UNL     1      -1.056   5.793  -7.668  0.00  0.00    +0.025 C 
ATOM     10  C   UNL     1      -1.887   5.581  -6.431  0.00  0.00    -0.035 C 
ATOM     11  C   UNL     1      -1.250   5.561  -5.249  0.00  0.00    -0.047 C 
ATOM     12  C   UNL     1      -0.280   6.630  -4.985  0.00  0.00    +0.015 C 
ATOM     13  C   UNL     1       0.624   6.455  -3.860  0.00  0.00    +0.004 C 
ATOM     14  C   UNL     1      -1.162   7.825  -4.618  0.00  0.00    +0.006 C 
ATOM     15  C   UNL     1      -1.861   7.455  -3.342  0.00  0.00    +0.034 C 
ATOM     16  C   UNL     1      -3.070   6.439  -3.816  0.00  0.00    +0.156 C 
ATOM     17  O   UNL     1      -3.357   6.038  -2.380  0.00  0.00    -0.223 OA
ATOM     18  C   UNL     1      -2.013   5.188  -4.009  0.00  0.00    +0.055 C 
ATOM     19  C   UNL     1       0.456   7.071  -6.349  0.00  0.00    +0.004 C 
ATOM     20  C   UNL     1       1.971   6.882  -5.803  0.00  0.00    +0.001 C 
ATOM     21  C   UNL     1       2.929   6.884  -6.988  0.00  0.00    +0.007 C 
ENDROOT
TORSDOF 0
ENDMDL
MODEL 6
REMARK VINA RESULT:      -8.0      3.129      5.690
REMARK  Name = 
REMARK  0 active torsions:
REMARK  status: ('A' for Active; 'I' for Inactive)
REMARK                            x       y       z     vdW  Elec       q    Type
REMARK                         _______ _______ _______ _____ _____    ______ ____
ROOT
ATOM      1  C   UNL     1       1.024   6.662  -6.547  0.00  0.00    +0.007 C 
ATOM      2  C   UNL     1       1.556   5.386  -7.090  0.00  0.00    +0.052 C 
ATOM      3  C   UNL     1       1.344   5.346  -8.513  0.00  0.00    +0.150 C 
ATOM      4  O   UNL     1       0.629   6.162  -9.117  0.00  0.00    -0.296 OA
ATOM      5  C   UNL     1       2.738   5.444  -9.107  0.00  0.00    +0.064 C 
ATOM      6  C   UNL     1       3.318   6.437  -8.090  0.00  0.00    +0.008 C 
ATOM      7  C   UNL     1       3.167   5.306  -6.936  0.00  0.00    +0.007 C 
ATOM      8  C   UNL     1       3.161   6.373  -5.641  0.00  0.00    +0.005 C 
ATOM      9  C   UNL     1       4.760   6.435  -5.525  0.00  0.00    +0.025 C 
ATOM     10  C   UNL     1       4.840   7.175  -4.215  0.00  0.00    -0.035 C 
ATOM     11  C   UNL     1       3.722   7.255  -3.477  0.00  0.00    -0.047 C 
ATOM     12  C   UNL     1       2.955   6.021  -3.272  0.00  0.00    +0.015 C 
ATOM     13  C   UNL     1       1.608   6.146  -2.742  0.00  0.00    +0.004 C 
ATOM     14  C   UNL     1       3.752   5.286  -2.192  0.00  0.00    +0.006 C 
ATOM     15  C   UNL     1       3.672   6.139  -0.958  0.00  0.00    +0.034 C 
ATOM     16  C   UNL     1       4.753   7.354  -1.227  0.00  0.00    +0.156 C 
ATOM     17  O   UNL     1       4.236   8.138  -0.034  0.00  0.00    -0.223 OA
ATOM     18  C   UNL     1       3.713   8.123  -2.250  0.00  0.00    +0.055 C 
ATOM     19  C   UNL     1       3.060   5.072  -4.570  0.00  0.00    +0.004 C 
ATOM     20  C   UNL     1       1.463   4.884  -4.781  0.00  0.00    +0.001 C 
ATOM     21  C   UNL     1       1.211   4.308  -6.169  0.00  0.00    +0.007 C 
ENDROOT
TORSDOF 0
ENDMDL
MODEL 7
REMARK VINA RESULT:      -8.0      1.683      3.507
REMARK  Name = 
REMARK  0 active torsions:
REMARK  status: ('A' for Active; 'I' for Inactive)
REMARK                            x       y       z     vdW  Elec       q    Type
REMARK                         _______ _______ _______ _____ _____    ______ ____
ROOT
ATOM      1  C   UNL     1      -2.454   5.186  -4.375  0.00  0.00    +0.007 C 
ATOM      2  C   UNL     1      -2.346   6.558  -3.814  0.00  0.00    +0.052 C 
ATOM      3  C   UNL     1      -3.156   6.654  -2.627  0.00  0.00    +0.150 C 
ATOM      4  O   UNL     1      -3.971   5.780  -2.288  0.00  0.00    -0.296 OA
ATOM      5  C   UNL     1      -2.153   6.797  -1.496  0.00  0.00    +0.064 C 
ATOM      6  C   UNL     1      -1.090   5.839  -2.050  0.00  0.00    +0.008 C 
ATOM      7  C   UNL     1      -0.846   6.862  -3.285  0.00  0.00    +0.007 C 
ATOM      8  C   UNL     1      -0.179   5.727  -4.326  0.00  0.00    +0.005 C 
ATOM      9  C   UNL     1       1.310   5.893  -3.752  0.00  0.00    +0.025 C 
ATOM     10  C   UNL     1       2.026   5.093  -4.809  0.00  0.00    -0.035 C 
ATOM     11  C   UNL     1       1.351   4.805  -5.934  0.00  0.00    -0.047 C 
ATOM     12  C   UNL     1       0.624   5.899  -6.586  0.00  0.00    +0.015 C 
ATOM     13  C   UNL     1      -0.342   5.546  -7.614  0.00  0.00    +0.004 C 
ATOM     14  C   UNL     1       1.726   6.674  -7.310  0.00  0.00    +0.006 C 
ATOM     15  C   UNL     1       2.277   5.745  -8.353  0.00  0.00    +0.034 C 
ATOM     16  C   UNL     1       3.258   4.720  -7.513  0.00  0.00    +0.156 C 
ATOM     17  O   UNL     1       3.393   3.796  -8.711  0.00  0.00    -0.223 OA
ATOM     18  C   UNL     1       1.966   3.871  -6.938  0.00  0.00    +0.055 C 
ATOM     19  C   UNL     1       0.056   6.932  -5.487  0.00  0.00    +0.004 C 
ATOM     20  C   UNL     1      -1.485   6.897  -5.990  0.00  0.00    +0.001 C 
ATOM     21  C   UNL     1      -2.371   7.514  -4.915  0.00  0.00    +0.007 C 
ENDROOT
TORSDOF 0
ENDMDL
MODEL 8
REMARK VINA RESULT:      -7.9      3.368      5.858
REMARK  Name = 
REMARK  0 active torsions:
REMARK  status: ('A' for Active; 'I' for Inactive)
REMARK                            x       y       z     vdW  Elec       q    Type
REMARK                         _______ _______ _______ _____ _____    ______ ____
ROOT
ATOM      1  C   UNL     1       3.176   4.689  -6.542  0.00  0.00    +0.007 C 
ATOM      2  C   UNL     1       2.304   5.781  -7.046  0.00  0.00    +0.052 C 
ATOM      3  C   UNL     1       1.570   5.316  -8.194  0.00  0.00    +0.150 C 
ATOM      4  O   UNL     1       1.818   4.245  -8.771  0.00  0.00    -0.296 OA
ATOM      5  C   UNL     1       0.129   5.247  -7.717  0.00  0.00    +0.064 C 
ATOM      6  C   UNL     1       0.414   4.748  -6.294  0.00  0.00    +0.008 C 
ATOM      7  C   UNL     1       1.151   6.158  -5.974  0.00  0.00    +0.007 C 
ATOM      8  C   UNL     1       2.069   5.590  -4.689  0.00  0.00    +0.005 C 
ATOM      9  C   UNL     1       0.914   5.821  -3.600  0.00  0.00    +0.025 C 
ATOM     10  C   UNL     1       1.745   5.576  -2.367  0.00  0.00    -0.035 C 
ATOM     11  C   UNL     1       3.080   5.570  -2.508  0.00  0.00    -0.047 C 
ATOM     12  C   UNL     1       3.685   6.668  -3.272  0.00  0.00    +0.015 C 
ATOM     13  C   UNL     1       5.070   6.516  -3.685  0.00  0.00    +0.004 C 
ATOM     14  C   UNL     1       3.681   7.832  -2.279  0.00  0.00    +0.006 C 
ATOM     15  C   UNL     1       4.598   7.433  -1.160  0.00  0.00    +0.034 C 
ATOM     16  C   UNL     1       3.708   6.382  -0.254  0.00  0.00    +0.156 C 
ATOM     17  O   UNL     1       4.931   5.965   0.544  0.00  0.00    -0.223 OA
ATOM     18  C   UNL     1       3.939   5.166  -1.344  0.00  0.00    +0.055 C 
ATOM     19  C   UNL     1       2.699   7.140  -4.456  0.00  0.00    +0.004 C 
ATOM     20  C   UNL     1       3.782   6.996  -5.655  0.00  0.00    +0.001 C 
ATOM     21  C   UNL     1       3.050   7.034  -6.991  0.00  0.00    +0.007 C 
ENDROOT
TORSDOF 0
ENDMDL
MODEL 9
REMARK VINA RESULT:      -7.9      2.526      4.246
REMARK  Name = 
REMARK  0 active torsions:
REMARK  status: ('A' for Active; 'I' for Inactive)
REMARK                            x       y       z     vdW  Elec       q    Type
REMARK                         _______ _______ _______ _____ _____    ______ ____
ROOT
ATOM      1  C   UNL     1       2.070   4.706  -5.245  0.00  0.00    +0.007 C 
ATOM      2  C   UNL     1       2.534   6.072  -4.891  0.00  0.00    +0.052 C 
ATOM      3  C   UNL     1       3.364   6.005  -3.716  0.00  0.00    +0.150 C 
ATOM      4  O   UNL     1       3.466   4.987  -3.013  0.00  0.00    -0.296 OA
ATOM      5  C   UNL     1       4.756   6.349  -4.216  0.00  0.00    +0.064 C 
ATOM      6  C   UNL     1       4.667   5.622  -5.565  0.00  0.00    +0.008 C 
ATOM      7  C   UNL     1       3.520   6.672  -6.027  0.00  0.00    +0.007 C 
ATOM      8  C   UNL     1       2.852   5.693  -7.215  0.00  0.00    +0.005 C 
ATOM      9  C   UNL     1       3.886   6.154  -8.352  0.00  0.00    +0.025 C 
ATOM     10  C   UNL     1       3.196   5.513  -9.527  0.00  0.00    -0.035 C 
ATOM     11  C   UNL     1       1.932   5.094  -9.354  0.00  0.00    -0.047 C 
ATOM     12  C   UNL     1       0.995   6.018  -8.707  0.00  0.00    +0.015 C 
ATOM     13  C   UNL     1      -0.273   5.477  -8.245  0.00  0.00    +0.004 C 
ATOM     14  C   UNL     1       0.637   6.998  -9.827  0.00  0.00    +0.006 C 
ATOM     15  C   UNL     1      -0.087   6.197 -10.870  0.00  0.00    +0.034 C 
ATOM     16  C   UNL     1       1.108   5.390 -11.671  0.00  0.00    +0.156 C 
ATOM     17  O   UNL     1       0.097   4.511 -12.385  0.00  0.00    -0.223 OA
ATOM     18  C   UNL     1       1.267   4.301 -10.443  0.00  0.00    +0.055 C 
ATOM     19  C   UNL     1       1.759   6.918  -7.609  0.00  0.00    +0.004 C 
ATOM     20  C   UNL     1       0.763   6.574  -6.376  0.00  0.00    +0.001 C 
ATOM     21  C   UNL     1       1.425   7.002  -5.071  0.00  0.00    +0.007 C 
ENDROOT
TORSDOF 0
ENDMDL
