MODEL 1
REMARK VINA RESULT:      -8.8      0.000      0.000
REMARK  Name = 
REMARK  6 active torsions:
REMARK  status: ('A' for Active; 'I' for Inactive)
REMARK    1  A    between atoms: C_5  and  C_6
REMARK    2  A    between atoms: N_8  and  C_9
REMARK    3  A    between atoms: C_9  and  C_12
REMARK    4  A    between atoms: C_14  and  C_15
REMARK    5  A    between atoms: N_17  and  C_18
REMARK    6  A    between atoms: C_18  and  C_19
REMARK                            x       y       z     vdW  Elec       q    Type
REMARK                         _______ _______ _______ _____ _____    ______ ____
ROOT
ATOM      1  C   UNL     1       2.288   6.925  -0.530  0.00  0.00    +0.141 A 
ATOM      2  N   UNL     1       2.834   8.141  -0.495  0.00  0.00    -0.278 N 
ATOM      3  C   UNL     1       3.856   8.469  -1.477  0.00  0.00    +0.135 C 
ATOM      4  C   UNL     1       2.282   9.084   0.285  0.00  0.00    +0.303 A 
ATOM      5  O   UNL     1       2.911  10.168   0.474  0.00  0.00    -0.263 OA
ATOM      6  C   UNL     1       0.986   8.932   0.758  0.00  0.00    +0.273 A 
ATOM      7  O   UNL     1       0.249  10.043   1.176  0.00  0.00    -0.280 OA
ATOM      8  C   UNL     1       0.341   7.720   0.551  0.00  0.00    +0.183 A 
ATOM      9  N   UNL     1       1.142   6.716   0.120  0.00  0.00    -0.222 NA
ENDROOT
BRANCH   1  10
ATOM     10  C   UNL     1       2.879   5.775  -1.281  0.00  0.00    +0.129 C 
ATOM     11  C   UNL     1       2.009   4.577  -0.969  0.00  0.00    +0.029 C 
ATOM     12  C   UNL     1       4.248   5.548  -0.650  0.00  0.00    +0.029 C 
BRANCH  10  14
ATOM     13  C   UNL     1       1.915   5.832  -3.618  0.00  0.00    +0.320 C 
ATOM     14  N   UNL     1       2.976   6.037  -2.697  0.00  0.00    -0.194 NA
ATOM     15  O   UNL     1       0.743   5.866  -3.151  0.00  0.00    -0.263 OA
BRANCH  13  19
ATOM     16  C   UNL     1       3.610   4.984  -8.126  0.00  0.00    +0.097 C 
ATOM     17  C   UNL     1       2.816   4.803  -6.882  0.00  0.00    +0.227 A 
ATOM     18  O   UNL     1       2.970   5.513  -5.781  0.00  0.00    -0.416 OA
ATOM     19  C   UNL     1       2.082   5.114  -4.886  0.00  0.00    +0.306 A 
ATOM     20  N   UNL     1       1.140   4.486  -5.627  0.00  0.00    -0.102 NA
ATOM     21  N   UNL     1       1.545   4.395  -6.877  0.00  0.00    -0.111 NA
ENDBRANCH  13  19
ENDBRANCH  10  14
ENDBRANCH   1  10
BRANCH   8  22
ATOM     22  C   UNL     1      -1.120   7.668   0.380  0.00  0.00    +0.296 C 
ATOM     23  N   UNL     1      -1.674   7.715  -0.782  0.00  0.00    -0.228 NA
ATOM     24  O   UNL     1      -1.802   6.924   1.349  0.00  0.00    -0.264 OA
BRANCH  23  25
ATOM     25  C   UNL     1      -2.648   6.728  -1.242  0.00  0.00    +0.155 C 
BRANCH  25  26
ATOM     26  C   UNL     1      -2.770   6.722  -2.721  0.00  0.00    +0.002 A 
ATOM     27  C   UNL     1      -3.097   5.545  -3.348  0.00  0.00    -0.000 A 
ATOM     28  C   UNL     1      -2.705   5.360  -4.668  0.00  0.00    +0.029 A 
ATOM     29  C   UNL     1      -2.020   6.362  -5.332  0.00  0.00    +0.140 A 
ATOM     30  F   UNL     1      -1.410   6.166  -6.531  0.00  0.00    -0.204 F 
ATOM     31  C   UNL     1      -2.043   7.636  -4.797  0.00  0.00    +0.029 A 
ATOM     32  C   UNL     1      -2.204   7.751  -3.438  0.00  0.00    -0.000 A 
ENDBRANCH  25  26
ENDBRANCH  23  25
ENDBRANCH   8  22
TORSDOF 6
ENDMDL
MODEL 2
REMARK VINA RESULT:      -8.8      3.070      8.161
REMARK  Name = 
REMARK  6 active torsions:
REMARK  status: ('A' for Active; 'I' for Inactive)
REMARK    1  A    between atoms: C_5  and  C_6
REMARK    2  A    between atoms: N_8  and  C_9
REMARK    3  A    between atoms: C_9  and  C_12
REMARK    4  A    between atoms: C_14  and  C_15
REMARK    5  A    between atoms: N_17  and  C_18
REMARK    6  A    between atoms: C_18  and  C_19
REMARK                            x       y       z     vdW  Elec       q    Type
REMARK                         _______ _______ _______ _____ _____    ______ ____
ROOT
ATOM      1  C   UNL     1       0.424   6.666  -4.788  0.00  0.00    +0.141 A 
ATOM      2  N   UNL     1       1.451   6.692  -3.938  0.00  0.00    -0.278 N 
ATOM      3  C   UNL     1       1.204   6.361  -2.543  0.00  0.00    +0.135 C 
ATOM      4  C   UNL     1       2.698   6.804  -4.423  0.00  0.00    +0.303 A 
ATOM      5  O   UNL     1       3.650   7.031  -3.618  0.00  0.00    -0.263 OA
ATOM      6  C   UNL     1       2.958   6.535  -5.760  0.00  0.00    +0.273 A 
ATOM      7  O   UNL     1       4.251   6.213  -6.180  0.00  0.00    -0.280 OA
ATOM      8  C   UNL     1       1.885   6.315  -6.614  0.00  0.00    +0.183 A 
ATOM      9  N   UNL     1       0.673   6.634  -6.098  0.00  0.00    -0.222 NA
ENDROOT
BRANCH   1  10
ATOM     10  C   UNL     1      -1.008   6.649  -4.353  0.00  0.00    +0.129 C 
ATOM     11  C   UNL     1      -1.741   5.785  -5.356  0.00  0.00    +0.029 C 
ATOM     12  C   UNL     1      -1.492   8.085  -4.516  0.00  0.00    +0.029 C 
BRANCH  10  14
ATOM     13  C   UNL     1      -2.258   6.516  -2.160  0.00  0.00    +0.320 C 
ATOM     14  N   UNL     1      -1.162   6.180  -2.998  0.00  0.00    -0.194 NA
ATOM     15  O   UNL     1      -3.334   6.841  -2.735  0.00  0.00    -0.263 OA
BRANCH  13  19
ATOM     16  C   UNL     1      -0.999   9.583   1.435  0.00  0.00    +0.097 C 
ATOM     17  C   UNL     1      -1.488   8.348   0.769  0.00  0.00    +0.227 A 
ATOM     18  O   UNL     1      -1.700   8.224  -0.527  0.00  0.00    -0.416 OA
ATOM     19  C   UNL     1      -2.097   6.989  -0.781  0.00  0.00    +0.306 A 
ATOM     20  N   UNL     1      -1.688   6.291   0.305  0.00  0.00    -0.102 NA
ATOM     21  N   UNL     1      -1.211   7.119   1.211  0.00  0.00    -0.111 NA
ENDBRANCH  13  19
ENDBRANCH  10  14
ENDBRANCH   1  10
BRANCH   8  22
ATOM     22  C   UNL     1       2.018   5.411  -7.767  0.00  0.00    +0.296 C 
ATOM     23  N   UNL     1       2.563   5.786  -8.871  0.00  0.00    -0.228 NA
ATOM     24  O   UNL     1       2.174   4.058  -7.441  0.00  0.00    -0.264 OA
BRANCH  23  25
ATOM     25  C   UNL     1       3.649   5.051  -9.516  0.00  0.00    +0.155 C 
BRANCH  25  26
ATOM     26  C   UNL     1       4.875   5.877  -9.642  0.00  0.00    +0.002 A 
ATOM     27  C   UNL     1       4.886   6.901 -10.557  0.00  0.00    -0.000 A 
ATOM     28  C   UNL     1       6.104   7.320 -11.076  0.00  0.00    +0.029 A 
ATOM     29  C   UNL     1       7.278   6.723 -10.651  0.00  0.00    +0.140 A 
ATOM     30  F   UNL     1       8.470   6.917 -11.276  0.00  0.00    -0.204 F 
ATOM     31  C   UNL     1       7.250   5.978  -9.487  0.00  0.00    +0.029 A 
ATOM     32  C   UNL     1       6.059   5.388  -9.140  0.00  0.00    -0.000 A 
ENDBRANCH  25  26
ENDBRANCH  23  25
ENDBRANCH   8  22
TORSDOF 6
ENDMDL
MODEL 3
REMARK VINA RESULT:      -8.7      3.528      8.090
REMARK  Name = 
REMARK  6 active torsions:
REMARK  status: ('A' for Active; 'I' for Inactive)
REMARK    1  A    between atoms: C_5  and  C_6
REMARK    2  A    between atoms: N_8  and  C_9
REMARK    3  A    between atoms: C_9  and  C_12
REMARK    4  A    between atoms: C_14  and  C_15
REMARK    5  A    between atoms: N_17  and  C_18
REMARK    6  A    between atoms: C_18  and  C_19
REMARK                            x       y       z     vdW  Elec       q    Type
REMARK                         _______ _______ _______ _____ _____    ______ ____
ROOT
ATOM      1  C   UNL     1       2.154   5.784  -5.240  0.00  0.00    +0.141 A 
ATOM      2  N   UNL     1       0.973   5.844  -4.625  0.00  0.00    -0.278 N 
ATOM      3  C   UNL     1       0.872   6.618  -3.397  0.00  0.00    +0.135 C 
ATOM      4  C   UNL     1      -0.119   5.386  -5.257  0.00  0.00    +0.303 A 
ATOM      5  O   UNL     1      -1.196   5.257  -4.603  0.00  0.00    -0.263 OA
ATOM      6  C   UNL     1      -0.103   5.191  -6.631  0.00  0.00    +0.273 A 
ATOM      7  O   UNL     1      -1.298   5.151  -7.355  0.00  0.00    -0.280 OA
ATOM      8  C   UNL     1       1.104   5.318  -7.307  0.00  0.00    +0.183 A 
ATOM      9  N   UNL     1       2.198   5.376  -6.510  0.00  0.00    -0.222 NA
ENDROOT
BRANCH   1  10
ATOM     10  C   UNL     1       3.446   6.169  -4.591  0.00  0.00    +0.129 C 
ATOM     11  C   UNL     1       4.474   6.224  -5.700  0.00  0.00    +0.029 C 
ATOM     12  C   UNL     1       3.795   5.003  -3.674  0.00  0.00    +0.029 C 
BRANCH  10  14
ATOM     13  C   UNL     1       4.279   7.841  -2.887  0.00  0.00    +0.320 C 
ATOM     14  N   UNL     1       3.343   7.412  -3.866  0.00  0.00    -0.194 NA
ATOM     15  O   UNL     1       5.447   7.372  -2.974  0.00  0.00    -0.263 OA
BRANCH  13  19
ATOM     16  C   UNL     1       3.269  11.170   0.550  0.00  0.00    +0.097 C 
ATOM     17  C   UNL     1       3.493   9.840  -0.074  0.00  0.00    +0.227 A 
ATOM     18  O   UNL     1       3.684   9.635  -1.363  0.00  0.00    -0.416 OA
ATOM     19  C   UNL     1       3.883   8.344  -1.567  0.00  0.00    +0.306 A 
ATOM     20  N   UNL     1       4.242   7.878  -0.347  0.00  0.00    -0.102 NA
ATOM     21  N   UNL     1       4.107   8.832   0.550  0.00  0.00    -0.111 NA
ENDBRANCH  13  19
ENDBRANCH  10  14
ENDBRANCH   1  10
BRANCH   8  22
ATOM     22  C   UNL     1       1.137   5.797  -8.698  0.00  0.00    +0.296 C 
ATOM     23  N   UNL     1       2.015   6.644  -9.109  0.00  0.00    -0.228 NA
ATOM     24  O   UNL     1       0.692   4.873  -9.651  0.00  0.00    -0.264 OA
BRANCH  23  25
ATOM     25  C   UNL     1       2.855   6.419 -10.283  0.00  0.00    +0.155 C 
BRANCH  25  26
ATOM     26  C   UNL     1       4.299   6.510  -9.953  0.00  0.00    +0.002 A 
ATOM     27  C   UNL     1       5.103   7.302 -10.736  0.00  0.00    -0.000 A 
ATOM     28  C   UNL     1       6.458   7.008 -10.813  0.00  0.00    +0.029 A 
ATOM     29  C   UNL     1       6.978   5.950 -10.089  0.00  0.00    +0.140 A 
ATOM     30  F   UNL     1       8.232   5.466 -10.291  0.00  0.00    -0.204 F 
ATOM     31  C   UNL     1       6.223   5.431  -9.054  0.00  0.00    +0.029 A 
ATOM     32  C   UNL     1       4.857   5.546  -9.145  0.00  0.00    -0.000 A 
ENDBRANCH  25  26
ENDBRANCH  23  25
ENDBRANCH   8  22
TORSDOF 6
ENDMDL
MODEL 4
REMARK VINA RESULT:      -8.5      5.960      9.973
REMARK  Name = 
REMARK  6 active torsions:
REMARK  status: ('A' for Active; 'I' for Inactive)
REMARK    1  A    between atoms: C_5  and  C_6
REMARK    2  A    between atoms: N_8  and  C_9
REMARK    3  A    between atoms: C_9  and  C_12
REMARK    4  A    between atoms: C_14  and  C_15
REMARK    5  A    between atoms: N_17  and  C_18
REMARK    6  A    between atoms: C_18  and  C_19
REMARK                            x       y       z     vdW  Elec       q    Type
REMARK                         _______ _______ _______ _____ _____    ______ ____
ROOT
ATOM      1  C   UNL     1       4.212   6.335 -11.312  0.00  0.00    +0.141 A 
ATOM      2  N   UNL     1       3.177   6.213 -12.144  0.00  0.00    -0.278 N 
ATOM      3  C   UNL     1       3.437   5.802 -13.516  0.00  0.00    +0.135 C 
ATOM      4  C   UNL     1       1.931   6.255 -11.649  0.00  0.00    +0.303 A 
ATOM      5  O   UNL     1       0.955   6.343 -12.452  0.00  0.00    -0.263 OA
ATOM      6  C   UNL     1       1.709   6.064 -10.292  0.00  0.00    +0.273 A 
ATOM      7  O   UNL     1       0.452   5.667  -9.828  0.00  0.00    -0.280 OA
ATOM      8  C   UNL     1       2.805   5.998  -9.442  0.00  0.00    +0.183 A 
ATOM      9  N   UNL     1       3.980   6.379  -9.999  0.00  0.00    -0.222 NA
ENDROOT
BRANCH   1  10
ATOM     10  C   UNL     1       5.635   6.406 -11.767  0.00  0.00    +0.129 C 
ATOM     11  C   UNL     1       6.413   5.477 -10.862  0.00  0.00    +0.029 C 
ATOM     12  C   UNL     1       6.077   7.836 -11.477  0.00  0.00    +0.029 C 
BRANCH  10  14
ATOM     13  C   UNL     1       6.980   6.247 -13.903  0.00  0.00    +0.320 C 
ATOM     14  N   UNL     1       5.780   6.071 -13.163  0.00  0.00    -0.194 NA
ATOM     15  O   UNL     1       8.057   6.255 -13.245  0.00  0.00    -0.263 OA
BRANCH  13  19
ATOM     16  C   UNL     1       5.838   9.522 -17.350  0.00  0.00    +0.097 C 
ATOM     17  C   UNL     1       6.460   8.330 -16.717  0.00  0.00    +0.227 A 
ATOM     18  O   UNL     1       6.395   8.040 -15.431  0.00  0.00    -0.416 OA
ATOM     19  C   UNL     1       7.023   6.897 -15.217  0.00  0.00    +0.306 A 
ATOM     20  N   UNL     1       7.064   6.319 -16.440  0.00  0.00    -0.102 NA
ATOM     21  N   UNL     1       6.612   7.162 -17.346  0.00  0.00    -0.111 NA
ENDBRANCH  13  19
ENDBRANCH  10  14
ENDBRANCH   1  10
BRANCH   8  22
ATOM     22  C   UNL     1       2.761   5.172  -8.225  0.00  0.00    +0.296 C 
ATOM     23  N   UNL     1       2.322   5.629  -7.103  0.00  0.00    -0.228 NA
ATOM     24  O   UNL     1       2.554   3.806  -8.446  0.00  0.00    -0.264 OA
BRANCH  23  25
ATOM     25  C   UNL     1       1.287   4.961  -6.318  0.00  0.00    +0.155 C 
BRANCH  25  26
ATOM     26  C   UNL     1       0.076   5.806  -6.171  0.00  0.00    +0.002 A 
ATOM     27  C   UNL     1       0.155   6.936  -5.394  0.00  0.00    -0.000 A 
ATOM     28  C   UNL     1      -1.006   7.425  -4.809  0.00  0.00    +0.029 A 
ATOM     29  C   UNL     1      -2.215   6.789  -5.034  0.00  0.00    +0.140 A 
ATOM     30  F   UNL     1      -3.337   7.068  -4.319  0.00  0.00    -0.204 F 
ATOM     31  C   UNL     1      -2.303   5.906  -6.093  0.00  0.00    +0.029 A 
ATOM     32  C   UNL     1      -1.151   5.268  -6.484  0.00  0.00    -0.000 A 
ENDBRANCH  25  26
ENDBRANCH  23  25
ENDBRANCH   8  22
TORSDOF 6
ENDMDL
MODEL 5
REMARK VINA RESULT:      -8.5      3.748      8.921
REMARK  Name = 
REMARK  6 active torsions:
REMARK  status: ('A' for Active; 'I' for Inactive)
REMARK    1  A    between atoms: C_5  and  C_6
REMARK    2  A    between atoms: N_8  and  C_9
REMARK    3  A    between atoms: C_9  and  C_12
REMARK    4  A    between atoms: C_14  and  C_15
REMARK    5  A    between atoms: N_17  and  C_18
REMARK    6  A    between atoms: C_18  and  C_19
REMARK                            x       y       z     vdW  Elec       q    Type
REMARK                         _______ _______ _______ _____ _____    ______ ____
ROOT
ATOM      1  C   UNL     1       3.121   5.702  -4.874  0.00  0.00    +0.141 A 
ATOM      2  N   UNL     1       1.810   5.491  -4.996  0.00  0.00    -0.278 N 
ATOM      3  C   UNL     1       0.917   6.095  -4.018  0.00  0.00    +0.135 C 
ATOM      4  C   UNL     1       1.340   4.927  -6.120  0.00  0.00    +0.303 A 
ATOM      5  O   UNL     1       0.133   4.544  -6.154  0.00  0.00    -0.263 OA
ATOM      6  C   UNL     1       2.122   4.892  -7.267  0.00  0.00    +0.273 A 
ATOM      7  O   UNL     1       1.531   4.729  -8.522  0.00  0.00    -0.280 OA
ATOM      8  C   UNL     1       3.448   5.296  -7.180  0.00  0.00    +0.183 A 
ATOM      9  N   UNL     1       3.913   5.451  -5.917  0.00  0.00    -0.222 NA
ENDROOT
BRANCH   1  10
ATOM     10  C   UNL     1       3.761   6.227  -3.628  0.00  0.00    +0.129 C 
ATOM     11  C   UNL     1       4.902   7.111  -4.082  0.00  0.00    +0.029 C 
ATOM     12  C   UNL     1       4.350   5.004  -2.935  0.00  0.00    +0.029 C 
BRANCH  10  14
ATOM     13  C   UNL     1       3.074   7.267  -1.428  0.00  0.00    +0.320 C 
ATOM     14  N   UNL     1       2.821   6.924  -2.782  0.00  0.00    -0.194 NA
ATOM     15  O   UNL     1       4.283   7.389  -1.088  0.00  0.00    -0.263 OA
BRANCH  13  19
ATOM     16  C   UNL     1      -1.287   6.885   0.752  0.00  0.00    +0.097 C 
ATOM     17  C   UNL     1       0.190   6.888   0.589  0.00  0.00    +0.227 A 
ATOM     18  O   UNL     1       0.821   6.999  -0.565  0.00  0.00    -0.416 OA
ATOM     19  C   UNL     1       2.124   7.000  -0.343  0.00  0.00    +0.306 A 
ATOM     20  N   UNL     1       2.227   7.333   0.966  0.00  0.00    -0.102 NA
ATOM     21  N   UNL     1       1.028   7.373   1.510  0.00  0.00    -0.111 NA
ENDBRANCH  13  19
ENDBRANCH  10  14
ENDBRANCH   1  10
BRANCH   8  22
ATOM     22  C   UNL     1       4.115   5.925  -8.331  0.00  0.00    +0.296 C 
ATOM     23  N   UNL     1       4.832   5.248  -9.159  0.00  0.00    -0.228 NA
ATOM     24  O   UNL     1       3.448   7.032  -8.868  0.00  0.00    -0.264 OA
BRANCH  23  25
ATOM     25  C   UNL     1       4.630   5.286 -10.606  0.00  0.00    +0.155 C 
BRANCH  25  26
ATOM     26  C   UNL     1       5.810   5.843 -11.313  0.00  0.00    +0.002 A 
ATOM     27  C   UNL     1       6.127   5.346 -12.553  0.00  0.00    -0.000 A 
ATOM     28  C   UNL     1       7.444   5.426 -12.988  0.00  0.00    +0.029 A 
ATOM     29  C   UNL     1       8.402   6.019 -12.184  0.00  0.00    +0.140 A 
ATOM     30  F   UNL     1       9.734   5.927 -12.438  0.00  0.00    -0.204 F 
ATOM     31  C   UNL     1       7.977   6.817 -11.139  0.00  0.00    +0.029 A 
ATOM     32  C   UNL     1       6.749   6.541 -10.589  0.00  0.00    -0.000 A 
ENDBRANCH  25  26
ENDBRANCH  23  25
ENDBRANCH   8  22
TORSDOF 6
ENDMDL
MODEL 6
REMARK VINA RESULT:      -8.5      3.254      6.213
REMARK  Name = 
REMARK  6 active torsions:
REMARK  status: ('A' for Active; 'I' for Inactive)
REMARK    1  A    between atoms: C_5  and  C_6
REMARK    2  A    between atoms: N_8  and  C_9
REMARK    3  A    between atoms: C_9  and  C_12
REMARK    4  A    between atoms: C_14  and  C_15
REMARK    5  A    between atoms: N_17  and  C_18
REMARK    6  A    between atoms: C_18  and  C_19
REMARK                            x       y       z     vdW  Elec       q    Type
REMARK                         _______ _______ _______ _____ _____    ______ ____
ROOT
ATOM      1  C   UNL     1       0.582   5.863  -5.697  0.00  0.00    +0.141 A 
ATOM      2  N   UNL     1      -0.721   5.973  -5.961  0.00  0.00    -0.278 N 
ATOM      3  C   UNL     1      -1.257   5.257  -7.108  0.00  0.00    +0.135 C 
ATOM      4  C   UNL     1      -1.526   6.547  -5.053  0.00  0.00    +0.303 A 
ATOM      5  O   UNL     1      -2.715   6.833  -5.383  0.00  0.00    -0.263 OA
ATOM      6  C   UNL     1      -1.107   6.696  -3.738  0.00  0.00    +0.273 A 
ATOM      7  O   UNL     1      -2.039   6.866  -2.712  0.00  0.00    -0.280 OA
ATOM      8  C   UNL     1       0.212   6.395  -3.423  0.00  0.00    +0.183 A 
ATOM      9  N   UNL     1       1.027   6.222  -4.492  0.00  0.00    -0.222 NA
ENDROOT
BRANCH   1  10
ATOM     10  C   UNL     1       1.582   5.336  -6.677  0.00  0.00    +0.129 C 
ATOM     11  C   UNL     1       1.898   3.924  -6.236  0.00  0.00    +0.029 C 
ATOM     12  C   UNL     1       2.828   6.190  -6.474  0.00  0.00    +0.029 C 
BRANCH  10  14
ATOM     13  C   UNL     1       1.830   4.925  -9.159  0.00  0.00    +0.320 C 
ATOM     14  N   UNL     1       1.102   5.400  -8.036  0.00  0.00    -0.194 NA
ATOM     15  O   UNL     1       2.687   4.025  -8.941  0.00  0.00    -0.263 OA
BRANCH  13  19
ATOM     16  C   UNL     1       0.612   6.983 -13.425  0.00  0.00    +0.097 C 
ATOM     17  C   UNL     1       1.454   6.560 -12.275  0.00  0.00    +0.227 A 
ATOM     18  O   UNL     1       0.999   5.982 -11.180  0.00  0.00    -0.416 OA
ATOM     19  C   UNL     1       2.018   5.711 -10.383  0.00  0.00    +0.306 A 
ATOM     20  N   UNL     1       3.089   5.734 -11.212  0.00  0.00    -0.102 NA
ATOM     21  N   UNL     1       2.718   6.150 -12.405  0.00  0.00    -0.111 NA
ENDBRANCH  13  19
ENDBRANCH  10  14
ENDBRANCH   1  10
BRANCH   8  22
ATOM     22  C   UNL     1       0.564   5.873  -2.093  0.00  0.00    +0.296 C 
ATOM     23  N   UNL     1       1.334   4.852  -1.941  0.00  0.00    -0.228 NA
ATOM     24  O   UNL     1       0.624   6.835  -1.078  0.00  0.00    -0.264 OA
BRANCH  23  25
ATOM     25  C   UNL     1       2.515   4.863  -1.081  0.00  0.00    +0.155 C 
BRANCH  25  26
ATOM     26  C   UNL     1       3.697   5.431  -1.777  0.00  0.00    +0.002 A 
ATOM     27  C   UNL     1       4.163   6.661  -1.381  0.00  0.00    -0.000 A 
ATOM     28  C   UNL     1       4.866   7.434  -2.297  0.00  0.00    +0.029 A 
ATOM     29  C   UNL     1       5.104   6.950  -3.571  0.00  0.00    +0.140 A 
ATOM     30  F   UNL     1       5.574   7.733  -4.579  0.00  0.00    -0.204 F 
ATOM     31  C   UNL     1       4.948   5.596  -3.797  0.00  0.00    +0.029 A 
ATOM     32  C   UNL     1       4.056   4.919  -3.003  0.00  0.00    -0.000 A 
ENDBRANCH  25  26
ENDBRANCH  23  25
ENDBRANCH   8  22
TORSDOF 6
ENDMDL
MODEL 7
REMARK VINA RESULT:      -8.4      2.531      6.249
REMARK  Name = 
REMARK  6 active torsions:
REMARK  status: ('A' for Active; 'I' for Inactive)
REMARK    1  A    between atoms: C_5  and  C_6
REMARK    2  A    between atoms: N_8  and  C_9
REMARK    3  A    between atoms: C_9  and  C_12
REMARK    4  A    between atoms: C_14  and  C_15
REMARK    5  A    between atoms: N_17  and  C_18
REMARK    6  A    between atoms: C_18  and  C_19
REMARK                            x       y       z     vdW  Elec       q    Type
REMARK                         _______ _______ _______ _____ _____    ______ ____
ROOT
ATOM      1  C   UNL     1       2.856   5.973  -4.299  0.00  0.00    +0.141 A 
ATOM      2  N   UNL     1       3.977   5.649  -4.945  0.00  0.00    -0.278 N 
ATOM      3  C   UNL     1       5.039   4.990  -4.201  0.00  0.00    +0.135 C 
ATOM      4  C   UNL     1       4.009   5.736  -6.284  0.00  0.00    +0.303 A 
ATOM      5  O   UNL     1       5.122   5.626  -6.879  0.00  0.00    -0.263 OA
ATOM      6  C   UNL     1       2.828   5.804  -7.011  0.00  0.00    +0.273 A 
ATOM      7  O   UNL     1       2.807   5.454  -8.363  0.00  0.00    -0.280 OA
ATOM      8  C   UNL     1       1.631   5.949  -6.322  0.00  0.00    +0.183 A 
ATOM      9  N   UNL     1       1.765   6.262  -5.009  0.00  0.00    -0.222 NA
ENDROOT
BRANCH   1  10
ATOM     10  C   UNL     1       2.743   6.011  -2.808  0.00  0.00    +0.129 C 
ATOM     11  C   UNL     1       3.219   4.662  -2.316  0.00  0.00    +0.029 C 
ATOM     12  C   UNL     1       1.250   6.124  -2.523  0.00  0.00    +0.029 C 
BRANCH  10  14
ATOM     13  C   UNL     1       3.458   7.446  -0.853  0.00  0.00    +0.320 C 
ATOM     14  N   UNL     1       3.485   7.106  -2.231  0.00  0.00    -0.194 NA
ATOM     15  O   UNL     1       3.163   6.522  -0.045  0.00  0.00    -0.263 OA
BRANCH  13  19
ATOM     16  C   UNL     1       3.820  12.323  -0.835  0.00  0.00    +0.097 C 
ATOM     17  C   UNL     1       3.471  10.953  -0.375  0.00  0.00    +0.227 A 
ATOM     18  O   UNL     1       3.626   9.856  -1.092  0.00  0.00    -0.416 OA
ATOM     19  C   UNL     1       3.250   8.815  -0.369  0.00  0.00    +0.306 A 
ATOM     20  N   UNL     1       3.298   9.274   0.904  0.00  0.00    -0.102 NA
ATOM     21  N   UNL     1       3.546  10.567   0.901  0.00  0.00    -0.111 NA
ENDBRANCH  13  19
ENDBRANCH  10  14
ENDBRANCH   1  10
BRANCH   8  22
ATOM     22  C   UNL     1       0.385   5.375  -6.854  0.00  0.00    +0.296 C 
ATOM     23  N   UNL     1      -0.563   4.965  -6.085  0.00  0.00    -0.228 NA
ATOM     24  O   UNL     1      -0.017   5.885  -8.094  0.00  0.00    -0.264 OA
BRANCH  23  25
ATOM     25  C   UNL     1      -1.950   5.400  -6.225  0.00  0.00    +0.155 C 
BRANCH  25  26
ATOM     26  C   UNL     1      -2.418   6.142  -5.028  0.00  0.00    +0.002 A 
ATOM     27  C   UNL     1      -2.058   7.461  -4.891  0.00  0.00    -0.000 A 
ATOM     28  C   UNL     1      -2.001   8.008  -3.616  0.00  0.00    +0.029 A 
ATOM     29  C   UNL     1      -2.325   7.233  -2.516  0.00  0.00    +0.140 A 
ATOM     30  F   UNL     1      -2.071   7.626  -1.240  0.00  0.00    -0.204 F 
ATOM     31  C   UNL     1      -3.023   6.059  -2.725  0.00  0.00    +0.029 A 
ATOM     32  C   UNL     1      -2.859   5.431  -3.936  0.00  0.00    -0.000 A 
ENDBRANCH  25  26
ENDBRANCH  23  25
ENDBRANCH   8  22
TORSDOF 6
ENDMDL
MODEL 8
REMARK VINA RESULT:      -8.1      7.492     11.298
REMARK  Name = 
REMARK  6 active torsions:
REMARK  status: ('A' for Active; 'I' for Inactive)
REMARK    1  A    between atoms: C_5  and  C_6
REMARK    2  A    between atoms: N_8  and  C_9
REMARK    3  A    between atoms: C_9  and  C_12
REMARK    4  A    between atoms: C_14  and  C_15
REMARK    5  A    between atoms: N_17  and  C_18
REMARK    6  A    between atoms: C_18  and  C_19
REMARK                            x       y       z     vdW  Elec       q    Type
REMARK                         _______ _______ _______ _____ _____    ______ ____
ROOT
ATOM      1  C   UNL     1       1.774   5.853 -11.030  0.00  0.00    +0.141 A 
ATOM      2  N   UNL     1       0.705   5.454 -10.340  0.00  0.00    -0.278 N 
ATOM      3  C   UNL     1      -0.340   4.725 -11.043  0.00  0.00    +0.135 C 
ATOM      4  C   UNL     1       0.723   5.537  -9.000  0.00  0.00    +0.303 A 
ATOM      5  O   UNL     1      -0.355   5.351  -8.361  0.00  0.00    -0.263 OA
ATOM      6  C   UNL     1       1.926   5.684  -8.323  0.00  0.00    +0.273 A 
ATOM      7  O   UNL     1       2.026   5.336  -6.973  0.00  0.00    -0.280 OA
ATOM      8  C   UNL     1       3.081   5.911  -9.060  0.00  0.00    +0.183 A 
ATOM      9  N   UNL     1       2.872   6.215 -10.364  0.00  0.00    -0.222 NA
ENDROOT
BRANCH   1  10
ATOM     10  C   UNL     1       1.822   5.901 -12.525  0.00  0.00    +0.129 C 
ATOM     11  C   UNL     1       1.291   4.568 -13.005  0.00  0.00    +0.029 C 
ATOM     12  C   UNL     1       3.304   5.978 -12.874  0.00  0.00    +0.029 C 
BRANCH  10  14
ATOM     13  C   UNL     1       0.895   7.255 -14.448  0.00  0.00    +0.320 C 
ATOM     14  N   UNL     1       1.084   7.018 -13.061  0.00  0.00    -0.194 NA
ATOM     15  O   UNL     1       0.964   6.251 -15.210  0.00  0.00    -0.263 OA
BRANCH  13  19
ATOM     16  C   UNL     1       0.574  12.099 -15.032  0.00  0.00    +0.097 C 
ATOM     17  C   UNL     1       0.924  10.684 -15.322  0.00  0.00    +0.227 A 
ATOM     18  O   UNL     1       0.740   9.677 -14.490  0.00  0.00    -0.416 OA
ATOM     19  C   UNL     1       1.128   8.558 -15.078  0.00  0.00    +0.306 A 
ATOM     20  N   UNL     1       1.120   8.869 -16.396  0.00  0.00    -0.102 NA
ATOM     21  N   UNL     1       0.883  10.156 -16.548  0.00  0.00    -0.111 NA
ENDBRANCH  13  19
ENDBRANCH  10  14
ENDBRANCH   1  10
BRANCH   8  22
ATOM     22  C   UNL     1       4.383   5.423  -8.581  0.00  0.00    +0.296 C 
ATOM     23  N   UNL     1       5.343   5.129  -9.389  0.00  0.00    -0.228 NA
ATOM     24  O   UNL     1       4.772   5.909  -7.328  0.00  0.00    -0.264 OA
BRANCH  23  25
ATOM     25  C   UNL     1       6.691   5.675  -9.258  0.00  0.00    +0.155 C 
BRANCH  25  26
ATOM     26  C   UNL     1       7.207   6.185 -10.553  0.00  0.00    +0.002 A 
ATOM     27  C   UNL     1       6.517   7.190 -11.185  0.00  0.00    -0.000 A 
ATOM     28  C   UNL     1       6.629   7.312 -12.564  0.00  0.00    +0.029 A 
ATOM     29  C   UNL     1       7.444   6.444 -13.270  0.00  0.00    +0.140 A 
ATOM     30  F   UNL     1       7.422   6.356 -14.627  0.00  0.00    -0.204 F 
ATOM     31  C   UNL     1       8.383   5.711 -12.570  0.00  0.00    +0.029 A 
ATOM     32  C   UNL     1       8.108   5.418 -11.256  0.00  0.00    -0.000 A 
ENDBRANCH  25  26
ENDBRANCH  23  25
ENDBRANCH   8  22
TORSDOF 6
ENDMDL
MODEL 9
REMARK VINA RESULT:      -8.1      3.612      8.617
REMARK  Name = 
REMARK  6 active torsions:
REMARK  status: ('A' for Active; 'I' for Inactive)
REMARK    1  A    between atoms: C_5  and  C_6
REMARK    2  A    between atoms: N_8  and  C_9
REMARK    3  A    between atoms: C_9  and  C_12
REMARK    4  A    between atoms: C_14  and  C_15
REMARK    5  A    between atoms: N_17  and  C_18
REMARK    6  A    between atoms: C_18  and  C_19
REMARK                            x       y       z     vdW  Elec       q    Type
REMARK                         _______ _______ _______ _____ _____    ______ ____
ROOT
ATOM      1  C   UNL     1       2.428   5.787  -5.350  0.00  0.00    +0.141 A 
ATOM      2  N   UNL     1       1.184   6.140  -5.673  0.00  0.00    -0.278 N 
ATOM      3  C   UNL     1       0.569   7.245  -4.952  0.00  0.00    +0.135 C 
ATOM      4  C   UNL     1       0.623   5.627  -6.779  0.00  0.00    +0.303 A 
ATOM      5  O   UNL     1      -0.616   5.801  -6.975  0.00  0.00    -0.263 OA
ATOM      6  C   UNL     1       1.414   5.039  -7.757  0.00  0.00    +0.273 A 
ATOM      7  O   UNL     1       0.941   4.907  -9.066  0.00  0.00    -0.280 OA
ATOM      8  C   UNL     1       2.763   4.844  -7.493  0.00  0.00    +0.183 A 
ATOM      9  N   UNL     1       3.121   5.025  -6.198  0.00  0.00    -0.222 NA
ENDROOT
BRANCH   1  10
ATOM     10  C   UNL     1       3.109   6.216  -4.090  0.00  0.00    +0.129 C 
ATOM     11  C   UNL     1       3.985   7.392  -4.464  0.00  0.00    +0.029 C 
ATOM     12  C   UNL     1       4.014   5.051  -3.707  0.00  0.00    +0.029 C 
BRANCH  10  14
ATOM     13  C   UNL     1       1.713   5.602  -2.073  0.00  0.00    +0.320 C 
ATOM     14  N   UNL     1       2.170   6.535  -3.042  0.00  0.00    -0.194 NA
ATOM     15  O   UNL     1       2.469   4.622  -1.827  0.00  0.00    -0.263 OA
BRANCH  13  19
ATOM     16  C   UNL     1      -3.090   5.178  -2.889  0.00  0.00    +0.097 C 
ATOM     17  C   UNL     1      -1.811   5.285  -2.139  0.00  0.00    +0.227 A 
ATOM     18  O   UNL     1      -0.612   5.273  -2.689  0.00  0.00    -0.416 OA
ATOM     19  C   UNL     1       0.297   5.422  -1.739  0.00  0.00    +0.306 A 
ATOM     20  N   UNL     1      -0.400   5.959  -0.710  0.00  0.00    -0.102 NA
ATOM     21  N   UNL     1      -1.684   5.977  -1.003  0.00  0.00    -0.111 NA
ENDBRANCH  13  19
ENDBRANCH  10  14
ENDBRANCH   1  10
BRANCH   8  22
ATOM     22  C   UNL     1       3.754   4.891  -8.580  0.00  0.00    +0.296 C 
ATOM     23  N   UNL     1       4.727   5.734  -8.583  0.00  0.00    -0.228 NA
ATOM     24  O   UNL     1       4.015   3.660  -9.194  0.00  0.00    -0.264 OA
BRANCH  23  25
ATOM     25  C   UNL     1       6.124   5.342  -8.755  0.00  0.00    +0.155 C 
BRANCH  25  26
ATOM     26  C   UNL     1       6.752   6.034  -9.908  0.00  0.00    +0.002 A 
ATOM     27  C   UNL     1       6.011   6.957 -10.603  0.00  0.00    -0.000 A 
ATOM     28  C   UNL     1       6.331   7.208 -11.931  0.00  0.00    +0.029 A 
ATOM     29  C   UNL     1       7.396   6.549 -12.521  0.00  0.00    +0.140 A 
ATOM     30  F   UNL     1       7.621   6.569 -13.862  0.00  0.00    -0.204 F 
ATOM     31  C   UNL     1       8.318   5.929 -11.700  0.00  0.00    +0.029 A 
ATOM     32  C   UNL     1       7.882   5.489 -10.474  0.00  0.00    -0.000 A 
ENDBRANCH  25  26
ENDBRANCH  23  25
ENDBRANCH   8  22
TORSDOF 6
ENDMDL
