MODEL 1
REMARK VINA RESULT:      -5.6      0.000      0.000
REMARK  Name = 
REMARK  2 active torsions:
REMARK  status: ('A' for Active; 'I' for Inactive)
REMARK    1  A    between atoms: C_2  and  C_4
REMARK    2  A    between atoms: C_4  and  C_5
REMARK                            x       y       z     vdW  Elec       q    Type
REMARK                         _______ _______ _______ _____ _____    ______ ____
ROOT
ATOM      1  C   UNL     1       6.622   6.758 -10.815  0.00  0.00    -0.011 A 
ATOM      2  C   UNL     1       5.324   7.253 -10.781  0.00  0.00    -0.004 A 
ATOM      3  C   UNL     1       4.359   6.600 -10.023  0.00  0.00    -0.000 A 
ATOM      4  C   UNL     1       4.708   5.477  -9.281  0.00  0.00    -0.000 A 
ATOM      5  C   UNL     1       6.044   5.425  -8.898  0.00  0.00    -0.000 A 
ATOM      6  C   UNL     1       6.999   6.006  -9.723  0.00  0.00    -0.004 A 
ENDROOT
BRANCH   1   7
ATOM      7  C   UNL     1       7.432   6.884 -12.050  0.00  0.00    +0.140 C 
BRANCH   7   9
ATOM      8  O   UNL     1       9.518   5.856 -12.176  0.00  0.00    -0.245 OA
ATOM      9  C   UNL     1       8.277   5.712 -12.319  0.00  0.00    +0.369 C 
ATOM     10  O   UNL     1       7.709   4.540 -12.832  0.00  0.00    -0.245 OA
ENDBRANCH   7   9
ENDBRANCH   1   7
TORSDOF 2
ENDMDL
MODEL 2
REMARK VINA RESULT:      -5.3      9.700     11.256
REMARK  Name = 
REMARK  2 active torsions:
REMARK  status: ('A' for Active; 'I' for Inactive)
REMARK    1  A    between atoms: C_2  and  C_4
REMARK    2  A    between atoms: C_4  and  C_5
REMARK                            x       y       z     vdW  Elec       q    Type
REMARK                         _______ _______ _______ _____ _____    ______ ____
ROOT
ATOM      1  C   UNL     1      -2.077   6.693  -4.868  0.00  0.00    -0.011 A 
ATOM      2  C   UNL     1      -0.795   7.227  -4.897  0.00  0.00    -0.004 A 
ATOM      3  C   UNL     1       0.185   6.624  -5.677  0.00  0.00    -0.000 A 
ATOM      4  C   UNL     1      -0.135   5.510  -6.446  0.00  0.00    -0.000 A 
ATOM      5  C   UNL     1      -1.472   5.427  -6.823  0.00  0.00    -0.000 A 
ATOM      6  C   UNL     1      -2.438   5.957  -5.977  0.00  0.00    -0.004 A 
ENDROOT
BRANCH   1   7
ATOM      7  C   UNL     1      -2.882   6.762  -3.626  0.00  0.00    +0.140 C 
BRANCH   7   9
ATOM      8  O   UNL     1      -2.840   4.618  -2.715  0.00  0.00    -0.245 OA
ATOM      9  C   UNL     1      -2.452   5.808  -2.593  0.00  0.00    +0.369 C 
ATOM     10  O   UNL     1      -1.748   6.259  -1.471  0.00  0.00    -0.245 OA
ENDBRANCH   7   9
ENDBRANCH   1   7
TORSDOF 2
ENDMDL
MODEL 3
REMARK VINA RESULT:      -5.2      6.733      8.140
REMARK  Name = 
REMARK  2 active torsions:
REMARK  status: ('A' for Active; 'I' for Inactive)
REMARK    1  A    between atoms: C_2  and  C_4
REMARK    2  A    between atoms: C_4  and  C_5
REMARK                            x       y       z     vdW  Elec       q    Type
REMARK                         _______ _______ _______ _____ _____    ______ ____
ROOT
ATOM      1  C   UNL     1       0.214   6.036  -6.504  0.00  0.00    -0.011 A 
ATOM      2  C   UNL     1       0.108   6.828  -5.367  0.00  0.00    -0.004 A 
ATOM      3  C   UNL     1      -1.145   7.238  -4.928  0.00  0.00    -0.000 A 
ATOM      4  C   UNL     1      -2.284   6.825  -5.611  0.00  0.00    -0.000 A 
ATOM      5  C   UNL     1      -2.148   5.623  -6.297  0.00  0.00    -0.000 A 
ATOM      6  C   UNL     1      -0.901   5.283  -6.807  0.00  0.00    -0.004 A 
ENDROOT
BRANCH   1   7
ATOM      7  C   UNL     1       1.381   6.182  -7.405  0.00  0.00    +0.140 C 
BRANCH   7   9
ATOM      8  O   UNL     1       1.980   8.384  -7.869  0.00  0.00    -0.245 OA
ATOM      9  C   UNL     1       2.184   7.383  -7.135  0.00  0.00    +0.369 C 
ATOM     10  O   UNL     1       3.208   7.343  -6.183  0.00  0.00    -0.245 OA
ENDBRANCH   7   9
ENDBRANCH   1   7
TORSDOF 2
ENDMDL
MODEL 4
REMARK VINA RESULT:      -5.1      3.136      4.306
REMARK  Name = 
REMARK  2 active torsions:
REMARK  status: ('A' for Active; 'I' for Inactive)
REMARK    1  A    between atoms: C_2  and  C_4
REMARK    2  A    between atoms: C_4  and  C_5
REMARK                            x       y       z     vdW  Elec       q    Type
REMARK                         _______ _______ _______ _____ _____    ______ ____
ROOT
ATOM      1  C   UNL     1       5.832   5.772  -9.432  0.00  0.00    -0.011 A 
ATOM      2  C   UNL     1       5.029   6.472 -10.325  0.00  0.00    -0.004 A 
ATOM      3  C   UNL     1       5.578   7.497 -11.087  0.00  0.00    -0.000 A 
ATOM      4  C   UNL     1       6.932   7.792 -10.972  0.00  0.00    -0.000 A 
ATOM      5  C   UNL     1       7.728   6.725 -10.565  0.00  0.00    -0.000 A 
ATOM      6  C   UNL     1       7.178   5.764  -9.727  0.00  0.00    -0.004 A 
ENDROOT
BRANCH   1   7
ATOM      7  C   UNL     1       5.262   5.266  -8.161  0.00  0.00    +0.140 C 
BRANCH   7   9
ATOM      8  O   UNL     1       3.043   5.744  -7.635  0.00  0.00    -0.245 OA
ATOM      9  C   UNL     1       3.825   4.966  -8.240  0.00  0.00    +0.369 C 
ATOM     10  O   UNL     1       3.387   3.792  -8.862  0.00  0.00    -0.245 OA
ENDBRANCH   7   9
ENDBRANCH   1   7
TORSDOF 2
ENDMDL
MODEL 5
REMARK VINA RESULT:      -5.1      9.544     11.165
REMARK  Name = 
REMARK  2 active torsions:
REMARK  status: ('A' for Active; 'I' for Inactive)
REMARK    1  A    between atoms: C_2  and  C_4
REMARK    2  A    between atoms: C_4  and  C_5
REMARK                            x       y       z     vdW  Elec       q    Type
REMARK                         _______ _______ _______ _____ _____    ______ ____
ROOT
ATOM      1  C   UNL     1      -1.816   5.875  -4.986  0.00  0.00    -0.011 A 
ATOM      2  C   UNL     1      -2.303   5.467  -6.222  0.00  0.00    -0.004 A 
ATOM      3  C   UNL     1      -1.427   5.318  -7.291  0.00  0.00    -0.000 A 
ATOM      4  C   UNL     1      -0.068   5.545  -7.106  0.00  0.00    -0.000 A 
ATOM      5  C   UNL     1       0.384   5.348  -5.805  0.00  0.00    -0.000 A 
ATOM      6  C   UNL     1      -0.486   5.596  -4.751  0.00  0.00    -0.004 A 
ENDROOT
BRANCH   1   7
ATOM      7  C   UNL     1      -2.648   6.727  -4.104  0.00  0.00    +0.140 C 
BRANCH   7   9
ATOM      8  O   UNL     1      -3.110   6.875  -1.825  0.00  0.00    -0.245 OA
ATOM      9  C   UNL     1      -2.956   6.105  -2.808  0.00  0.00    +0.369 C 
ATOM     10  O   UNL     1      -2.947   4.712  -2.679  0.00  0.00    -0.245 OA
ENDBRANCH   7   9
ENDBRANCH   1   7
TORSDOF 2
ENDMDL
MODEL 6
REMARK VINA RESULT:      -4.8      6.919      8.445
REMARK  Name = 
REMARK  2 active torsions:
REMARK  status: ('A' for Active; 'I' for Inactive)
REMARK    1  A    between atoms: C_2  and  C_4
REMARK    2  A    between atoms: C_4  and  C_5
REMARK                            x       y       z     vdW  Elec       q    Type
REMARK                         _______ _______ _______ _____ _____    ______ ____
ROOT
ATOM      1  C   UNL     1      -0.072   5.485  -6.033  0.00  0.00    -0.011 A 
ATOM      2  C   UNL     1      -1.253   5.305  -6.743  0.00  0.00    -0.004 A 
ATOM      3  C   UNL     1      -2.414   5.940  -6.321  0.00  0.00    -0.000 A 
ATOM      4  C   UNL     1      -2.378   6.778  -5.211  0.00  0.00    -0.000 A 
ATOM      5  C   UNL     1      -1.138   7.356  -4.959  0.00  0.00    -0.000 A 
ATOM      6  C   UNL     1       0.009   6.655  -5.307  0.00  0.00    -0.004 A 
ENDROOT
BRANCH   1   7
ATOM      7  C   UNL     1       0.909   4.380  -5.929  0.00  0.00    +0.140 C 
BRANCH   7   9
ATOM      8  O   UNL     1       2.602   5.224  -7.288  0.00  0.00    -0.245 OA
ATOM      9  C   UNL     1       2.299   4.807  -6.141  0.00  0.00    +0.369 C 
ATOM     10  O   UNL     1       3.250   4.627  -5.130  0.00  0.00    -0.245 OA
ENDBRANCH   7   9
ENDBRANCH   1   7
TORSDOF 2
ENDMDL
MODEL 7
REMARK VINA RESULT:      -4.8     10.766     12.111
REMARK  Name = 
REMARK  2 active torsions:
REMARK  status: ('A' for Active; 'I' for Inactive)
REMARK    1  A    between atoms: C_2  and  C_4
REMARK    2  A    between atoms: C_4  and  C_5
REMARK                            x       y       z     vdW  Elec       q    Type
REMARK                         _______ _______ _______ _____ _____    ______ ____
ROOT
ATOM      1  C   UNL     1      -2.452   6.292  -2.513  0.00  0.00    -0.011 A 
ATOM      2  C   UNL     1      -2.298   7.589  -2.987  0.00  0.00    -0.004 A 
ATOM      3  C   UNL     1      -1.978   7.800  -4.322  0.00  0.00    -0.000 A 
ATOM      4  C   UNL     1      -1.846   6.714  -5.180  0.00  0.00    -0.000 A 
ATOM      5  C   UNL     1      -2.575   5.588  -4.810  0.00  0.00    -0.000 A 
ATOM      6  C   UNL     1      -2.800   5.352  -3.460  0.00  0.00    -0.004 A 
ENDROOT
BRANCH   1   7
ATOM      7  C   UNL     1      -2.057   5.957  -1.124  0.00  0.00    +0.140 C 
BRANCH   7   9
ATOM      8  O   UNL     1       0.031   6.482  -0.234  0.00  0.00    -0.245 OA
ATOM      9  C   UNL     1      -0.618   5.695  -0.970  0.00  0.00    +0.369 C 
ATOM     10  O   UNL     1      -0.004   4.686  -1.720  0.00  0.00    -0.245 OA
ENDBRANCH   7   9
ENDBRANCH   1   7
TORSDOF 2
ENDMDL
MODEL 8
REMARK VINA RESULT:      -4.7      1.212      1.922
REMARK  Name = 
REMARK  2 active torsions:
REMARK  status: ('A' for Active; 'I' for Inactive)
REMARK    1  A    between atoms: C_2  and  C_4
REMARK    2  A    between atoms: C_4  and  C_5
REMARK                            x       y       z     vdW  Elec       q    Type
REMARK                         _______ _______ _______ _____ _____    ______ ____
ROOT
ATOM      1  C   UNL     1       6.271   5.917 -11.084  0.00  0.00    -0.011 A 
ATOM      2  C   UNL     1       6.857   5.677  -9.847  0.00  0.00    -0.004 A 
ATOM      3  C   UNL     1       6.053   5.521  -8.724  0.00  0.00    -0.000 A 
ATOM      4  C   UNL     1       4.670   5.575  -8.853  0.00  0.00    -0.000 A 
ATOM      5  C   UNL     1       4.187   5.215 -10.107  0.00  0.00    -0.000 A 
ATOM      6  C   UNL     1       4.975   5.468 -11.223  0.00  0.00    -0.004 A 
ENDROOT
BRANCH   1   7
ATOM      7  C   UNL     1       6.957   6.778 -12.076  0.00  0.00    +0.140 C 
BRANCH   7   9
ATOM      8  O   UNL     1       7.261   6.649 -14.382  0.00  0.00    -0.245 OA
ATOM      9  C   UNL     1       7.390   6.056 -13.281  0.00  0.00    +0.369 C 
ATOM     10  O   UNL     1       7.805   4.723 -13.188  0.00  0.00    -0.245 OA
ENDBRANCH   7   9
ENDBRANCH   1   7
TORSDOF 2
ENDMDL
MODEL 9
REMARK VINA RESULT:      -4.7      1.161      2.174
REMARK  Name = 
REMARK  2 active torsions:
REMARK  status: ('A' for Active; 'I' for Inactive)
REMARK    1  A    between atoms: C_2  and  C_4
REMARK    2  A    between atoms: C_4  and  C_5
REMARK                            x       y       z     vdW  Elec       q    Type
REMARK                         _______ _______ _______ _____ _____    ______ ____
ROOT
ATOM      1  C   UNL     1       5.920   5.674  -9.967  0.00  0.00    -0.011 A 
ATOM      2  C   UNL     1       5.633   5.196  -8.694  0.00  0.00    -0.004 A 
ATOM      3  C   UNL     1       4.492   5.637  -8.034  0.00  0.00    -0.000 A 
ATOM      4  C   UNL     1       3.631   6.527  -8.666  0.00  0.00    -0.000 A 
ATOM      5  C   UNL     1       3.651   6.469 -10.056  0.00  0.00    -0.000 A 
ATOM      6  C   UNL     1       4.834   6.115 -10.693  0.00  0.00    -0.004 A 
ENDROOT
BRANCH   1   7
ATOM      7  C   UNL     1       7.327   5.867 -10.388  0.00  0.00    +0.140 C 
BRANCH   7   9
ATOM      8  O   UNL     1       7.745   4.563 -12.273  0.00  0.00    -0.245 OA
ATOM      9  C   UNL     1       7.532   5.723 -11.837  0.00  0.00    +0.369 C 
ATOM     10  O   UNL     1       7.606   6.859 -12.651  0.00  0.00    -0.245 OA
ENDBRANCH   7   9
ENDBRANCH   1   7
TORSDOF 2
ENDMDL
