MODEL 1
REMARK VINA RESULT:      -6.3      0.000      0.000
REMARK  Name = 
REMARK  2 active torsions:
REMARK  status: ('A' for Active; 'I' for Inactive)
REMARK    1  A    between atoms: C_7  and  O_8
REMARK    2  A    between atoms: O_8  and  C_9
REMARK                            x       y       z     vdW  Elec       q    Type
REMARK                         _______ _______ _______ _____ _____    ______ ____
ROOT
ATOM      1  N   UNL     1       2.624   3.824  -8.213  0.00  0.00    -0.100 NA
ATOM      2  C   UNL     1       1.721   4.496  -7.329  0.00  0.00    +0.201 A 
ATOM      3  S   UNL     1       1.892   4.954  -5.680  0.00  0.00    -0.048 S 
ATOM      4  C   UNL     1       0.322   5.611  -5.446  0.00  0.00    +0.053 A 
ATOM      5  C   UNL     1      -0.260   5.274  -6.664  0.00  0.00    +0.090 A 
ATOM      6  C   UNL     1      -1.629   5.498  -6.778  0.00  0.00    +0.023 A 
ATOM      7  C   UNL     1      -2.396   5.625  -5.626  0.00  0.00    +0.039 A 
ATOM      8  C   UNL     1      -1.837   6.209  -4.514  0.00  0.00    +0.147 A 
ATOM      9  C   UNL     1      -0.453   6.109  -4.406  0.00  0.00    +0.045 A 
ATOM     10  N   UNL     1       0.646   5.259  -7.647  0.00  0.00    -0.221 NA
ENDROOT
BRANCH   8  11
ATOM     11  O   UNL     1      -2.517   6.999  -3.616  0.00  0.00    -0.404 OA
BRANCH  11  12
ATOM     12  C   UNL     1      -3.163   6.438  -2.502  0.00  0.00    +0.575 C 
ATOM     13  F   UNL     1      -4.519   6.541  -2.678  0.00  0.00    -0.133 F 
ATOM     14  F   UNL     1      -2.771   7.163  -1.392  0.00  0.00    -0.133 F 
ATOM     15  F   UNL     1      -2.829   5.122  -2.279  0.00  0.00    -0.133 F 
ENDBRANCH  11  12
ENDBRANCH   8  11
TORSDOF 2
ENDMDL
MODEL 2
REMARK VINA RESULT:      -6.2      8.668     10.292
REMARK  Name = 
REMARK  2 active torsions:
REMARK  status: ('A' for Active; 'I' for Inactive)
REMARK    1  A    between atoms: C_7  and  O_8
REMARK    2  A    between atoms: O_8  and  C_9
REMARK                            x       y       z     vdW  Elec       q    Type
REMARK                         _______ _______ _______ _____ _____    ______ ____
ROOT
ATOM      1  N   UNL     1       1.288   5.123  -7.932  0.00  0.00    -0.100 NA
ATOM      2  C   UNL     1       2.601   5.301  -8.470  0.00  0.00    +0.201 A 
ATOM      3  S   UNL     1       4.150   5.124  -7.744  0.00  0.00    -0.048 S 
ATOM      4  C   UNL     1       5.106   5.606  -9.087  0.00  0.00    +0.053 A 
ATOM      5  C   UNL     1       4.101   6.012  -9.959  0.00  0.00    +0.090 A 
ATOM      6  C   UNL     1       4.514   6.649 -11.126  0.00  0.00    +0.023 A 
ATOM      7  C   UNL     1       5.783   7.213 -11.179  0.00  0.00    +0.039 A 
ATOM      8  C   UNL     1       6.810   6.612 -10.490  0.00  0.00    +0.147 A 
ATOM      9  C   UNL     1       6.440   5.868  -9.374  0.00  0.00    +0.045 A 
ATOM     10  N   UNL     1       2.981   5.306  -9.772  0.00  0.00    -0.221 NA
ENDROOT
BRANCH   8  11
ATOM     11  O   UNL     1       8.118   6.565 -10.915  0.00  0.00    -0.404 OA
BRANCH  11  12
ATOM     12  C   UNL     1       8.483   5.832 -12.056  0.00  0.00    +0.575 C 
ATOM     13  F   UNL     1       7.834   4.625 -12.033  0.00  0.00    -0.133 F 
ATOM     14  F   UNL     1       9.850   5.639 -12.000  0.00  0.00    -0.133 F 
ATOM     15  F   UNL     1       8.203   6.480 -13.237  0.00  0.00    -0.133 F 
ENDBRANCH  11  12
ENDBRANCH   8  11
TORSDOF 2
ENDMDL
MODEL 3
REMARK VINA RESULT:      -6.0      1.917      2.201
REMARK  Name = 
REMARK  2 active torsions:
REMARK  status: ('A' for Active; 'I' for Inactive)
REMARK    1  A    between atoms: C_7  and  O_8
REMARK    2  A    between atoms: O_8  and  C_9
REMARK                            x       y       z     vdW  Elec       q    Type
REMARK                         _______ _______ _______ _____ _____    ______ ____
ROOT
ATOM      1  N   UNL     1       4.255   4.504  -8.900  0.00  0.00    -0.100 NA
ATOM      2  C   UNL     1       3.161   4.887  -8.062  0.00  0.00    +0.201 A 
ATOM      3  S   UNL     1       3.032   4.981  -6.349  0.00  0.00    -0.048 S 
ATOM      4  C   UNL     1       1.379   5.441  -6.254  0.00  0.00    +0.053 A 
ATOM      5  C   UNL     1       1.026   5.336  -7.595  0.00  0.00    +0.090 A 
ATOM      6  C   UNL     1      -0.327   5.468  -7.891  0.00  0.00    +0.023 A 
ATOM      7  C   UNL     1      -1.265   5.274  -6.884  0.00  0.00    +0.039 A 
ATOM      8  C   UNL     1      -0.947   5.640  -5.597  0.00  0.00    +0.147 A 
ATOM      9  C   UNL     1       0.407   5.631  -5.279  0.00  0.00    +0.045 A 
ATOM     10  N   UNL     1       2.063   5.612  -8.393  0.00  0.00    -0.221 NA
ENDROOT
BRANCH   8  11
ATOM     11  O   UNL     1      -1.840   6.154  -4.684  0.00  0.00    -0.404 OA
BRANCH  11  12
ATOM     12  C   UNL     1      -2.105   7.532  -4.629  0.00  0.00    +0.575 C 
ATOM     13  F   UNL     1      -3.116   7.824  -5.508  0.00  0.00    -0.133 F 
ATOM     14  F   UNL     1      -0.947   8.189  -4.999  0.00  0.00    -0.133 F 
ATOM     15  F   UNL     1      -2.451   7.975  -3.373  0.00  0.00    -0.133 F 
ENDBRANCH  11  12
ENDBRANCH   8  11
TORSDOF 2
ENDMDL
MODEL 4
REMARK VINA RESULT:      -6.0      9.321     10.282
REMARK  Name = 
REMARK  2 active torsions:
REMARK  status: ('A' for Active; 'I' for Inactive)
REMARK    1  A    between atoms: C_7  and  O_8
REMARK    2  A    between atoms: O_8  and  C_9
REMARK                            x       y       z     vdW  Elec       q    Type
REMARK                         _______ _______ _______ _____ _____    ______ ____
ROOT
ATOM      1  N   UNL     1       0.431   5.972 -15.374  0.00  0.00    -0.100 NA
ATOM      2  C   UNL     1       1.451   5.891 -14.375  0.00  0.00    +0.201 A 
ATOM      3  S   UNL     1       1.499   6.487 -12.762  0.00  0.00    -0.048 S 
ATOM      4  C   UNL     1       3.099   6.000 -12.370  0.00  0.00    +0.053 A 
ATOM      5  C   UNL     1       3.516   5.533 -13.611  0.00  0.00    +0.090 A 
ATOM      6  C   UNL     1       4.864   5.207 -13.729  0.00  0.00    +0.023 A 
ATOM      7  C   UNL     1       5.772   5.730 -12.816  0.00  0.00    +0.039 A 
ATOM      8  C   UNL     1       5.369   5.935 -11.517  0.00  0.00    +0.147 A 
ATOM      9  C   UNL     1       4.009   6.158 -11.331  0.00  0.00    +0.045 A 
ATOM     10  N   UNL     1       2.494   5.025 -14.308  0.00  0.00    -0.221 NA
ENDROOT
BRANCH   8  11
ATOM     11  O   UNL     1       6.174   5.777 -10.412  0.00  0.00    -0.404 OA
BRANCH  11  12
ATOM     12  C   UNL     1       7.391   6.469 -10.297  0.00  0.00    +0.575 C 
ATOM     13  F   UNL     1       7.820   6.397  -8.997  0.00  0.00    -0.133 F 
ATOM     14  F   UNL     1       7.149   7.785 -10.646  0.00  0.00    -0.133 F 
ATOM     15  F   UNL     1       8.375   5.991 -11.130  0.00  0.00    -0.133 F 
ENDBRANCH  11  12
ENDBRANCH   8  11
TORSDOF 2
ENDMDL
MODEL 5
REMARK VINA RESULT:      -6.0      7.475      8.981
REMARK  Name = 
REMARK  2 active torsions:
REMARK  status: ('A' for Active; 'I' for Inactive)
REMARK    1  A    between atoms: C_7  and  O_8
REMARK    2  A    between atoms: O_8  and  C_9
REMARK                            x       y       z     vdW  Elec       q    Type
REMARK                         _______ _______ _______ _____ _____    ______ ____
ROOT
ATOM      1  N   UNL     1       1.244   4.617  -5.372  0.00  0.00    -0.100 NA
ATOM      2  C   UNL     1       2.319   4.776  -6.303  0.00  0.00    +0.201 A 
ATOM      3  S   UNL     1       3.904   5.410  -6.097  0.00  0.00    -0.048 S 
ATOM      4  C   UNL     1       4.433   5.278  -7.726  0.00  0.00    +0.053 A 
ATOM      5  C   UNL     1       3.246   4.877  -8.329  0.00  0.00    +0.090 A 
ATOM      6  C   UNL     1       3.242   4.837  -9.720  0.00  0.00    +0.023 A 
ATOM      7  C   UNL     1       4.196   5.562 -10.424  0.00  0.00    +0.039 A 
ATOM      8  C   UNL     1       5.452   5.711  -9.884  0.00  0.00    +0.147 A 
ATOM      9  C   UNL     1       5.529   5.649  -8.497  0.00  0.00    +0.045 A 
ATOM     10  N   UNL     1       2.498   4.149  -7.493  0.00  0.00    -0.221 NA
ENDROOT
BRANCH   8  11
ATOM     11  O   UNL     1       6.619   5.753 -10.612  0.00  0.00    -0.404 OA
BRANCH  11  12
ATOM     12  C   UNL     1       7.231   6.977 -10.929  0.00  0.00    +0.575 C 
ATOM     13  F   UNL     1       7.977   6.816 -12.069  0.00  0.00    -0.133 F 
ATOM     14  F   UNL     1       8.050   7.314  -9.868  0.00  0.00    -0.133 F 
ATOM     15  F   UNL     1       6.338   8.007 -11.109  0.00  0.00    -0.133 F 
ENDBRANCH  11  12
ENDBRANCH   8  11
TORSDOF 2
ENDMDL
MODEL 6
REMARK VINA RESULT:      -6.0      2.654      3.696
REMARK  Name = 
REMARK  2 active torsions:
REMARK  status: ('A' for Active; 'I' for Inactive)
REMARK    1  A    between atoms: C_7  and  O_8
REMARK    2  A    between atoms: O_8  and  C_9
REMARK                            x       y       z     vdW  Elec       q    Type
REMARK                         _______ _______ _______ _____ _____    ______ ____
ROOT
ATOM      1  N   UNL     1       5.385   5.382  -9.832  0.00  0.00    -0.100 NA
ATOM      2  C   UNL     1       4.055   5.277  -9.316  0.00  0.00    +0.201 A 
ATOM      3  S   UNL     1       2.618   6.130  -9.723  0.00  0.00    -0.048 S 
ATOM      4  C   UNL     1       1.571   5.409  -8.568  0.00  0.00    +0.053 A 
ATOM      5  C   UNL     1       2.493   4.653  -7.852  0.00  0.00    +0.090 A 
ATOM      6  C   UNL     1       2.026   4.047  -6.689  0.00  0.00    +0.023 A 
ATOM      7  C   UNL     1       0.871   4.532  -6.087  0.00  0.00    +0.039 A 
ATOM      8  C   UNL     1      -0.131   5.043  -6.878  0.00  0.00    +0.147 A 
ATOM      9  C   UNL     1       0.270   5.564  -8.104  0.00  0.00    +0.045 A 
ATOM     10  N   UNL     1       3.498   4.245  -8.633  0.00  0.00    -0.221 NA
ENDROOT
BRANCH   8  11
ATOM     11  O   UNL     1      -1.476   4.926  -6.614  0.00  0.00    -0.404 OA
BRANCH  11  12
ATOM     12  C   UNL     1      -2.161   5.919  -5.894  0.00  0.00    +0.575 C 
ATOM     13  F   UNL     1      -2.746   5.344  -4.796  0.00  0.00    -0.133 F 
ATOM     14  F   UNL     1      -3.130   6.439  -6.732  0.00  0.00    -0.133 F 
ATOM     15  F   UNL     1      -1.357   6.959  -5.492  0.00  0.00    -0.133 F 
ENDBRANCH  11  12
ENDBRANCH   8  11
TORSDOF 2
ENDMDL
MODEL 7
REMARK VINA RESULT:      -6.0      8.787     10.373
REMARK  Name = 
REMARK  2 active torsions:
REMARK  status: ('A' for Active; 'I' for Inactive)
REMARK    1  A    between atoms: C_7  and  O_8
REMARK    2  A    between atoms: O_8  and  C_9
REMARK                            x       y       z     vdW  Elec       q    Type
REMARK                         _______ _______ _______ _____ _____    ______ ____
ROOT
ATOM      1  N   UNL     1       0.428   5.369  -9.371  0.00  0.00    -0.100 NA
ATOM      2  C   UNL     1       1.768   5.687  -9.759  0.00  0.00    +0.201 A 
ATOM      3  S   UNL     1       2.450   5.998 -11.306  0.00  0.00    -0.048 S 
ATOM      4  C   UNL     1       4.085   6.197 -10.817  0.00  0.00    +0.053 A 
ATOM      5  C   UNL     1       3.974   5.851  -9.475  0.00  0.00    +0.090 A 
ATOM      6  C   UNL     1       5.167   5.722  -8.769  0.00  0.00    +0.023 A 
ATOM      7  C   UNL     1       6.352   5.524  -9.467  0.00  0.00    +0.039 A 
ATOM      8  C   UNL     1       6.506   6.113 -10.701  0.00  0.00    +0.147 A 
ATOM      9  C   UNL     1       5.333   6.365 -11.405  0.00  0.00    +0.045 A 
ATOM     10  N   UNL     1       2.772   6.174  -8.987  0.00  0.00    -0.221 NA
ENDROOT
BRANCH   8  11
ATOM     11  O   UNL     1       7.694   6.601 -11.195  0.00  0.00    -0.404 OA
BRANCH  11  12
ATOM     12  C   UNL     1       8.386   5.926 -12.214  0.00  0.00    +0.575 C 
ATOM     13  F   UNL     1       8.003   6.442 -13.425  0.00  0.00    -0.133 F 
ATOM     14  F   UNL     1       8.038   4.592 -12.133  0.00  0.00    -0.133 F 
ATOM     15  F   UNL     1       9.754   6.007 -12.095  0.00  0.00    -0.133 F 
ENDBRANCH  11  12
ENDBRANCH   8  11
TORSDOF 2
ENDMDL
MODEL 8
REMARK VINA RESULT:      -5.9      1.903      2.649
REMARK  Name = 
REMARK  2 active torsions:
REMARK  status: ('A' for Active; 'I' for Inactive)
REMARK    1  A    between atoms: C_7  and  O_8
REMARK    2  A    between atoms: O_8  and  C_9
REMARK                            x       y       z     vdW  Elec       q    Type
REMARK                         _______ _______ _______ _____ _____    ______ ____
ROOT
ATOM      1  N   UNL     1       3.996   4.608  -9.571  0.00  0.00    -0.100 NA
ATOM      2  C   UNL     1       2.828   4.766  -8.760  0.00  0.00    +0.201 A 
ATOM      3  S   UNL     1       1.333   5.553  -9.078  0.00  0.00    -0.048 S 
ATOM      4  C   UNL     1       0.596   5.306  -7.546  0.00  0.00    +0.053 A 
ATOM      5  C   UNL     1       1.666   4.745  -6.856  0.00  0.00    +0.090 A 
ATOM      6  C   UNL     1       1.494   4.566  -5.487  0.00  0.00    +0.023 A 
ATOM      7  C   UNL     1       0.516   5.298  -4.824  0.00  0.00    +0.039 A 
ATOM      8  C   UNL     1      -0.649   5.609  -5.486  0.00  0.00    +0.147 A 
ATOM      9  C   UNL     1      -0.556   5.692  -6.871  0.00  0.00    +0.045 A 
ATOM     10  N   UNL     1       2.456   4.042  -7.675  0.00  0.00    -0.221 NA
ENDROOT
BRANCH   8  11
ATOM     11  O   UNL     1      -1.891   5.679  -4.898  0.00  0.00    -0.404 OA
BRANCH  11  12
ATOM     12  C   UNL     1      -2.457   6.916  -4.546  0.00  0.00    +0.575 C 
ATOM     13  F   UNL     1      -3.427   6.705  -3.601  0.00  0.00    -0.133 F 
ATOM     14  F   UNL     1      -3.016   7.452  -5.691  0.00  0.00    -0.133 F 
ATOM     15  F   UNL     1      -1.540   7.822  -4.067  0.00  0.00    -0.133 F 
ENDBRANCH  11  12
ENDBRANCH   8  11
TORSDOF 2
ENDMDL
MODEL 9
REMARK VINA RESULT:      -5.8      9.116     10.616
REMARK  Name = 
REMARK  2 active torsions:
REMARK  status: ('A' for Active; 'I' for Inactive)
REMARK    1  A    between atoms: C_7  and  O_8
REMARK    2  A    between atoms: O_8  and  C_9
REMARK                            x       y       z     vdW  Elec       q    Type
REMARK                         _______ _______ _______ _____ _____    ______ ____
ROOT
ATOM      1  N   UNL     1      -0.220   6.496 -11.423  0.00  0.00    -0.100 NA
ATOM      2  C   UNL     1       1.158   6.129 -11.542  0.00  0.00    +0.201 A 
ATOM      3  S   UNL     1       2.423   6.109 -10.377  0.00  0.00    -0.048 S 
ATOM      4  C   UNL     1       3.703   5.622 -11.414  0.00  0.00    +0.053 A 
ATOM      5  C   UNL     1       3.043   5.661 -12.638  0.00  0.00    +0.090 A 
ATOM      6  C   UNL     1       3.832   5.491 -13.772  0.00  0.00    +0.023 A 
ATOM      7  C   UNL     1       5.202   5.711 -13.686  0.00  0.00    +0.039 A 
ATOM      8  C   UNL     1       5.854   5.409 -12.514  0.00  0.00    +0.147 A 
ATOM      9  C   UNL     1       5.081   5.457 -11.359  0.00  0.00    +0.045 A 
ATOM     10  N   UNL     1       1.745   5.370 -12.500  0.00  0.00    -0.221 NA
ENDROOT
BRANCH   8  11
ATOM     11  O   UNL     1       7.138   4.918 -12.435  0.00  0.00    -0.404 OA
BRANCH  11  12
ATOM     12  C   UNL     1       8.157   5.657 -11.812  0.00  0.00    +0.575 C 
ATOM     13  F   UNL     1       9.310   5.522 -12.541  0.00  0.00    -0.133 F 
ATOM     14  F   UNL     1       8.331   5.131 -10.546  0.00  0.00    -0.133 F 
ATOM     15  F   UNL     1       7.860   6.992 -11.670  0.00  0.00    -0.133 F 
ENDBRANCH  11  12
ENDBRANCH   8  11
TORSDOF 2
ENDMDL
