MODEL 1
REMARK VINA RESULT:     -10.1      0.000      0.000
REMARK  Name = 
REMARK  8 active torsions:
REMARK  status: ('A' for Active; 'I' for Inactive)
REMARK    1  A    between atoms: O_2  and  C_3
REMARK    2  A    between atoms: C_3  and  C_5
REMARK    3  A    between atoms: C_15  and  N_16
REMARK    4  A    between atoms: C_15  and  C_35
REMARK    5  A    between atoms: N_16  and  C_17
REMARK    6  A    between atoms: C_20  and  N_21
REMARK    7  A    between atoms: C_23  and  C_25
REMARK    8  A    between atoms: C_25  and  N_26
REMARK                            x       y       z     vdW  Elec       q    Type
REMARK                         _______ _______ _______ _____ _____    ______ ____
ROOT
ATOM      1  C   UNL     1       6.179   5.928 -11.758  0.00  0.00    +0.077 A 
ATOM      2  C   UNL     1       6.664   5.739 -10.480  0.00  0.00    +0.023 A 
ATOM      3  C   UNL     1       5.721   5.609  -9.468  0.00  0.00    +0.074 A 
ATOM      4  N   UNL     1       5.944   5.454  -8.063  0.00  0.00    -0.175 NA
ATOM      5  C   UNL     1       4.674   5.505  -7.409  0.00  0.00    +0.270 C 
ATOM      6  C   UNL     1       3.661   5.759  -8.430  0.00  0.00    +0.072 C 
ATOM      7  C   UNL     1       2.373   6.016  -8.203  0.00  0.00    +0.075 C 
ATOM      8  O   UNL     1       4.438   5.331  -6.184  0.00  0.00    -0.268 OA
ATOM      9  C   UNL     1       4.358   5.704  -9.720  0.00  0.00    +0.021 A 
ATOM     10  C   UNL     1       3.922   5.951 -11.016  0.00  0.00    +0.002 A 
ATOM     11  C   UNL     1       4.886   6.376 -11.921  0.00  0.00    +0.007 A 
ENDROOT
BRANCH   7  12
ATOM     12  C   UNL     1       1.464   5.863  -9.317  0.00  0.00    +0.015 A 
ATOM     13  C   UNL     1       0.895   6.942  -9.960  0.00  0.00    +0.001 A 
ATOM     14  C   UNL     1      -0.054   6.800 -10.948  0.00  0.00    +0.000 A 
ATOM     15  C   UNL     1      -0.141   5.560 -11.554  0.00  0.00    +0.000 A 
ATOM     16  C   UNL     1       0.236   4.436 -10.850  0.00  0.00    +0.000 A 
ATOM     17  C   UNL     1       1.087   4.610  -9.766  0.00  0.00    +0.001 A 
ENDBRANCH   7  12
BRANCH   1  18
ATOM     18  C   UNL     1       7.045   5.575 -12.890  0.00  0.00    +0.341 C 
ATOM     19  O   UNL     1       7.835   4.592 -12.803  0.00  0.00    -0.245 OA
BRANCH  18  21
ATOM     20  C   UNL     1       6.598   6.501 -15.085  0.00  0.00    +0.256 C 
ATOM     21  O   UNL     1       7.331   6.507 -13.877  0.00  0.00    -0.441 OA
ENDBRANCH  18  21
ENDBRANCH   1  18
BRANCH   7  22
ATOM     22  N   UNL     1       2.054   6.637  -6.976  0.00  0.00    -0.212 NA
BRANCH  22  23
ATOM     23  C   UNL     1       0.841   6.472  -6.274  0.00  0.00    +0.071 A 
ATOM     24  C   UNL     1       0.223   5.232  -6.375  0.00  0.00    +0.018 A 
ATOM     25  C   UNL     1      -0.750   4.880  -5.474  0.00  0.00    +0.016 A 
ATOM     26  C   UNL     1      -1.147   5.801  -4.517  0.00  0.00    +0.054 A 
ATOM     27  C   UNL     1      -0.810   7.129  -4.740  0.00  0.00    +0.016 A 
ATOM     28  C   UNL     1       0.140   7.499  -5.684  0.00  0.00    +0.018 A 
BRANCH  26  29
ATOM     29  N   UNL     1      -1.744   5.390  -3.282  0.00  0.00    -0.256 N 
ATOM     30  C   UNL     1      -0.995   5.599  -2.079  0.00  0.00    +0.246 C 
ATOM     31  O   UNL     1      -1.285   6.651  -1.437  0.00  0.00    -0.273 OA
ATOM     32  C   UNL     1      -3.191   5.534  -3.155  0.00  0.00    +0.120 C 
BRANCH  30  33
ATOM     33  C   UNL     1       0.415   5.135  -1.990  0.00  0.00    +0.159 C 
BRANCH  33  34
ATOM     34  N   UNL     1       1.360   6.221  -1.998  0.00  0.00    -0.263 NA
ATOM     35  C   UNL     1       2.377   6.077  -3.019  0.00  0.00    +0.090 C 
ATOM     36  C   UNL     1       3.079   7.424  -3.141  0.00  0.00    +0.090 C 
ATOM     37  N   UNL     1       3.665   7.824  -1.881  0.00  0.00    -0.269 NA
ATOM     38  C   UNL     1       4.786   6.920  -1.632  0.00  0.00    +0.090 C 
ATOM     39  C   UNL     1       2.733   7.764  -0.783  0.00  0.00    +0.090 C 
ATOM     40  C   UNL     1       1.998   6.435  -0.722  0.00  0.00    +0.090 C 
ENDBRANCH  33  34
ENDBRANCH  30  33
ENDBRANCH  26  29
ENDBRANCH  22  23
ENDBRANCH   7  22
TORSDOF 8
ENDMDL
MODEL 2
REMARK VINA RESULT:      -9.8      1.755      3.286
REMARK  Name = 
REMARK  8 active torsions:
REMARK  status: ('A' for Active; 'I' for Inactive)
REMARK    1  A    between atoms: O_2  and  C_3
REMARK    2  A    between atoms: C_3  and  C_5
REMARK    3  A    between atoms: C_15  and  N_16
REMARK    4  A    between atoms: C_15  and  C_35
REMARK    5  A    between atoms: N_16  and  C_17
REMARK    6  A    between atoms: C_20  and  N_21
REMARK    7  A    between atoms: C_23  and  C_25
REMARK    8  A    between atoms: C_25  and  N_26
REMARK                            x       y       z     vdW  Elec       q    Type
REMARK                         _______ _______ _______ _____ _____    ______ ____
ROOT
ATOM      1  C   UNL     1       6.114   5.448 -10.486  0.00  0.00    +0.077 A 
ATOM      2  C   UNL     1       4.939   5.737 -11.148  0.00  0.00    +0.023 A 
ATOM      3  C   UNL     1       3.823   5.991 -10.360  0.00  0.00    +0.074 A 
ATOM      4  N   UNL     1       2.484   6.268 -10.782  0.00  0.00    -0.175 NA
ATOM      5  C   UNL     1       1.660   6.319  -9.615  0.00  0.00    +0.270 C 
ATOM      6  C   UNL     1       2.501   6.006  -8.464  0.00  0.00    +0.072 C 
ATOM      7  C   UNL     1       2.075   5.814  -7.215  0.00  0.00    +0.075 C 
ATOM      8  O   UNL     1       0.435   6.613  -9.557  0.00  0.00    -0.268 OA
ATOM      9  C   UNL     1       3.875   5.919  -8.974  0.00  0.00    +0.021 A 
ATOM     10  C   UNL     1       5.068   5.568  -8.355  0.00  0.00    +0.002 A 
ATOM     11  C   UNL     1       6.053   5.029  -9.173  0.00  0.00    +0.007 A 
ENDROOT
BRANCH   7  12
ATOM     12  C   UNL     1       3.063   5.893  -6.162  0.00  0.00    +0.015 A 
ATOM     13  C   UNL     1       3.480   4.786  -5.455  0.00  0.00    +0.001 A 
ATOM     14  C   UNL     1       4.336   4.872  -4.379  0.00  0.00    +0.000 A 
ATOM     15  C   UNL     1       5.076   6.035  -4.265  0.00  0.00    +0.000 A 
ATOM     16  C   UNL     1       4.579   7.207  -4.794  0.00  0.00    +0.000 A 
ATOM     17  C   UNL     1       3.610   7.107  -5.785  0.00  0.00    +0.001 A 
ENDBRANCH   7  12
BRANCH   1  18
ATOM     18  C   UNL     1       7.383   5.666 -11.191  0.00  0.00    +0.341 C 
ATOM     19  O   UNL     1       8.006   6.757 -11.053  0.00  0.00    -0.245 OA
BRANCH  18  21
ATOM     20  C   UNL     1       7.447   5.412 -13.601  0.00  0.00    +0.256 C 
ATOM     21  O   UNL     1       7.710   4.908 -12.306  0.00  0.00    -0.441 OA
ENDBRANCH  18  21
ENDBRANCH   1  18
BRANCH   7  22
ATOM     22  N   UNL     1       0.762   5.319  -7.060  0.00  0.00    -0.212 NA
BRANCH  22  23
ATOM     23  C   UNL     1      -0.202   5.844  -6.174  0.00  0.00    +0.071 A 
ATOM     24  C   UNL     1      -1.474   5.289  -6.231  0.00  0.00    +0.018 A 
ATOM     25  C   UNL     1      -2.354   5.492  -5.199  0.00  0.00    +0.016 A 
ATOM     26  C   UNL     1      -1.978   6.309  -4.145  0.00  0.00    +0.054 A 
ATOM     27  C   UNL     1      -0.896   7.155  -4.354  0.00  0.00    +0.016 A 
ATOM     28  C   UNL     1      -0.027   6.985  -5.424  0.00  0.00    +0.018 A 
BRANCH  26  29
ATOM     29  N   UNL     1      -2.575   6.186  -2.849  0.00  0.00    -0.256 N 
ATOM     30  C   UNL     1      -1.736   6.393  -1.707  0.00  0.00    +0.246 C 
ATOM     31  O   UNL     1      -1.782   7.554  -1.205  0.00  0.00    -0.273 OA
ATOM     32  C   UNL     1      -3.958   6.630  -2.702  0.00  0.00    +0.120 C 
BRANCH  30  33
ATOM     33  C   UNL     1      -0.440   5.673  -1.595  0.00  0.00    +0.159 C 
BRANCH  33  34
ATOM     34  N   UNL     1       0.657   6.548  -1.272  0.00  0.00    -0.263 NA
ATOM     35  C   UNL     1       1.852   6.264  -2.040  0.00  0.00    +0.090 C 
ATOM     36  C   UNL     1       2.791   7.449  -1.856  0.00  0.00    +0.090 C 
ATOM     37  N   UNL     1       3.110   7.652  -0.460  0.00  0.00    -0.269 NA
ATOM     38  C   UNL     1       3.954   6.531  -0.054  0.00  0.00    +0.090 C 
ATOM     39  C   UNL     1       1.941   7.716   0.380  0.00  0.00    +0.090 C 
ATOM     40  C   UNL     1       0.988   6.558   0.132  0.00  0.00    +0.090 C 
ENDBRANCH  33  34
ENDBRANCH  30  33
ENDBRANCH  26  29
ENDBRANCH  22  23
ENDBRANCH   7  22
TORSDOF 8
ENDMDL
MODEL 3
REMARK VINA RESULT:      -9.8      2.533      8.796
REMARK  Name = 
REMARK  8 active torsions:
REMARK  status: ('A' for Active; 'I' for Inactive)
REMARK    1  A    between atoms: O_2  and  C_3
REMARK    2  A    between atoms: C_3  and  C_5
REMARK    3  A    between atoms: C_15  and  N_16
REMARK    4  A    between atoms: C_15  and  C_35
REMARK    5  A    between atoms: N_16  and  C_17
REMARK    6  A    between atoms: C_20  and  N_21
REMARK    7  A    between atoms: C_23  and  C_25
REMARK    8  A    between atoms: C_25  and  N_26
REMARK                            x       y       z     vdW  Elec       q    Type
REMARK                         _______ _______ _______ _____ _____    ______ ____
ROOT
ATOM      1  C   UNL     1       3.202   5.502  -2.069  0.00  0.00    +0.077 A 
ATOM      2  C   UNL     1       4.167   5.371  -3.047  0.00  0.00    +0.023 A 
ATOM      3  C   UNL     1       3.741   5.485  -4.364  0.00  0.00    +0.074 A 
ATOM      4  N   UNL     1       4.513   5.345  -5.561  0.00  0.00    -0.175 NA
ATOM      5  C   UNL     1       3.614   5.406  -6.671  0.00  0.00    +0.270 C 
ATOM      6  C   UNL     1       2.260   5.523  -6.139  0.00  0.00    +0.072 C 
ATOM      7  C   UNL     1       1.134   5.465  -6.851  0.00  0.00    +0.075 C 
ATOM      8  O   UNL     1       3.911   5.399  -7.896  0.00  0.00    -0.268 OA
ATOM      9  C   UNL     1       2.404   5.682  -4.687  0.00  0.00    +0.021 A 
ATOM     10  C   UNL     1       1.462   5.751  -3.668  0.00  0.00    +0.002 A 
ATOM     11  C   UNL     1       1.878   5.328  -2.412  0.00  0.00    +0.007 A 
ENDROOT
BRANCH   7  12
ATOM     12  C   UNL     1      -0.067   5.973  -6.228  0.00  0.00    +0.015 A 
ATOM     13  C   UNL     1      -1.252   5.267  -6.220  0.00  0.00    +0.001 A 
ATOM     14  C   UNL     1      -2.425   5.793  -5.725  0.00  0.00    +0.000 A 
ATOM     15  C   UNL     1      -2.312   6.885  -4.885  0.00  0.00    +0.000 A 
ATOM     16  C   UNL     1      -1.227   7.726  -5.012  0.00  0.00    +0.000 A 
ATOM     17  C   UNL     1      -0.093   7.226  -5.639  0.00  0.00    +0.001 A 
ENDBRANCH   7  12
BRANCH   1  18
ATOM     18  C   UNL     1       3.628   5.890  -0.719  0.00  0.00    +0.341 C 
ATOM     19  O   UNL     1       4.635   5.341  -0.189  0.00  0.00    -0.245 OA
BRANCH  18  21
ATOM     20  C   UNL     1       2.636   7.926   0.144  0.00  0.00    +0.256 C 
ATOM     21  O   UNL     1       2.744   6.517   0.147  0.00  0.00    -0.441 OA
ENDBRANCH  18  21
ENDBRANCH   1  18
BRANCH   7  22
ATOM     22  N   UNL     1       1.171   4.702  -8.038  0.00  0.00    -0.212 NA
BRANCH  22  23
ATOM     23  C   UNL     1       0.873   5.194  -9.327  0.00  0.00    +0.071 A 
ATOM     24  C   UNL     1       0.980   6.565  -9.515  0.00  0.00    +0.018 A 
ATOM     25  C   UNL     1       1.045   7.077 -10.786  0.00  0.00    +0.016 A 
ATOM     26  C   UNL     1       0.931   6.214 -11.865  0.00  0.00    +0.054 A 
ATOM     27  C   UNL     1       0.405   4.954 -11.615  0.00  0.00    +0.016 A 
ATOM     28  C   UNL     1       0.292   4.446 -10.327  0.00  0.00    +0.018 A 
BRANCH  26  29
ATOM     29  N   UNL     1       1.469   6.545 -13.150  0.00  0.00    -0.256 N 
ATOM     30  C   UNL     1       2.362   5.606 -13.760  0.00  0.00    +0.246 C 
ATOM     31  O   UNL     1       1.831   4.821 -14.600  0.00  0.00    -0.273 OA
ATOM     32  C   UNL     1       0.606   7.280 -14.070  0.00  0.00    +0.120 C 
BRANCH  30  33
ATOM     33  C   UNL     1       3.519   5.073 -12.994  0.00  0.00    +0.159 C 
BRANCH  33  34
ATOM     34  N   UNL     1       4.469   6.096 -12.638  0.00  0.00    -0.263 NA
ATOM     35  C   UNL     1       5.765   5.902 -13.253  0.00  0.00    +0.090 C 
ATOM     36  C   UNL     1       6.540   7.202 -13.077  0.00  0.00    +0.090 C 
ATOM     37  N   UNL     1       6.677   7.544 -11.679  0.00  0.00    -0.269 NA
ATOM     38  C   UNL     1       7.591   6.566 -11.094  0.00  0.00    +0.090 C 
ATOM     39  C   UNL     1       5.422   7.529 -10.971  0.00  0.00    +0.090 C 
ATOM     40  C   UNL     1       4.638   6.249 -11.214  0.00  0.00    +0.090 C 
ENDBRANCH  33  34
ENDBRANCH  30  33
ENDBRANCH  26  29
ENDBRANCH  22  23
ENDBRANCH   7  22
TORSDOF 8
ENDMDL
MODEL 4
REMARK VINA RESULT:      -9.7      2.714      9.045
REMARK  Name = 
REMARK  8 active torsions:
REMARK  status: ('A' for Active; 'I' for Inactive)
REMARK    1  A    between atoms: O_2  and  C_3
REMARK    2  A    between atoms: C_3  and  C_5
REMARK    3  A    between atoms: C_15  and  N_16
REMARK    4  A    between atoms: C_15  and  C_35
REMARK    5  A    between atoms: N_16  and  C_17
REMARK    6  A    between atoms: C_20  and  N_21
REMARK    7  A    between atoms: C_23  and  C_25
REMARK    8  A    between atoms: C_25  and  N_26
REMARK                            x       y       z     vdW  Elec       q    Type
REMARK                         _______ _______ _______ _____ _____    ______ ____
ROOT
ATOM      1  C   UNL     1       2.332   6.556  -3.025  0.00  0.00    +0.077 A 
ATOM      2  C   UNL     1       0.985   6.260  -3.079  0.00  0.00    +0.023 A 
ATOM      3  C   UNL     1       0.486   5.849  -4.308  0.00  0.00    +0.074 A 
ATOM      4  N   UNL     1      -0.865   5.528  -4.654  0.00  0.00    -0.175 NA
ATOM      5  C   UNL     1      -0.913   5.297  -6.064  0.00  0.00    +0.270 C 
ATOM      6  C   UNL     1       0.423   5.542  -6.599  0.00  0.00    +0.072 C 
ATOM      7  C   UNL     1       0.753   5.571  -7.890  0.00  0.00    +0.075 C 
ATOM      8  O   UNL     1      -1.905   4.917  -6.742  0.00  0.00    -0.268 OA
ATOM      9  C   UNL     1       1.291   5.776  -5.438  0.00  0.00    +0.021 A 
ATOM     10  C   UNL     1       2.628   6.139  -5.345  0.00  0.00    +0.002 A 
ATOM     11  C   UNL     1       3.003   6.828  -4.198  0.00  0.00    +0.007 A 
ENDROOT
BRANCH   7  12
ATOM     12  C   UNL     1       2.157   5.446  -8.215  0.00  0.00    +0.015 A 
ATOM     13  C   UNL     1       2.967   6.542  -8.425  0.00  0.00    +0.001 A 
ATOM     14  C   UNL     1       4.274   6.428  -8.842  0.00  0.00    +0.000 A 
ATOM     15  C   UNL     1       4.877   5.196  -8.669  0.00  0.00    +0.000 A 
ATOM     16  C   UNL     1       4.099   4.058  -8.658  0.00  0.00    +0.000 A 
ATOM     17  C   UNL     1       2.747   4.205  -8.371  0.00  0.00    +0.001 A 
ENDBRANCH   7  12
BRANCH   1  18
ATOM     18  C   UNL     1       3.005   6.501  -1.721  0.00  0.00    +0.341 C 
ATOM     19  O   UNL     1       4.010   7.233  -1.494  0.00  0.00    -0.245 OA
BRANCH  18  21
ATOM     20  C   UNL     1       3.580   4.219  -1.140  0.00  0.00    +0.256 C 
ATOM     21  O   UNL     1       2.846   5.402  -0.891  0.00  0.00    -0.441 OA
ENDBRANCH  18  21
ENDBRANCH   1  18
BRANCH   7  22
ATOM     22  N   UNL     1      -0.258   5.956  -8.797  0.00  0.00    -0.212 NA
BRANCH  22  23
ATOM     23  C   UNL     1      -0.134   5.940 -10.203  0.00  0.00    +0.071 A 
ATOM     24  C   UNL     1      -0.335   7.145 -10.863  0.00  0.00    +0.018 A 
ATOM     25  C   UNL     1       0.093   7.294 -12.158  0.00  0.00    +0.016 A 
ATOM     26  C   UNL     1       0.660   6.208 -12.807  0.00  0.00    +0.054 A 
ATOM     27  C   UNL     1       0.439   4.954 -12.255  0.00  0.00    +0.016 A 
ATOM     28  C   UNL     1      -0.039   4.795 -10.960  0.00  0.00    +0.018 A 
BRANCH  26  29
ATOM     29  N   UNL     1       1.557   6.379 -13.911  0.00  0.00    -0.256 N 
ATOM     30  C   UNL     1       2.802   5.672 -13.872  0.00  0.00    +0.246 C 
ATOM     31  O   UNL     1       2.824   4.577 -14.507  0.00  0.00    -0.273 OA
ATOM     32  C   UNL     1       0.967   6.540 -15.237  0.00  0.00    +0.120 C 
BRANCH  30  33
ATOM     33  C   UNL     1       3.668   5.756 -12.666  0.00  0.00    +0.159 C 
BRANCH  33  34
ATOM     34  N   UNL     1       5.025   6.121 -12.980  0.00  0.00    -0.263 NA
ATOM     35  C   UNL     1       5.825   4.996 -13.418  0.00  0.00    +0.090 C 
ATOM     36  C   UNL     1       7.097   5.569 -14.032  0.00  0.00    +0.090 C 
ATOM     37  N   UNL     1       7.821   6.377 -13.077  0.00  0.00    -0.269 NA
ATOM     38  C   UNL     1       8.356   5.462 -12.070  0.00  0.00    +0.090 C 
ATOM     39  C   UNL     1       6.995   7.374 -12.444  0.00  0.00    +0.090 C 
ATOM     40  C   UNL     1       5.702   6.791 -11.897  0.00  0.00    +0.090 C 
ENDBRANCH  33  34
ENDBRANCH  30  33
ENDBRANCH  26  29
ENDBRANCH  22  23
ENDBRANCH   7  22
TORSDOF 8
ENDMDL
MODEL 5
REMARK VINA RESULT:      -9.4      2.680     10.070
REMARK  Name = 
REMARK  8 active torsions:
REMARK  status: ('A' for Active; 'I' for Inactive)
REMARK    1  A    between atoms: O_2  and  C_3
REMARK    2  A    between atoms: C_3  and  C_5
REMARK    3  A    between atoms: C_15  and  N_16
REMARK    4  A    between atoms: C_15  and  C_35
REMARK    5  A    between atoms: N_16  and  C_17
REMARK    6  A    between atoms: C_20  and  N_21
REMARK    7  A    between atoms: C_23  and  C_25
REMARK    8  A    between atoms: C_25  and  N_26
REMARK                            x       y       z     vdW  Elec       q    Type
REMARK                         _______ _______ _______ _____ _____    ______ ____
ROOT
ATOM      1  C   UNL     1      -1.838   5.985  -4.145  0.00  0.00    +0.077 A 
ATOM      2  C   UNL     1      -2.246   5.659  -5.422  0.00  0.00    +0.023 A 
ATOM      3  C   UNL     1      -1.250   5.513  -6.379  0.00  0.00    +0.074 A 
ATOM      4  N   UNL     1      -1.394   5.228  -7.773  0.00  0.00    -0.175 NA
ATOM      5  C   UNL     1      -0.100   5.315  -8.374  0.00  0.00    +0.270 C 
ATOM      6  C   UNL     1       0.844   5.723  -7.337  0.00  0.00    +0.072 C 
ATOM      7  C   UNL     1       2.121   6.051  -7.531  0.00  0.00    +0.075 C 
ATOM      8  O   UNL     1       0.206   5.059  -9.570  0.00  0.00    -0.268 OA
ATOM      9  C   UNL     1       0.090   5.724  -6.078  0.00  0.00    +0.021 A 
ATOM     10  C   UNL     1       0.446   6.107  -4.791  0.00  0.00    +0.002 A 
ATOM     11  C   UNL     1      -0.586   6.536  -3.966  0.00  0.00    +0.007 A 
ENDROOT
BRANCH   7  12
ATOM     12  C   UNL     1       2.984   6.054  -6.370  0.00  0.00    +0.015 A 
ATOM     13  C   UNL     1       3.465   7.219  -5.810  0.00  0.00    +0.001 A 
ATOM     14  C   UNL     1       4.373   7.224  -4.775  0.00  0.00    +0.000 A 
ATOM     15  C   UNL     1       4.495   6.053  -4.049  0.00  0.00    +0.000 A 
ATOM     16  C   UNL     1       4.211   4.848  -4.657  0.00  0.00    +0.000 A 
ATOM     17  C   UNL     1       3.404   4.871  -5.787  0.00  0.00    +0.001 A 
ENDBRANCH   7  12
BRANCH   1  18
ATOM     18  C   UNL     1      -2.732   5.666  -3.025  0.00  0.00    +0.341 C 
ATOM     19  O   UNL     1      -3.818   6.295  -2.882  0.00  0.00    -0.245 OA
BRANCH  18  21
ATOM     20  C   UNL     1      -1.788   5.755  -0.794  0.00  0.00    +0.256 C 
ATOM     21  O   UNL     1      -2.250   5.009  -1.903  0.00  0.00    -0.441 OA
ENDBRANCH  18  21
ENDBRANCH   1  18
BRANCH   7  22
ATOM     22  N   UNL     1       2.456   6.590  -8.791  0.00  0.00    -0.212 NA
BRANCH  22  23
ATOM     23  C   UNL     1       3.747   6.577  -9.362  0.00  0.00    +0.071 A 
ATOM     24  C   UNL     1       4.578   5.522  -9.007  0.00  0.00    +0.018 A 
ATOM     25  C   UNL     1       5.691   5.247  -9.760  0.00  0.00    +0.016 A 
ATOM     26  C   UNL     1       6.004   6.077 -10.826  0.00  0.00    +0.054 A 
ATOM     27  C   UNL     1       5.396   7.325 -10.856  0.00  0.00    +0.016 A 
ATOM     28  C   UNL     1       4.296   7.626 -10.063  0.00  0.00    +0.018 A 
BRANCH  26  29
ATOM     29  N   UNL     1       6.798   5.618 -11.926  0.00  0.00    -0.256 N 
ATOM     30  C   UNL     1       6.179   5.564 -13.216  0.00  0.00    +0.246 C 
ATOM     31  O   UNL     1       6.395   6.563 -13.963  0.00  0.00    -0.273 OA
ATOM     32  C   UNL     1       8.215   5.968 -11.923  0.00  0.00    +0.120 C 
BRANCH  30  33
ATOM     33  C   UNL     1       4.870   4.880 -13.386  0.00  0.00    +0.159 C 
BRANCH  33  34
ATOM     34  N   UNL     1       3.778   5.803 -13.558  0.00  0.00    -0.263 NA
ATOM     35  C   UNL     1       2.612   5.451 -12.774  0.00  0.00    +0.090 C 
ATOM     36  C   UNL     1       1.690   6.664 -12.780  0.00  0.00    +0.090 C 
ATOM     37  N   UNL     1       1.315   7.029 -14.128  0.00  0.00    -0.269 NA
ATOM     38  C   UNL     1       0.432   5.974 -14.620  0.00  0.00    +0.090 C 
ATOM     39  C   UNL     1       2.448   7.170 -15.008  0.00  0.00    +0.090 C 
ATOM     40  C   UNL     1       3.387   5.977 -14.935  0.00  0.00    +0.090 C 
ENDBRANCH  33  34
ENDBRANCH  30  33
ENDBRANCH  26  29
ENDBRANCH  22  23
ENDBRANCH   7  22
TORSDOF 8
ENDMDL
MODEL 6
REMARK VINA RESULT:      -9.3      2.539      5.036
REMARK  Name = 
REMARK  8 active torsions:
REMARK  status: ('A' for Active; 'I' for Inactive)
REMARK    1  A    between atoms: O_2  and  C_3
REMARK    2  A    between atoms: C_3  and  C_5
REMARK    3  A    between atoms: C_15  and  N_16
REMARK    4  A    between atoms: C_15  and  C_35
REMARK    5  A    between atoms: N_16  and  C_17
REMARK    6  A    between atoms: C_20  and  N_21
REMARK    7  A    between atoms: C_23  and  C_25
REMARK    8  A    between atoms: C_25  and  N_26
REMARK                            x       y       z     vdW  Elec       q    Type
REMARK                         _______ _______ _______ _____ _____    ______ ____
ROOT
ATOM      1  C   UNL     1       1.591   6.042 -13.661  0.00  0.00    +0.077 A 
ATOM      2  C   UNL     1       0.613   6.046 -12.687  0.00  0.00    +0.023 A 
ATOM      3  C   UNL     1       1.044   6.121 -11.369  0.00  0.00    +0.074 A 
ATOM      4  N   UNL     1       0.256   6.094 -10.175  0.00  0.00    -0.175 NA
ATOM      5  C   UNL     1       1.150   6.054  -9.060  0.00  0.00    +0.270 C 
ATOM      6  C   UNL     1       2.510   5.991  -9.586  0.00  0.00    +0.072 C 
ATOM      7  C   UNL     1       3.616   5.798  -8.867  0.00  0.00    +0.075 C 
ATOM      8  O   UNL     1       0.849   6.099  -7.837  0.00  0.00    -0.268 OA
ATOM      9  C   UNL     1       2.394   6.149 -11.041  0.00  0.00    +0.021 A 
ATOM     10  C   UNL     1       3.342   6.086 -12.054  0.00  0.00    +0.002 A 
ATOM     11  C   UNL     1       2.881   5.705 -13.308  0.00  0.00    +0.007 A 
ENDROOT
BRANCH   7  12
ATOM     12  C   UNL     1       4.876   6.142  -9.489  0.00  0.00    +0.015 A 
ATOM     13  C   UNL     1       6.012   5.379  -9.328  0.00  0.00    +0.001 A 
ATOM     14  C   UNL     1       7.238   5.760  -9.826  0.00  0.00    +0.000 A 
ATOM     15  C   UNL     1       7.234   6.720 -10.821  0.00  0.00    +0.000 A 
ATOM     16  C   UNL     1       6.200   7.630 -10.878  0.00  0.00    +0.000 A 
ATOM     17  C   UNL     1       5.008   7.291 -10.250  0.00  0.00    +0.001 A 
ENDBRANCH   7  12
BRANCH   1  18
ATOM     18  C   UNL     1       1.224   6.464 -15.018  0.00  0.00    +0.341 C 
ATOM     19  O   UNL     1       0.230   5.942 -15.598  0.00  0.00    -0.245 OA
BRANCH  18  21
ATOM     20  C   UNL     1       1.810   8.306 -16.481  0.00  0.00    +0.256 C 
ATOM     21  O   UNL     1       2.150   7.096 -15.835  0.00  0.00    -0.441 OA
ENDBRANCH  18  21
ENDBRANCH   1  18
BRANCH   7  22
ATOM     22  N   UNL     1       3.478   5.061  -7.671  0.00  0.00    -0.212 NA
BRANCH  22  23
ATOM     23  C   UNL     1       3.796   5.539  -6.382  0.00  0.00    +0.071 A 
ATOM     24  C   UNL     1       3.568   6.887  -6.139  0.00  0.00    +0.018 A 
ATOM     25  C   UNL     1       3.523   7.349  -4.849  0.00  0.00    +0.016 A 
ATOM     26  C   UNL     1       3.777   6.468  -3.809  0.00  0.00    +0.054 A 
ATOM     27  C   UNL     1       4.408   5.274  -4.131  0.00  0.00    +0.016 A 
ATOM     28  C   UNL     1       4.499   4.821  -5.441  0.00  0.00    +0.018 A 
BRANCH  26  29
ATOM     29  N   UNL     1       3.281   6.705  -2.487  0.00  0.00    -0.256 N 
ATOM     30  C   UNL     1       2.405   5.723  -1.920  0.00  0.00    +0.246 C 
ATOM     31  O   UNL     1       2.959   4.879  -1.156  0.00  0.00    -0.273 OA
ATOM     32  C   UNL     1       4.174   7.370  -1.543  0.00  0.00    +0.120 C 
BRANCH  30  33
ATOM     33  C   UNL     1       1.223   5.249  -2.687  0.00  0.00    +0.159 C 
BRANCH  33  34
ATOM     34  N   UNL     1       0.115   6.168  -2.627  0.00  0.00    -0.263 NA
ATOM     35  C   UNL     1      -0.735   5.953  -1.475  0.00  0.00    +0.090 C 
ATOM     36  C   UNL     1      -1.635   7.177  -1.353  0.00  0.00    +0.090 C 
ATOM     37  N   UNL     1      -2.424   7.368  -2.549  0.00  0.00    -0.269 NA
ATOM     38  C   UNL     1      -3.398   6.279  -2.589  0.00  0.00    +0.090 C 
ATOM     39  C   UNL     1      -1.631   7.362  -3.752  0.00  0.00    +0.090 C 
ATOM     40  C   UNL     1      -0.695   6.166  -3.821  0.00  0.00    +0.090 C 
ENDBRANCH  33  34
ENDBRANCH  30  33
ENDBRANCH  26  29
ENDBRANCH  22  23
ENDBRANCH   7  22
TORSDOF 8
ENDMDL
MODEL 7
REMARK VINA RESULT:      -9.2      2.820     10.799
REMARK  Name = 
REMARK  8 active torsions:
REMARK  status: ('A' for Active; 'I' for Inactive)
REMARK    1  A    between atoms: O_2  and  C_3
REMARK    2  A    between atoms: C_3  and  C_5
REMARK    3  A    between atoms: C_15  and  N_16
REMARK    4  A    between atoms: C_15  and  C_35
REMARK    5  A    between atoms: N_16  and  C_17
REMARK    6  A    between atoms: C_20  and  N_21
REMARK    7  A    between atoms: C_23  and  C_25
REMARK    8  A    between atoms: C_25  and  N_26
REMARK                            x       y       z     vdW  Elec       q    Type
REMARK                         _______ _______ _______ _____ _____    ______ ____
ROOT
ATOM      1  C   UNL     1      -1.883   6.111  -3.791  0.00  0.00    +0.077 A 
ATOM      2  C   UNL     1      -2.279   5.804  -5.077  0.00  0.00    +0.023 A 
ATOM      3  C   UNL     1      -1.270   5.618  -6.013  0.00  0.00    +0.074 A 
ATOM      4  N   UNL     1      -1.398   5.341  -7.412  0.00  0.00    -0.175 NA
ATOM      5  C   UNL     1      -0.090   5.374  -7.986  0.00  0.00    +0.270 C 
ATOM      6  C   UNL     1       0.849   5.740  -6.929  0.00  0.00    +0.072 C 
ATOM      7  C   UNL     1       2.143   6.013  -7.096  0.00  0.00    +0.075 C 
ATOM      8  O   UNL     1       0.229   5.107  -9.176  0.00  0.00    -0.268 OA
ATOM      9  C   UNL     1       0.071   5.771  -5.685  0.00  0.00    +0.021 A 
ATOM     10  C   UNL     1       0.416   6.137  -4.390  0.00  0.00    +0.002 A 
ATOM     11  C   UNL     1      -0.613   6.608  -3.586  0.00  0.00    +0.007 A 
ENDROOT
BRANCH   7  12
ATOM     12  C   UNL     1       2.982   5.978  -5.918  0.00  0.00    +0.015 A 
ATOM     13  C   UNL     1       3.522   7.117  -5.361  0.00  0.00    +0.001 A 
ATOM     14  C   UNL     1       4.408   7.079  -4.308  0.00  0.00    +0.000 A 
ATOM     15  C   UNL     1       4.444   5.912  -3.567  0.00  0.00    +0.000 A 
ATOM     16  C   UNL     1       4.099   4.720  -4.167  0.00  0.00    +0.000 A 
ATOM     17  C   UNL     1       3.316   4.778  -5.314  0.00  0.00    +0.001 A 
ENDBRANCH   7  12
BRANCH   1  18
ATOM     18  C   UNL     1      -2.812   5.829  -2.690  0.00  0.00    +0.341 C 
ATOM     19  O   UNL     1      -3.901   6.464  -2.600  0.00  0.00    -0.245 OA
BRANCH  18  21
ATOM     20  C   UNL     1      -1.836   5.979  -0.477  0.00  0.00    +0.256 C 
ATOM     21  O   UNL     1      -2.368   5.205  -1.534  0.00  0.00    -0.441 OA
ENDBRANCH  18  21
ENDBRANCH   1  18
BRANCH   7  22
ATOM     22  N   UNL     1       2.527   6.540  -8.348  0.00  0.00    -0.212 NA
BRANCH  22  23
ATOM     23  C   UNL     1       3.595   6.061  -9.136  0.00  0.00    +0.071 A 
ATOM     24  C   UNL     1       3.357   5.924 -10.497  0.00  0.00    +0.018 A 
ATOM     25  C   UNL     1       4.413   5.800 -11.365  0.00  0.00    +0.016 A 
ATOM     26  C   UNL     1       5.700   5.746 -10.855  0.00  0.00    +0.054 A 
ATOM     27  C   UNL     1       5.834   5.459  -9.503  0.00  0.00    +0.016 A 
ATOM     28  C   UNL     1       4.760   5.535  -8.625  0.00  0.00    +0.018 A 
BRANCH  26  29
ATOM     29  N   UNL     1       6.836   6.116 -11.645  0.00  0.00    -0.256 N 
ATOM     30  C   UNL     1       6.602   6.898 -12.822  0.00  0.00    +0.246 C 
ATOM     31  O   UNL     1       6.762   8.146 -12.683  0.00  0.00    -0.273 OA
ATOM     32  C   UNL     1       8.081   6.402 -10.937  0.00  0.00    +0.120 C 
BRANCH  30  33
ATOM     33  C   UNL     1       5.580   6.466 -13.811  0.00  0.00    +0.159 C 
BRANCH  33  34
ATOM     34  N   UNL     1       5.718   7.133 -15.080  0.00  0.00    -0.263 NA
ATOM     35  C   UNL     1       4.555   6.976 -15.929  0.00  0.00    +0.090 C 
ATOM     36  C   UNL     1       4.690   7.991 -17.058  0.00  0.00    +0.090 C 
ATOM     37  N   UNL     1       5.909   7.781 -17.807  0.00  0.00    -0.269 NA
ATOM     38  C   UNL     1       5.740   6.529 -18.543  0.00  0.00    +0.090 C 
ATOM     39  C   UNL     1       7.078   7.704 -16.968  0.00  0.00    +0.090 C 
ATOM     40  C   UNL     1       6.895   6.734 -15.812  0.00  0.00    +0.090 C 
ENDBRANCH  33  34
ENDBRANCH  30  33
ENDBRANCH  26  29
ENDBRANCH  22  23
ENDBRANCH   7  22
TORSDOF 8
ENDMDL
MODEL 8
REMARK VINA RESULT:      -9.1      2.345      4.498
REMARK  Name = 
REMARK  8 active torsions:
REMARK  status: ('A' for Active; 'I' for Inactive)
REMARK    1  A    between atoms: O_2  and  C_3
REMARK    2  A    between atoms: C_3  and  C_5
REMARK    3  A    between atoms: C_15  and  N_16
REMARK    4  A    between atoms: C_15  and  C_35
REMARK    5  A    between atoms: N_16  and  C_17
REMARK    6  A    between atoms: C_20  and  N_21
REMARK    7  A    between atoms: C_23  and  C_25
REMARK    8  A    between atoms: C_25  and  N_26
REMARK                            x       y       z     vdW  Elec       q    Type
REMARK                         _______ _______ _______ _____ _____    ______ ____
ROOT
ATOM      1  C   UNL     1       1.776   6.142 -12.209  0.00  0.00    +0.077 A 
ATOM      2  C   UNL     1       3.132   5.881 -12.200  0.00  0.00    +0.023 A 
ATOM      3  C   UNL     1       3.711   5.630 -10.962  0.00  0.00    +0.074 A 
ATOM      4  N   UNL     1       5.087   5.381 -10.662  0.00  0.00    -0.175 NA
ATOM      5  C   UNL     1       5.221   5.322  -9.240  0.00  0.00    +0.270 C 
ATOM      6  C   UNL     1       3.912   5.602  -8.660  0.00  0.00    +0.072 C 
ATOM      7  C   UNL     1       3.654   5.779  -7.363  0.00  0.00    +0.075 C 
ATOM      8  O   UNL     1       6.260   5.045  -8.581  0.00  0.00    -0.268 OA
ATOM      9  C   UNL     1       2.974   5.678  -9.786  0.00  0.00    +0.021 A 
ATOM     10  C   UNL     1       1.623   6.000  -9.842  0.00  0.00    +0.002 A 
ATOM     11  C   UNL     1       1.166   6.538 -11.038  0.00  0.00    +0.007 A 
ENDROOT
BRANCH   7  12
ATOM     12  C   UNL     1       2.275   5.666  -6.943  0.00  0.00    +0.015 A 
ATOM     13  C   UNL     1       1.474   6.768  -6.733  0.00  0.00    +0.001 A 
ATOM     14  C   UNL     1       0.197   6.671  -6.228  0.00  0.00    +0.000 A 
ATOM     15  C   UNL     1      -0.409   5.430  -6.304  0.00  0.00    +0.000 A 
ATOM     16  C   UNL     1       0.373   4.295  -6.312  0.00  0.00    +0.000 A 
ATOM     17  C   UNL     1       1.703   4.431  -6.691  0.00  0.00    +0.001 A 
ENDBRANCH   7  12
BRANCH   1  18
ATOM     18  C   UNL     1       1.033   5.918 -13.455  0.00  0.00    +0.341 C 
ATOM     19  O   UNL     1       0.674   4.750 -13.778  0.00  0.00    -0.245 OA
BRANCH  18  21
ATOM     20  C   UNL     1       0.652   8.181 -14.233  0.00  0.00    +0.256 C 
ATOM     21  O   UNL     1       1.071   6.854 -14.477  0.00  0.00    -0.441 OA
ENDBRANCH  18  21
ENDBRANCH   1  18
BRANCH   7  22
ATOM     22  N   UNL     1       4.704   6.290  -6.570  0.00  0.00    -0.212 NA
BRANCH  22  23
ATOM     23  C   UNL     1       4.656   6.454  -5.169  0.00  0.00    +0.071 A 
ATOM     24  C   UNL     1       5.002   7.704  -4.672  0.00  0.00    +0.018 A 
ATOM     25  C   UNL     1       4.659   8.046  -3.389  0.00  0.00    +0.016 A 
ATOM     26  C   UNL     1       4.030   7.107  -2.586  0.00  0.00    +0.054 A 
ATOM     27  C   UNL     1       4.105   5.780  -2.989  0.00  0.00    +0.016 A 
ATOM     28  C   UNL     1       4.497   5.422  -4.272  0.00  0.00    +0.018 A 
BRANCH  26  29
ATOM     29  N   UNL     1       3.214   7.494  -1.476  0.00  0.00    -0.256 N 
ATOM     30  C   UNL     1       2.791   6.467  -0.571  0.00  0.00    +0.246 C 
ATOM     31  O   UNL     1       3.496   6.341   0.473  0.00  0.00    -0.273 OA
ATOM     32  C   UNL     1       3.478   8.796  -0.870  0.00  0.00    +0.120 C 
BRANCH  30  33
ATOM     33  C   UNL     1       2.153   5.231  -1.095  0.00  0.00    +0.159 C 
BRANCH  33  34
ATOM     34  N   UNL     1       0.721   5.345  -1.199  0.00  0.00    -0.263 NA
ATOM     35  C   UNL     1       0.268   5.546  -2.559  0.00  0.00    +0.090 C 
ATOM     36  C   UNL     1      -1.237   5.305  -2.566  0.00  0.00    +0.090 C 
ATOM     37  N   UNL     1      -1.915   6.203  -1.658  0.00  0.00    -0.269 NA
ATOM     38  C   UNL     1      -1.819   7.541  -2.238  0.00  0.00    +0.090 C 
ATOM     39  C   UNL     1      -1.344   6.200  -0.335  0.00  0.00    +0.090 C 
ATOM     40  C   UNL     1       0.166   6.376  -0.357  0.00  0.00    +0.090 C 
ENDBRANCH  33  34
ENDBRANCH  30  33
ENDBRANCH  26  29
ENDBRANCH  22  23
ENDBRANCH   7  22
TORSDOF 8
ENDMDL
MODEL 9
REMARK VINA RESULT:      -8.9      4.043     10.035
REMARK  Name = 
REMARK  8 active torsions:
REMARK  status: ('A' for Active; 'I' for Inactive)
REMARK    1  A    between atoms: O_2  and  C_3
REMARK    2  A    between atoms: C_3  and  C_5
REMARK    3  A    between atoms: C_15  and  N_16
REMARK    4  A    between atoms: C_15  and  C_35
REMARK    5  A    between atoms: N_16  and  C_17
REMARK    6  A    between atoms: C_20  and  N_21
REMARK    7  A    between atoms: C_23  and  C_25
REMARK    8  A    between atoms: C_25  and  N_26
REMARK                            x       y       z     vdW  Elec       q    Type
REMARK                         _______ _______ _______ _____ _____    ______ ____
ROOT
ATOM      1  C   UNL     1       3.302   5.650  -2.116  0.00  0.00    +0.077 A 
ATOM      2  C   UNL     1       4.320   5.664  -3.048  0.00  0.00    +0.023 A 
ATOM      3  C   UNL     1       3.947   5.799  -4.379  0.00  0.00    +0.074 A 
ATOM      4  N   UNL     1       4.785   5.796  -5.539  0.00  0.00    -0.175 NA
ATOM      5  C   UNL     1       3.938   5.821  -6.691  0.00  0.00    +0.270 C 
ATOM      6  C   UNL     1       2.555   5.775  -6.224  0.00  0.00    +0.072 C 
ATOM      7  C   UNL     1       1.476   5.639  -6.995  0.00  0.00    +0.075 C 
ATOM      8  O   UNL     1       4.291   5.904  -7.897  0.00  0.00    -0.268 OA
ATOM      9  C   UNL     1       2.614   5.876  -4.761  0.00  0.00    +0.021 A 
ATOM     10  C   UNL     1       1.623   5.800  -3.791  0.00  0.00    +0.002 A 
ATOM     11  C   UNL     1       2.021   5.361  -2.535  0.00  0.00    +0.007 A 
ENDROOT
BRANCH   7  12
ATOM     12  C   UNL     1       0.201   5.994  -6.413  0.00  0.00    +0.015 A 
ATOM     13  C   UNL     1      -0.897   5.161  -6.476  0.00  0.00    +0.001 A 
ATOM     14  C   UNL     1      -2.141   5.540  -6.021  0.00  0.00    +0.000 A 
ATOM     15  C   UNL     1      -2.185   6.612  -5.149  0.00  0.00    +0.000 A 
ATOM     16  C   UNL     1      -1.196   7.571  -5.206  0.00  0.00    +0.000 A 
ATOM     17  C   UNL     1       0.012   7.217  -5.795  0.00  0.00    +0.001 A 
ENDBRANCH   7  12
BRANCH   1  18
ATOM     18  C   UNL     1       3.622   6.012  -0.730  0.00  0.00    +0.341 C 
ATOM     19  O   UNL     1       4.554   5.417  -0.118  0.00  0.00    -0.245 OA
BRANCH  18  21
ATOM     20  C   UNL     1       3.025   7.908   0.657  0.00  0.00    +0.256 C 
ATOM     21  O   UNL     1       2.692   6.671   0.060  0.00  0.00    -0.441 OA
ENDBRANCH  18  21
ENDBRANCH   1  18
BRANCH   7  22
ATOM     22  N   UNL     1       1.647   4.943  -8.212  0.00  0.00    -0.212 NA
BRANCH  22  23
ATOM     23  C   UNL     1       1.301   5.441  -9.486  0.00  0.00    +0.071 A 
ATOM     24  C   UNL     1       2.335   5.947 -10.262  0.00  0.00    +0.018 A 
ATOM     25  C   UNL     1       2.151   6.128 -11.610  0.00  0.00    +0.016 A 
ATOM     26  C   UNL     1       0.907   5.864 -12.160  0.00  0.00    +0.054 A 
ATOM     27  C   UNL     1      -0.168   5.783 -11.285  0.00  0.00    +0.016 A 
ATOM     28  C   UNL     1       0.009   5.647  -9.914  0.00  0.00    +0.018 A 
BRANCH  26  29
ATOM     29  N   UNL     1       0.753   5.541 -13.547  0.00  0.00    -0.256 N 
ATOM     30  C   UNL     1       1.152   6.525 -14.508  0.00  0.00    +0.246 C 
ATOM     31  O   UNL     1       2.314   6.373 -14.987  0.00  0.00    -0.273 OA
ATOM     32  C   UNL     1       0.972   4.152 -13.941  0.00  0.00    +0.120 C 
BRANCH  30  33
ATOM     33  C   UNL     1       0.660   7.923 -14.390  0.00  0.00    +0.159 C 
BRANCH  33  34
ATOM     34  N   UNL     1       0.975   8.723 -15.546  0.00  0.00    -0.263 NA
ATOM     35  C   UNL     1       1.019  10.141 -15.256  0.00  0.00    +0.090 C 
ATOM     36  C   UNL     1       1.686  10.817 -16.448  0.00  0.00    +0.090 C 
ATOM     37  N   UNL     1       0.957  10.561 -17.670  0.00  0.00    -0.269 NA
ATOM     38  C   UNL     1      -0.303  11.296 -17.570  0.00  0.00    +0.090 C 
ATOM     39  C   UNL     1       0.692   9.161 -17.884  0.00  0.00    +0.090 C 
ATOM     40  C   UNL     1       0.088   8.494 -16.659  0.00  0.00    +0.090 C 
ENDBRANCH  33  34
ENDBRANCH  30  33
ENDBRANCH  26  29
ENDBRANCH  22  23
ENDBRANCH   7  22
TORSDOF 8
ENDMDL
