MODEL 1
REMARK VINA RESULT:      -7.7      0.000      0.000
REMARK  Name = 
REMARK  3 active torsions:
REMARK  status: ('A' for Active; 'I' for Inactive)
REMARK    1  A    between atoms: O_2  and  C_3
REMARK    2  A    between atoms: C_12  and  C_14
REMARK    3  A    between atoms: C_26  and  O_27
REMARK                            x       y       z     vdW  Elec       q    Type
REMARK                         _______ _______ _______ _____ _____    ______ ____
ROOT
ATOM      1  C   UNL     1       2.270   6.874  -1.124  0.00  0.00    +0.174 A 
ATOM      2  C   UNL     1       3.030   7.997  -1.429  0.00  0.00    +0.173 A 
ATOM      3  C   UNL     1       4.006   7.977  -2.418  0.00  0.00    +0.044 A 
ATOM      4  C   UNL     1       3.972   6.898  -3.283  0.00  0.00    +0.056 A 
ATOM      5  C   UNL     1       2.871   6.048  -3.291  0.00  0.00    +0.090 A 
ATOM      6  N   UNL     1       2.560   5.386  -4.431  0.00  0.00    -0.213 NA
ATOM      7  C   UNL     1       3.307   5.604  -5.541  0.00  0.00    +0.221 A 
ATOM      8  N   UNL     1       4.584   6.010  -5.350  0.00  0.00    -0.195 NA
ATOM      9  N   UNL     1       2.691   5.599  -6.834  0.00  0.00    -0.275 N 
ATOM     10  C   UNL     1       2.901   6.716  -7.724  0.00  0.00    +0.115 C 
ATOM     11  C   UNL     1       3.567   6.238  -9.011  0.00  0.00    +0.115 C 
ATOM     12  N   UNL     1       2.791   5.066  -9.419  0.00  0.00    -0.274 N 
ATOM     13  C   UNL     1       1.481   5.180  -9.979  0.00  0.00    +0.253 C 
ATOM     14  O   UNL     1       0.476   4.595  -9.468  0.00  0.00    -0.272 OA
ATOM     15  C   UNL     1       2.975   3.938  -8.503  0.00  0.00    +0.115 C 
ATOM     16  C   UNL     1       2.152   4.316  -7.276  0.00  0.00    +0.115 C 
ATOM     17  C   UNL     1       4.959   6.611  -4.193  0.00  0.00    +0.174 A 
ATOM     18  N   UNL     1       6.227   7.233  -4.026  0.00  0.00    -0.107 NA
ATOM     19  C   UNL     1       2.094   5.944  -2.144  0.00  0.00    +0.059 A 
ENDROOT
BRANCH  13  20
ATOM     20  C   UNL     1       1.082   6.755 -10.312  0.00  0.00    +0.191 C 
ATOM     21  O   UNL     1       1.936   6.785 -11.608  0.00  0.00    -0.347 OA
ATOM     22  C   UNL     1       1.713   5.546 -12.102  0.00  0.00    +0.143 C 
ATOM     23  C   UNL     1       0.272   5.190 -11.984  0.00  0.00    +0.035 C 
ATOM     24  C   UNL     1      -0.291   6.305 -11.182  0.00  0.00    +0.042 C 
ENDBRANCH  13  20
BRANCH   1  26
ATOM     25  C   UNL     1       0.833   6.888   0.729  0.00  0.00    +0.253 C 
ATOM     26  O   UNL     1       2.047   6.545   0.218  0.00  0.00    -0.468 OA
ENDBRANCH   1  26
BRANCH   2  27
ATOM     27  O   UNL     1       2.863   9.116  -0.631  0.00  0.00    -0.468 OA
ATOM     28  C   UNL     1       3.617  10.293  -0.773  0.00  0.00    +0.253 C 
ENDBRANCH   2  27
TORSDOF 3
ENDMDL
MODEL 2
REMARK VINA RESULT:      -7.7      1.936      2.600
REMARK  Name = 
REMARK  3 active torsions:
REMARK  status: ('A' for Active; 'I' for Inactive)
REMARK    1  A    between atoms: O_2  and  C_3
REMARK    2  A    between atoms: C_12  and  C_14
REMARK    3  A    between atoms: C_26  and  O_27
REMARK                            x       y       z     vdW  Elec       q    Type
REMARK                         _______ _______ _______ _____ _____    ______ ____
ROOT
ATOM      1  C   UNL     1      -0.262   7.160   0.323  0.00  0.00    +0.174 A 
ATOM      2  C   UNL     1       0.874   7.959   0.395  0.00  0.00    +0.173 A 
ATOM      3  C   UNL     1       2.083   7.569  -0.168  0.00  0.00    +0.044 A 
ATOM      4  C   UNL     1       2.025   6.511  -1.058  0.00  0.00    +0.056 A 
ATOM      5  C   UNL     1       0.795   6.063  -1.526  0.00  0.00    +0.090 A 
ATOM      6  N   UNL     1       0.730   5.474  -2.745  0.00  0.00    -0.213 NA
ATOM      7  C   UNL     1       1.860   5.375  -3.487  0.00  0.00    +0.221 A 
ATOM      8  N   UNL     1       3.035   5.358  -2.814  0.00  0.00    -0.195 NA
ATOM      9  N   UNL     1       1.796   5.497  -4.912  0.00  0.00    -0.275 N 
ATOM     10  C   UNL     1       2.664   6.434  -5.585  0.00  0.00    +0.115 C 
ATOM     11  C   UNL     1       3.565   5.694  -6.569  0.00  0.00    +0.115 C 
ATOM     12  N   UNL     1       2.662   4.815  -7.312  0.00  0.00    -0.274 N 
ATOM     13  C   UNL     1       1.761   5.313  -8.303  0.00  0.00    +0.253 C 
ATOM     14  O   UNL     1       0.509   5.115  -8.236  0.00  0.00    -0.272 OA
ATOM     15  C   UNL     1       2.125   3.741  -6.473  0.00  0.00    +0.115 C 
ATOM     16  C   UNL     1       1.076   4.434  -5.608  0.00  0.00    +0.115 C 
ATOM     17  C   UNL     1       3.130   5.870  -1.562  0.00  0.00    +0.174 A 
ATOM     18  N   UNL     1       4.375   6.058  -0.901  0.00  0.00    -0.107 NA
ATOM     19  C   UNL     1      -0.339   6.281  -0.752  0.00  0.00    +0.059 A 
ENDROOT
BRANCH  13  20
ATOM     20  C   UNL     1       2.040   6.912  -8.649  0.00  0.00    +0.191 C 
ATOM     21  O   UNL     1       3.282   6.592  -9.523  0.00  0.00    -0.347 OA
ATOM     22  C   UNL     1       2.882   5.464 -10.151  0.00  0.00    +0.143 C 
ATOM     23  C   UNL     1       1.471   5.595 -10.609  0.00  0.00    +0.035 C 
ATOM     24  C   UNL     1       1.032   6.876 -10.000  0.00  0.00    +0.042 C 
ENDBRANCH  13  20
BRANCH   1  26
ATOM     25  C   UNL     1      -2.332   7.463   1.383  0.00  0.00    +0.253 C 
ATOM     26  O   UNL     1      -1.055   6.997   1.465  0.00  0.00    -0.468 OA
ENDBRANCH   1  26
BRANCH   2  27
ATOM     27  O   UNL     1       0.794   9.114   1.153  0.00  0.00    -0.468 OA
ATOM     28  C   UNL     1       1.745  10.147   1.101  0.00  0.00    +0.253 C 
ENDBRANCH   2  27
TORSDOF 3
ENDMDL
MODEL 3
REMARK VINA RESULT:      -7.1      4.189     10.186
REMARK  Name = 
REMARK  3 active torsions:
REMARK  status: ('A' for Active; 'I' for Inactive)
REMARK    1  A    between atoms: O_2  and  C_3
REMARK    2  A    between atoms: C_12  and  C_14
REMARK    3  A    between atoms: C_26  and  O_27
REMARK                            x       y       z     vdW  Elec       q    Type
REMARK                         _______ _______ _______ _____ _____    ______ ____
ROOT
ATOM      1  C   UNL     1       6.735   7.028 -15.409  0.00  0.00    +0.174 A 
ATOM      2  C   UNL     1       5.602   7.770 -15.723  0.00  0.00    +0.173 A 
ATOM      3  C   UNL     1       4.328   7.359 -15.347  0.00  0.00    +0.044 A 
ATOM      4  C   UNL     1       4.269   6.358 -14.394  0.00  0.00    +0.056 A 
ATOM      5  C   UNL     1       5.417   5.993 -13.699  0.00  0.00    +0.090 A 
ATOM      6  N   UNL     1       5.293   5.477 -12.451  0.00  0.00    -0.213 NA
ATOM      7  C   UNL     1       4.057   5.371 -11.905  0.00  0.00    +0.221 A 
ATOM      8  N   UNL     1       3.015   5.263 -12.762  0.00  0.00    -0.195 NA
ATOM      9  N   UNL     1       3.873   5.577 -10.499  0.00  0.00    -0.275 N 
ATOM     10  C   UNL     1       2.872   6.511 -10.043  0.00  0.00    +0.115 C 
ATOM     11  C   UNL     1       1.842   5.790  -9.179  0.00  0.00    +0.115 C 
ATOM     12  N   UNL     1       2.634   4.995  -8.241  0.00  0.00    -0.274 N 
ATOM     13  C   UNL     1       3.336   5.589  -7.146  0.00  0.00    +0.253 C 
ATOM     14  O   UNL     1       4.588   5.443  -6.989  0.00  0.00    -0.272 OA
ATOM     15  C   UNL     1       3.343   3.900  -8.907  0.00  0.00    +0.115 C 
ATOM     16  C   UNL     1       4.499   4.588  -9.626  0.00  0.00    +0.115 C 
ATOM     17  C   UNL     1       3.118   5.698 -14.043  0.00  0.00    +0.174 A 
ATOM     18  N   UNL     1       1.998   5.792 -14.915  0.00  0.00    -0.107 NA
ATOM     19  C   UNL     1       6.658   6.215 -14.283  0.00  0.00    +0.059 A 
ENDROOT
BRANCH  13  20
ATOM     20  C   UNL     1       2.948   7.190  -6.955  0.00  0.00    +0.191 C 
ATOM     21  O   UNL     1       1.579   6.867  -6.299  0.00  0.00    -0.347 OA
ATOM     22  C   UNL     1       1.895   5.792  -5.541  0.00  0.00    +0.143 C 
ATOM     23  C   UNL     1       3.195   6.009  -4.847  0.00  0.00    +0.035 C 
ATOM     24  C   UNL     1       3.696   7.272  -5.445  0.00  0.00    +0.042 C 
ENDBRANCH  13  20
BRANCH   1  26
ATOM     25  C   UNL     1       7.358   6.073 -17.459  0.00  0.00    +0.253 C 
ATOM     26  O   UNL     1       7.716   6.835 -16.389  0.00  0.00    -0.468 OA
ENDBRANCH   1  26
BRANCH   2  27
ATOM     27  O   UNL     1       5.771   8.883 -16.528  0.00  0.00    -0.468 OA
ATOM     28  C   UNL     1       4.732   9.475 -17.265  0.00  0.00    +0.253 C 
ENDBRANCH   2  27
TORSDOF 3
ENDMDL
MODEL 4
REMARK VINA RESULT:      -6.9      2.048      8.791
REMARK  Name = 
REMARK  3 active torsions:
REMARK  status: ('A' for Active; 'I' for Inactive)
REMARK    1  A    between atoms: O_2  and  C_3
REMARK    2  A    between atoms: C_12  and  C_14
REMARK    3  A    between atoms: C_26  and  O_27
REMARK                            x       y       z     vdW  Elec       q    Type
REMARK                         _______ _______ _______ _____ _____    ______ ____
ROOT
ATOM      1  C   UNL     1       4.683   5.644  -8.939  0.00  0.00    +0.174 A 
ATOM      2  C   UNL     1       3.385   6.104  -9.131  0.00  0.00    +0.173 A 
ATOM      3  C   UNL     1       2.349   5.763  -8.270  0.00  0.00    +0.044 A 
ATOM      4  C   UNL     1       2.724   5.209  -7.059  0.00  0.00    +0.056 A 
ATOM      5  C   UNL     1       4.056   5.245  -6.662  0.00  0.00    +0.090 A 
ATOM      6  N   UNL     1       4.348   5.246  -5.338  0.00  0.00    -0.213 NA
ATOM      7  C   UNL     1       3.331   5.253  -4.442  0.00  0.00    +0.221 A 
ATOM      8  N   UNL     1       2.151   4.730  -4.850  0.00  0.00    -0.195 NA
ATOM      9  N   UNL     1       3.464   5.972  -3.211  0.00  0.00    -0.275 N 
ATOM     10  C   UNL     1       2.444   6.919  -2.827  0.00  0.00    +0.115 C 
ATOM     11  C   UNL     1       1.821   6.503  -1.498  0.00  0.00    +0.115 C 
ATOM     12  N   UNL     1       2.960   6.208  -0.629  0.00  0.00    -0.274 N 
ATOM     13  C   UNL     1       3.781   7.240  -0.076  0.00  0.00    +0.253 C 
ATOM     14  O   UNL     1       5.036   7.276  -0.264  0.00  0.00    -0.272 OA
ATOM     15  C   UNL     1       3.681   5.007  -1.054  0.00  0.00    +0.115 C 
ATOM     16  C   UNL     1       4.467   5.459  -2.281  0.00  0.00    +0.115 C 
ATOM     17  C   UNL     1       1.847   4.640  -6.169  0.00  0.00    +0.174 A 
ATOM     18  N   UNL     1       0.550   4.290  -6.637  0.00  0.00    -0.107 NA
ATOM     19  C   UNL     1       5.046   5.330  -7.633  0.00  0.00    +0.059 A 
ENDROOT
BRANCH  13  20
ATOM     20  C   UNL     1       3.148   8.749  -0.345  0.00  0.00    +0.191 C 
ATOM     21  O   UNL     1       2.092   8.599   0.783  0.00  0.00    -0.347 OA
ATOM     22  C   UNL     1       2.803   7.940   1.726  0.00  0.00    +0.143 C 
ATOM     23  C   UNL     1       4.170   8.519   1.846  0.00  0.00    +0.035 C 
ATOM     24  C   UNL     1       4.235   9.480   0.717  0.00  0.00    +0.042 C 
ENDBRANCH  13  20
BRANCH   1  26
ATOM     25  C   UNL     1       6.576   5.818 -10.312  0.00  0.00    +0.253 C 
ATOM     26  O   UNL     1       5.409   5.172 -10.038  0.00  0.00    -0.468 OA
ENDBRANCH   1  26
BRANCH   2  27
ATOM     27  O   UNL     1       3.129   6.827 -10.284  0.00  0.00    -0.468 OA
ATOM     28  C   UNL     1       2.473   6.295 -11.406  0.00  0.00    +0.253 C 
ENDBRANCH   2  27
TORSDOF 3
ENDMDL
MODEL 5
REMARK VINA RESULT:      -6.9      2.828      8.744
REMARK  Name = 
REMARK  3 active torsions:
REMARK  status: ('A' for Active; 'I' for Inactive)
REMARK    1  A    between atoms: O_2  and  C_3
REMARK    2  A    between atoms: C_12  and  C_14
REMARK    3  A    between atoms: C_26  and  O_27
REMARK                            x       y       z     vdW  Elec       q    Type
REMARK                         _______ _______ _______ _____ _____    ______ ____
ROOT
ATOM      1  C   UNL     1       6.869   5.873 -10.957  0.00  0.00    +0.174 A 
ATOM      2  C   UNL     1       6.019   6.920 -11.296  0.00  0.00    +0.173 A 
ATOM      3  C   UNL     1       4.708   6.980 -10.839  0.00  0.00    +0.044 A 
ATOM      4  C   UNL     1       4.389   6.127  -9.797  0.00  0.00    +0.056 A 
ATOM      5  C   UNL     1       5.398   5.459  -9.112  0.00  0.00    +0.090 A 
ATOM      6  N   UNL     1       5.193   5.108  -7.819  0.00  0.00    -0.213 NA
ATOM      7  C   UNL     1       4.027   5.454  -7.222  0.00  0.00    +0.221 A 
ATOM      8  N   UNL     1       2.955   5.630  -8.028  0.00  0.00    -0.195 NA
ATOM      9  N   UNL     1       4.010   5.813  -5.835  0.00  0.00    -0.275 N 
ATOM     10  C   UNL     1       3.397   7.056  -5.431  0.00  0.00    +0.115 C 
ATOM     11  C   UNL     1       2.246   6.779  -4.469  0.00  0.00    +0.115 C 
ATOM     12  N   UNL     1       2.796   5.841  -3.490  0.00  0.00    -0.274 N 
ATOM     13  C   UNL     1       3.721   6.252  -2.480  0.00  0.00    +0.253 C 
ATOM     14  O   UNL     1       4.865   5.715  -2.355  0.00  0.00    -0.272 OA
ATOM     15  C   UNL     1       3.068   4.528  -4.078  0.00  0.00    +0.115 C 
ATOM     16  C   UNL     1       4.336   4.742  -4.898  0.00  0.00    +0.115 C 
ATOM     17  C   UNL     1       3.111   5.910  -9.346  0.00  0.00    +0.174 A 
ATOM     18  N   UNL     1       2.028   6.302 -10.182  0.00  0.00    -0.107 NA
ATOM     19  C   UNL     1       6.604   5.218  -9.759  0.00  0.00    +0.059 A 
ENDROOT
BRANCH  13  20
ATOM     20  C   UNL     1       3.885   7.902  -2.423  0.00  0.00    +0.191 C 
ATOM     21  O   UNL     1       2.578   8.088  -1.607  0.00  0.00    -0.347 OA
ATOM     22  C   UNL     1       2.631   7.024  -0.774  0.00  0.00    +0.143 C 
ATOM     23  C   UNL     1       4.009   6.852  -0.236  0.00  0.00    +0.035 C 
ATOM     24  C   UNL     1       4.803   7.839  -1.009  0.00  0.00    +0.042 C 
ENDBRANCH  13  20
BRANCH   1  26
ATOM     25  C   UNL     1       8.959   5.728 -12.009  0.00  0.00    +0.253 C 
ATOM     26  O   UNL     1       7.670   5.296 -11.949  0.00  0.00    -0.468 OA
ENDBRANCH   1  26
BRANCH   2  27
ATOM     27  O   UNL     1       6.488   7.853 -12.205  0.00  0.00    -0.468 OA
ATOM     28  C   UNL     1       6.399   7.694 -13.598  0.00  0.00    +0.253 C 
ENDBRANCH   2  27
TORSDOF 3
ENDMDL
MODEL 6
REMARK VINA RESULT:      -6.8      2.757      4.411
REMARK  Name = 
REMARK  3 active torsions:
REMARK  status: ('A' for Active; 'I' for Inactive)
REMARK    1  A    between atoms: O_2  and  C_3
REMARK    2  A    between atoms: C_12  and  C_14
REMARK    3  A    between atoms: C_26  and  O_27
REMARK                            x       y       z     vdW  Elec       q    Type
REMARK                         _______ _______ _______ _____ _____    ______ ____
ROOT
ATOM      1  C   UNL     1      -0.338   7.889   1.698  0.00  0.00    +0.174 A 
ATOM      2  C   UNL     1      -0.065   9.204   1.342  0.00  0.00    +0.173 A 
ATOM      3  C   UNL     1       1.144   9.573   0.763  0.00  0.00    +0.044 A 
ATOM      4  C   UNL     1       1.926   8.540   0.280  0.00  0.00    +0.056 A 
ATOM      5  C   UNL     1       1.393   7.260   0.167  0.00  0.00    +0.090 A 
ATOM      6  N   UNL     1       1.892   6.421  -0.773  0.00  0.00    -0.213 NA
ATOM      7  C   UNL     1       2.867   6.869  -1.602  0.00  0.00    +0.221 A 
ATOM      8  N   UNL     1       3.650   7.872  -1.140  0.00  0.00    -0.195 NA
ATOM      9  N   UNL     1       2.908   6.431  -2.965  0.00  0.00    -0.275 N 
ATOM     10  C   UNL     1       2.982   7.410  -4.023  0.00  0.00    +0.115 C 
ATOM     11  C   UNL     1       4.255   7.200  -4.838  0.00  0.00    +0.115 C 
ATOM     12  N   UNL     1       4.286   5.765  -5.117  0.00  0.00    -0.274 N 
ATOM     13  C   UNL     1       3.413   5.157  -6.072  0.00  0.00    +0.253 C 
ATOM     14  O   UNL     1       2.632   4.205  -5.761  0.00  0.00    -0.272 OA
ATOM     15  C   UNL     1       4.525   4.973  -3.908  0.00  0.00    +0.115 C 
ATOM     16  C   UNL     1       3.192   5.013  -3.168  0.00  0.00    +0.115 C 
ATOM     17  C   UNL     1       3.221   8.691  -0.147  0.00  0.00    +0.174 A 
ATOM     18  N   UNL     1       3.917   9.874   0.227  0.00  0.00    -0.107 NA
ATOM     19  C   UNL     1       0.331   6.898   0.987  0.00  0.00    +0.059 A 
ENDROOT
BRANCH  13  20
ATOM     20  C   UNL     1       2.572   6.285  -6.951  0.00  0.00    +0.191 C 
ATOM     21  O   UNL     1       3.760   6.539  -7.919  0.00  0.00    -0.347 OA
ATOM     22  C   UNL     1       4.255   5.289  -8.064  0.00  0.00    +0.143 C 
ATOM     23  C   UNL     1       3.148   4.307  -8.237  0.00  0.00    +0.035 C 
ATOM     24  C   UNL     1       1.930   5.116  -7.983  0.00  0.00    +0.042 C 
ENDBRANCH  13  20
BRANCH   1  26
ATOM     25  C   UNL     1      -2.087   6.897   2.905  0.00  0.00    +0.253 C 
ATOM     26  O   UNL     1      -0.939   7.628   2.935  0.00  0.00    -0.468 OA
ENDBRANCH   1  26
BRANCH   2  27
ATOM     27  O   UNL     1      -0.998  10.166   1.690  0.00  0.00    -0.468 OA
ATOM     28  C   UNL     1      -1.080  10.744   2.967  0.00  0.00    +0.253 C 
ENDBRANCH   2  27
TORSDOF 3
ENDMDL
MODEL 7
REMARK VINA RESULT:      -6.6      1.765      8.776
REMARK  Name = 
REMARK  3 active torsions:
REMARK  status: ('A' for Active; 'I' for Inactive)
REMARK    1  A    between atoms: O_2  and  C_3
REMARK    2  A    between atoms: C_12  and  C_14
REMARK    3  A    between atoms: C_26  and  O_27
REMARK                            x       y       z     vdW  Elec       q    Type
REMARK                         _______ _______ _______ _____ _____    ______ ____
ROOT
ATOM      1  C   UNL     1       1.914   6.957  -9.070  0.00  0.00    +0.174 A 
ATOM      2  C   UNL     1       0.971   5.982  -8.763  0.00  0.00    +0.173 A 
ATOM      3  C   UNL     1       1.166   5.069  -7.733  0.00  0.00    +0.044 A 
ATOM      4  C   UNL     1       2.182   5.367  -6.842  0.00  0.00    +0.056 A 
ATOM      5  C   UNL     1       2.773   6.626  -6.859  0.00  0.00    +0.090 A 
ATOM      6  N   UNL     1       3.312   7.114  -5.715  0.00  0.00    -0.213 NA
ATOM      7  C   UNL     1       3.222   6.377  -4.581  0.00  0.00    +0.221 A 
ATOM      8  N   UNL     1       3.107   5.037  -4.728  0.00  0.00    -0.195 NA
ATOM      9  N   UNL     1       3.048   7.025  -3.315  0.00  0.00    -0.275 N 
ATOM     10  C   UNL     1       1.972   6.610  -2.447  0.00  0.00    +0.115 C 
ATOM     11  C   UNL     1       2.537   6.110  -1.121  0.00  0.00    +0.115 C 
ATOM     12  N   UNL     1       3.498   7.135  -0.715  0.00  0.00    -0.274 N 
ATOM     13  C   UNL     1       3.085   8.408  -0.214  0.00  0.00    +0.253 C 
ATOM     14  O   UNL     1       3.457   9.497  -0.751  0.00  0.00    -0.272 OA
ATOM     15  C   UNL     1       4.672   7.167  -1.592  0.00  0.00    +0.115 C 
ATOM     16  C   UNL     1       4.168   7.845  -2.863  0.00  0.00    +0.115 C 
ATOM     17  C   UNL     1       2.643   4.499  -5.884  0.00  0.00    +0.174 A 
ATOM     18  N   UNL     1       2.315   3.121  -6.013  0.00  0.00    -0.107 NA
ATOM     19  C   UNL     1       2.748   7.366  -8.034  0.00  0.00    +0.059 A 
ENDROOT
BRANCH  13  20
ATOM     20  C   UNL     1       1.450   8.468   0.060  0.00  0.00    +0.191 C 
ATOM     21  O   UNL     1       1.556   7.650   1.375  0.00  0.00    -0.347 OA
ATOM     22  C   UNL     1       2.701   8.141   1.901  0.00  0.00    +0.143 C 
ATOM     23  C   UNL     1       2.746   9.623   1.758  0.00  0.00    +0.035 C 
ATOM     24  C   UNL     1       1.566   9.921   0.908  0.00  0.00    +0.042 C 
ENDBRANCH  13  20
BRANCH   1  26
ATOM     25  C   UNL     1       3.204   6.408 -10.950  0.00  0.00    +0.253 C 
ATOM     26  O   UNL     1       2.234   7.197 -10.411  0.00  0.00    -0.468 OA
ENDBRANCH   1  26
BRANCH   2  27
ATOM     27  O   UNL     1      -0.128   5.874  -9.597  0.00  0.00    -0.468 OA
ATOM     28  C   UNL     1      -0.232   4.926 -10.629  0.00  0.00    +0.253 C 
ENDBRANCH   2  27
TORSDOF 3
ENDMDL
MODEL 8
REMARK VINA RESULT:      -6.4      3.937      9.802
REMARK  Name = 
REMARK  3 active torsions:
REMARK  status: ('A' for Active; 'I' for Inactive)
REMARK    1  A    between atoms: O_2  and  C_3
REMARK    2  A    between atoms: C_12  and  C_14
REMARK    3  A    between atoms: C_26  and  O_27
REMARK                            x       y       z     vdW  Elec       q    Type
REMARK                         _______ _______ _______ _____ _____    ______ ____
ROOT
ATOM      1  C   UNL     1       0.958   5.149  -4.969  0.00  0.00    +0.174 A 
ATOM      2  C   UNL     1      -0.286   5.747  -4.802  0.00  0.00    +0.173 A 
ATOM      3  C   UNL     1      -0.844   5.945  -3.544  0.00  0.00    +0.044 A 
ATOM      4  C   UNL     1       0.017   5.806  -2.471  0.00  0.00    +0.056 A 
ATOM      5  C   UNL     1       1.389   5.728  -2.685  0.00  0.00    +0.090 A 
ATOM      6  N   UNL     1       2.231   6.152  -1.712  0.00  0.00    -0.213 NA
ATOM      7  C   UNL     1       1.711   6.677  -0.576  0.00  0.00    +0.221 A 
ATOM      8  N   UNL     1       0.465   6.277  -0.232  0.00  0.00    -0.195 NA
ATOM      9  N   UNL     1       2.381   7.753   0.091  0.00  0.00    -0.275 N 
ATOM     10  C   UNL     1       1.646   8.950   0.422  0.00  0.00    +0.115 C 
ATOM     11  C   UNL     1       1.664   9.171   1.932  0.00  0.00    +0.115 C 
ATOM     12  N   UNL     1       3.065   8.998   2.317  0.00  0.00    -0.274 N 
ATOM     13  C   UNL     1       4.059   9.983   2.025  0.00  0.00    +0.253 C 
ATOM     14  O   UNL     1       5.105   9.708   1.360  0.00  0.00    -0.272 OA
ATOM     15  C   UNL     1       3.509   7.610   2.173  0.00  0.00    +0.115 C 
ATOM     16  C   UNL     1       3.683   7.429   0.668  0.00  0.00    +0.115 C 
ATOM     17  C   UNL     1      -0.389   5.776  -1.159  0.00  0.00    +0.174 A 
ATOM     18  N   UNL     1      -1.764   5.535  -0.888  0.00  0.00    -0.107 NA
ATOM     19  C   UNL     1       1.853   5.265  -3.910  0.00  0.00    +0.059 A 
ENDROOT
BRANCH  13  20
ATOM     20  C   UNL     1       3.394  11.384   1.437  0.00  0.00    +0.191 C 
ATOM     21  O   UNL     1       3.010  11.894   2.852  0.00  0.00    -0.347 OA
ATOM     22  C   UNL     1       4.078  11.494   3.578  0.00  0.00    +0.143 C 
ATOM     23  C   UNL     1       5.342  11.765   2.837  0.00  0.00    +0.035 C 
ATOM     24  C   UNL     1       4.867  12.202   1.500  0.00  0.00    +0.042 C 
ENDBRANCH  13  20
BRANCH   1  26
ATOM     25  C   UNL     1       2.374   4.056  -6.486  0.00  0.00    +0.253 C 
ATOM     26  O   UNL     1       1.121   4.182  -5.968  0.00  0.00    -0.468 OA
ENDBRANCH   1  26
BRANCH   2  27
ATOM     27  O   UNL     1      -1.012   6.038  -5.944  0.00  0.00    -0.468 OA
ATOM     28  C   UNL     1      -2.381   5.760  -6.089  0.00  0.00    +0.253 C 
ENDBRANCH   2  27
TORSDOF 3
ENDMDL
MODEL 9
REMARK VINA RESULT:      -6.3      2.669      9.301
REMARK  Name = 
REMARK  3 active torsions:
REMARK  status: ('A' for Active; 'I' for Inactive)
REMARK    1  A    between atoms: O_2  and  C_3
REMARK    2  A    between atoms: C_12  and  C_14
REMARK    3  A    between atoms: C_26  and  O_27
REMARK                            x       y       z     vdW  Elec       q    Type
REMARK                         _______ _______ _______ _____ _____    ______ ____
ROOT
ATOM      1  C   UNL     1       2.946   6.453 -13.876  0.00  0.00    +0.174 A 
ATOM      2  C   UNL     1       1.645   6.945 -13.869  0.00  0.00    +0.173 A 
ATOM      3  C   UNL     1       0.646   6.367 -13.094  0.00  0.00    +0.044 A 
ATOM      4  C   UNL     1       1.069   5.490 -12.112  0.00  0.00    +0.056 A 
ATOM      5  C   UNL     1       2.418   5.413 -11.784  0.00  0.00    +0.090 A 
ATOM      6  N   UNL     1       2.769   5.034 -10.531  0.00  0.00    -0.213 NA
ATOM      7  C   UNL     1       1.794   4.781  -9.625  0.00  0.00    +0.221 A 
ATOM      8  N   UNL     1       0.591   4.394 -10.111  0.00  0.00    -0.195 NA
ATOM      9  N   UNL     1       1.990   5.115  -8.246  0.00  0.00    -0.275 N 
ATOM     10  C   UNL     1       0.999   5.909  -7.560  0.00  0.00    +0.115 C 
ATOM     11  C   UNL     1       0.432   5.127  -6.379  0.00  0.00    +0.115 C 
ATOM     12  N   UNL     1       1.605   4.598  -5.685  0.00  0.00    -0.274 N 
ATOM     13  C   UNL     1       2.461   5.429  -4.897  0.00  0.00    +0.253 C 
ATOM     14  O   UNL     1       3.707   5.521  -5.125  0.00  0.00    -0.272 OA
ATOM     15  C   UNL     1       2.294   3.571  -6.471  0.00  0.00    +0.115 C 
ATOM     16  C   UNL     1       3.028   4.360  -7.551  0.00  0.00    +0.115 C 
ATOM     17  C   UNL     1       0.227   4.686 -11.385  0.00  0.00    +0.174 A 
ATOM     18  N   UNL     1      -1.094   4.482 -11.872  0.00  0.00    -0.107 NA
ATOM     19  C   UNL     1       3.364   5.777 -12.735  0.00  0.00    +0.059 A 
ENDROOT
BRANCH  13  20
ATOM     20  C   UNL     1       1.833   6.950  -4.692  0.00  0.00    +0.191 C 
ATOM     21  O   UNL     1       0.849   6.485  -3.584  0.00  0.00    -0.347 OA
ATOM     22  C   UNL     1       1.610   5.592  -2.912  0.00  0.00    +0.143 C 
ATOM     23  C   UNL     1       2.990   6.120  -2.724  0.00  0.00    +0.035 C 
ATOM     24  C   UNL     1       2.996   7.360  -3.541  0.00  0.00    +0.042 C 
ENDBRANCH  13  20
BRANCH   1  26
ATOM     25  C   UNL     1       4.960   6.535 -15.074  0.00  0.00    +0.253 C 
ATOM     26  O   UNL     1       3.616   6.319 -15.098  0.00  0.00    -0.468 OA
ENDBRANCH   1  26
BRANCH   2  27
ATOM     27  O   UNL     1       1.345   7.968 -14.751  0.00  0.00    -0.468 OA
ATOM     28  C   UNL     1       0.466   7.825 -15.838  0.00  0.00    +0.253 C 
ENDBRANCH   2  27
TORSDOF 3
ENDMDL
