MODEL 1
REMARK VINA RESULT:      -8.1      0.000      0.000
REMARK  Name = 
REMARK  8 active torsions:
REMARK  status: ('A' for Active; 'I' for Inactive)
REMARK    1  A    between atoms: O_2  and  C_3
REMARK    2  A    between atoms: C_6  and  C_7
REMARK    3  A    between atoms: C_7  and  C_8
REMARK    4  A    between atoms: C_8  and  N_10
REMARK    5  A    between atoms: N_10  and  C_11
REMARK    6  A    between atoms: C_11  and  C_12
REMARK    7  A    between atoms: C_12  and  C_14
REMARK    8  A    between atoms: C_19  and  N_20
REMARK                            x       y       z     vdW  Elec       q    Type
REMARK                         _______ _______ _______ _____ _____    ______ ____
ROOT
ATOM      1  C   UNL     1       1.863   5.668  -7.322  0.00  0.00    +0.126 C 
ENDROOT
BRANCH   1   2
ATOM      2  C   UNL     1       2.198   4.951  -5.830  0.00  0.00    +0.192 C 
ATOM      3  O   UNL     1       2.064   3.523  -6.433  0.00  0.00    -0.217 OA
BRANCH   2   4
ATOM      4  C   UNL     1       0.612   5.024  -5.379  0.00  0.00    +0.011 A 
ATOM      5  C   UNL     1       0.322   5.561  -4.196  0.00  0.00    +0.018 A 
ATOM      6  C   UNL     1      -0.988   6.019  -4.034  0.00  0.00    +0.112 A 
ATOM      7  C   UNL     1      -1.653   6.499  -5.154  0.00  0.00    +0.211 A 
ATOM      8  O   UNL     1      -2.299   7.735  -5.189  0.00  0.00    -0.285 OA
ATOM      9  C   UNL     1      -1.394   5.800  -6.326  0.00  0.00    +0.043 A 
ATOM     10  C   UNL     1      -0.260   5.003  -6.437  0.00  0.00    +0.002 A 
BRANCH   6  11
ATOM     11  N   UNL     1      -1.440   6.556  -2.793  0.00  0.00    -0.168 NA
ATOM     12  C   UNL     1      -2.406   5.810  -2.082  0.00  0.00    +0.325 C 
ATOM     13  O   UNL     1      -2.763   4.682  -2.483  0.00  0.00    -0.263 OA
ENDBRANCH   6  11
ENDBRANCH   2   4
ENDBRANCH   1   2
BRANCH   1  14
ATOM     14  N   UNL     1       2.797   6.754  -7.251  0.00  0.00    -0.216 NA
BRANCH  14  15
ATOM     15  C   UNL     1       3.206   7.058  -8.765  0.00  0.00    +0.077 C 
ATOM     16  C   UNL     1       1.685   6.647  -9.312  0.00  0.00    +0.019 C 
BRANCH  15  17
ATOM     17  C   UNL     1       3.755   5.498  -8.971  0.00  0.00    +0.044 C 
BRANCH  17  21
ATOM     18  C   UNL     1       7.356   6.332 -10.992  0.00  0.00    +0.139 A 
ATOM     19  C   UNL     1       6.175   6.911 -11.426  0.00  0.00    +0.037 A 
ATOM     20  C   UNL     1       4.995   6.544 -10.789  0.00  0.00    -0.001 A 
ATOM     21  C   UNL     1       5.002   5.629  -9.742  0.00  0.00    -0.021 A 
ATOM     22  C   UNL     1       6.229   5.544  -9.093  0.00  0.00    -0.001 A 
ATOM     23  C   UNL     1       7.376   5.511  -9.871  0.00  0.00    +0.037 A 
BRANCH  18  25
ATOM     24  C   UNL     1       8.965   6.029 -12.155  0.00  0.00    +0.252 C 
ATOM     25  O   UNL     1       8.488   6.243 -11.807  0.00  0.00    -0.471 OA
ENDBRANCH  18  25
ENDBRANCH  17  21
ENDBRANCH  15  17
ENDBRANCH  14  15
ENDBRANCH   1  14
TORSDOF 8
ENDMDL
MODEL 2
REMARK VINA RESULT:      -7.9      2.024      9.455
REMARK  Name = 
REMARK  8 active torsions:
REMARK  status: ('A' for Active; 'I' for Inactive)
REMARK    1  A    between atoms: O_2  and  C_3
REMARK    2  A    between atoms: C_6  and  C_7
REMARK    3  A    between atoms: C_7  and  C_8
REMARK    4  A    between atoms: C_8  and  N_10
REMARK    5  A    between atoms: N_10  and  C_11
REMARK    6  A    between atoms: C_11  and  C_12
REMARK    7  A    between atoms: C_12  and  C_14
REMARK    8  A    between atoms: C_19  and  N_20
REMARK                            x       y       z     vdW  Elec       q    Type
REMARK                         _______ _______ _______ _____ _____    ______ ____
ROOT
ATOM      1  C   UNL     1       2.938   6.406  -8.474  0.00  0.00    +0.126 C 
ENDROOT
BRANCH   1   2
ATOM      2  C   UNL     1       2.640   6.163 -10.119  0.00  0.00    +0.192 C 
ATOM      3  O   UNL     1       2.168   4.703  -9.865  0.00  0.00    -0.217 OA
BRANCH   2   4
ATOM      4  C   UNL     1       4.206   5.721 -10.391  0.00  0.00    +0.011 A 
ATOM      5  C   UNL     1       4.841   6.269 -11.426  0.00  0.00    +0.018 A 
ATOM      6  C   UNL     1       6.237   6.244 -11.375  0.00  0.00    +0.112 A 
ATOM      7  C   UNL     1       6.843   6.302 -10.128  0.00  0.00    +0.211 A 
ATOM      8  O   UNL     1       7.855   7.208  -9.810  0.00  0.00    -0.285 OA
ATOM      9  C   UNL     1       6.185   5.594  -9.130  0.00  0.00    +0.043 A 
ATOM     10  C   UNL     1       4.846   5.250  -9.273  0.00  0.00    +0.002 A 
BRANCH   6  11
ATOM     11  N   UNL     1       7.029   6.741 -12.451  0.00  0.00    -0.168 NA
ATOM     12  C   UNL     1       7.808   5.804 -13.164  0.00  0.00    +0.325 C 
ATOM     13  O   UNL     1       7.719   4.582 -12.919  0.00  0.00    -0.263 OA
ENDBRANCH   6  11
ENDBRANCH   2   4
ENDBRANCH   1   2
BRANCH   1  14
ATOM     14  N   UNL     1       2.033   7.495  -8.252  0.00  0.00    -0.216 NA
BRANCH  14  15
ATOM     15  C   UNL     1       1.599   7.378  -6.719  0.00  0.00    +0.077 C 
ATOM     16  C   UNL     1       2.876   6.359  -6.383  0.00  0.00    +0.019 C 
BRANCH  15  17
ATOM     17  C   UNL     1       0.597   6.090  -7.061  0.00  0.00    +0.044 C 
BRANCH  17  21
ATOM     18  C   UNL     1      -2.562   6.527  -4.309  0.00  0.00    +0.139 A 
ATOM     19  C   UNL     1      -1.557   7.479  -4.357  0.00  0.00    +0.037 A 
ATOM     20  C   UNL     1      -0.486   7.255  -5.216  0.00  0.00    -0.001 A 
ATOM     21  C   UNL     1      -0.431   6.115  -6.009  0.00  0.00    -0.021 A 
ATOM     22  C   UNL     1      -1.680   5.551  -6.249  0.00  0.00    -0.001 A 
ATOM     23  C   UNL     1      -2.565   5.450  -5.187  0.00  0.00    +0.037 A 
BRANCH  18  25
ATOM     24  C   UNL     1      -3.673   6.446  -2.638  0.00  0.00    +0.252 C 
ATOM     25  O   UNL     1      -3.407   6.389  -3.205  0.00  0.00    -0.471 OA
ENDBRANCH  18  25
ENDBRANCH  17  21
ENDBRANCH  15  17
ENDBRANCH  14  15
ENDBRANCH   1  14
TORSDOF 8
ENDMDL
MODEL 3
REMARK VINA RESULT:      -7.7      2.319      9.812
REMARK  Name = 
REMARK  8 active torsions:
REMARK  status: ('A' for Active; 'I' for Inactive)
REMARK    1  A    between atoms: O_2  and  C_3
REMARK    2  A    between atoms: C_6  and  C_7
REMARK    3  A    between atoms: C_7  and  C_8
REMARK    4  A    between atoms: C_8  and  N_10
REMARK    5  A    between atoms: N_10  and  C_11
REMARK    6  A    between atoms: C_11  and  C_12
REMARK    7  A    between atoms: C_12  and  C_14
REMARK    8  A    between atoms: C_19  and  N_20
REMARK                            x       y       z     vdW  Elec       q    Type
REMARK                         _______ _______ _______ _____ _____    ______ ____
ROOT
ATOM      1  C   UNL     1       3.891   5.768  -8.556  0.00  0.00    +0.126 C 
ENDROOT
BRANCH   1   2
ATOM      2  C   UNL     1       4.248   6.801  -9.843  0.00  0.00    +0.192 C 
ATOM      3  O   UNL     1       3.177   6.123 -10.745  0.00  0.00    -0.217 OA
BRANCH   2   4
ATOM      4  C   UNL     1       5.464   5.816 -10.367  0.00  0.00    +0.011 A 
ATOM      5  C   UNL     1       5.601   5.633 -11.679  0.00  0.00    +0.018 A 
ATOM      6  C   UNL     1       6.855   5.194 -12.111  0.00  0.00    +0.112 A 
ATOM      7  C   UNL     1       7.969   5.590 -11.384  0.00  0.00    +0.211 A 
ATOM      8  O   UNL     1       9.094   6.174 -11.965  0.00  0.00    -0.285 OA
ATOM      9  C   UNL     1       7.779   5.630 -10.008  0.00  0.00    +0.043 A 
ATOM     10  C   UNL     1       6.498   5.699  -9.473  0.00  0.00    +0.002 A 
BRANCH   6  11
ATOM     11  N   UNL     1       7.108   4.900 -13.482  0.00  0.00    -0.168 NA
ATOM     12  C   UNL     1       6.845   5.924 -14.420  0.00  0.00    +0.325 C 
ATOM     13  O   UNL     1       6.506   7.065 -14.040  0.00  0.00    -0.263 OA
ENDBRANCH   6  11
ENDBRANCH   2   4
ENDBRANCH   1   2
BRANCH   1  14
ATOM     14  N   UNL     1       2.764   6.474  -8.022  0.00  0.00    -0.216 NA
BRANCH  14  15
ATOM     15  C   UNL     1       2.119   5.487  -6.943  0.00  0.00    +0.077 C 
ATOM     16  C   UNL     1       2.443   4.156  -7.895  0.00  0.00    +0.019 C 
BRANCH  15  17
ATOM     17  C   UNL     1       0.609   5.667  -7.625  0.00  0.00    +0.044 C 
BRANCH  17  21
ATOM     18  C   UNL     1      -2.180   6.420  -4.559  0.00  0.00    +0.139 A 
ATOM     19  C   UNL     1      -0.994   7.134  -4.599  0.00  0.00    +0.037 A 
ATOM     20  C   UNL     1      -0.061   6.797  -5.573  0.00  0.00    -0.001 A 
ATOM     21  C   UNL     1      -0.315   5.778  -6.485  0.00  0.00    -0.021 A 
ATOM     22  C   UNL     1      -1.671   5.528  -6.666  0.00  0.00    -0.001 A 
ATOM     23  C   UNL     1      -2.482   5.486  -5.542  0.00  0.00    +0.037 A 
BRANCH  18  25
ATOM     24  C   UNL     1      -3.437   6.334  -2.994  0.00  0.00    +0.252 C 
ATOM     25  O   UNL     1      -2.958   6.328  -3.401  0.00  0.00    -0.471 OA
ENDBRANCH  18  25
ENDBRANCH  17  21
ENDBRANCH  15  17
ENDBRANCH  14  15
ENDBRANCH   1  14
TORSDOF 8
ENDMDL
MODEL 4
REMARK VINA RESULT:      -7.5      2.949      5.261
REMARK  Name = 
REMARK  8 active torsions:
REMARK  status: ('A' for Active; 'I' for Inactive)
REMARK    1  A    between atoms: O_2  and  C_3
REMARK    2  A    between atoms: C_6  and  C_7
REMARK    3  A    between atoms: C_7  and  C_8
REMARK    4  A    between atoms: C_8  and  N_10
REMARK    5  A    between atoms: N_10  and  C_11
REMARK    6  A    between atoms: C_11  and  C_12
REMARK    7  A    between atoms: C_12  and  C_14
REMARK    8  A    between atoms: C_19  and  N_20
REMARK                            x       y       z     vdW  Elec       q    Type
REMARK                         _______ _______ _______ _____ _____    ______ ____
ROOT
ATOM      1  C   UNL     1       1.291   5.953  -6.787  0.00  0.00    +0.126 C 
ENDROOT
BRANCH   1   2
ATOM      2  C   UNL     1       0.173   4.780  -7.264  0.00  0.00    +0.192 C 
ATOM      3  O   UNL     1      -0.474   5.750  -8.294  0.00  0.00    -0.217 OA
BRANCH   2   4
ATOM      4  C   UNL     1      -0.867   5.203  -6.054  0.00  0.00    +0.011 A 
ATOM      5  C   UNL     1      -0.362   5.411  -4.839  0.00  0.00    +0.018 A 
ATOM      6  C   UNL     1      -1.142   6.183  -3.974  0.00  0.00    +0.112 A 
ATOM      7  C   UNL     1      -1.948   7.169  -4.528  0.00  0.00    +0.211 A 
ATOM      8  O   UNL     1      -1.951   8.492  -4.086  0.00  0.00    -0.285 OA
ATOM      9  C   UNL     1      -2.541   6.822  -5.736  0.00  0.00    +0.043 A 
ATOM     10  C   UNL     1      -2.024   5.785  -6.505  0.00  0.00    +0.002 A 
BRANCH   6  11
ATOM     11  N   UNL     1      -0.742   6.423  -2.627  0.00  0.00    -0.168 NA
ATOM     12  C   UNL     1      -1.481   5.778  -1.611  0.00  0.00    +0.325 C 
ATOM     13  O   UNL     1      -2.377   4.956  -1.898  0.00  0.00    -0.263 OA
ENDBRANCH   6  11
ENDBRANCH   2   4
ENDBRANCH   1   2
BRANCH   1  14
ATOM     14  N   UNL     1       2.482   5.325  -7.278  0.00  0.00    -0.216 NA
BRANCH  14  15
ATOM     15  C   UNL     1       3.624   6.437  -7.166  0.00  0.00    +0.077 C 
ATOM     16  C   UNL     1       4.452   5.789  -8.461  0.00  0.00    +0.019 C 
BRANCH  15  17
ATOM     17  C   UNL     1       4.483   5.503  -6.086  0.00  0.00    +0.044 C 
BRANCH  17  21
ATOM     18  C   UNL     1       4.464   7.222  -2.241  0.00  0.00    +0.139 A 
ATOM     19  C   UNL     1       4.214   5.868  -2.389  0.00  0.00    +0.037 A 
ATOM     20  C   UNL     1       4.142   5.354  -3.679  0.00  0.00    -0.001 A 
ATOM     21  C   UNL     1       4.324   6.174  -4.787  0.00  0.00    -0.021 A 
ATOM     22  C   UNL     1       5.056   7.323  -4.507  0.00  0.00    -0.001 A 
ATOM     23  C   UNL     1       4.762   8.015  -3.342  0.00  0.00    +0.037 A 
BRANCH  18  25
ATOM     24  C   UNL     1       3.819   8.311  -0.681  0.00  0.00    +0.252 C 
ATOM     25  O   UNL     1       4.103   7.926  -1.088  0.00  0.00    -0.471 OA
ENDBRANCH  18  25
ENDBRANCH  17  21
ENDBRANCH  15  17
ENDBRANCH  14  15
ENDBRANCH   1  14
TORSDOF 8
ENDMDL
MODEL 5
REMARK VINA RESULT:      -7.5      3.395      7.460
REMARK  Name = 
REMARK  8 active torsions:
REMARK  status: ('A' for Active; 'I' for Inactive)
REMARK    1  A    between atoms: O_2  and  C_3
REMARK    2  A    between atoms: C_6  and  C_7
REMARK    3  A    between atoms: C_7  and  C_8
REMARK    4  A    between atoms: C_8  and  N_10
REMARK    5  A    between atoms: N_10  and  C_11
REMARK    6  A    between atoms: C_11  and  C_12
REMARK    7  A    between atoms: C_12  and  C_14
REMARK    8  A    between atoms: C_19  and  N_20
REMARK                            x       y       z     vdW  Elec       q    Type
REMARK                         _______ _______ _______ _____ _____    ______ ____
ROOT
ATOM      1  C   UNL     1       2.689   5.972  -8.024  0.00  0.00    +0.126 C 
ENDROOT
BRANCH   1   2
ATOM      2  C   UNL     1       3.803   4.770  -7.616  0.00  0.00    +0.192 C 
ATOM      3  O   UNL     1       4.683   5.787  -6.833  0.00  0.00    -0.217 OA
BRANCH   2   4
ATOM      4  C   UNL     1       4.630   4.983  -9.028  0.00  0.00    +0.011 A 
ATOM      5  C   UNL     1       3.939   5.332 -10.112  0.00  0.00    +0.018 A 
ATOM      6  C   UNL     1       4.669   5.933 -11.140  0.00  0.00    +0.112 A 
ATOM      7  C   UNL     1       5.774   6.698 -10.792  0.00  0.00    +0.211 A 
ATOM      8  O   UNL     1       5.980   7.998 -11.253  0.00  0.00    -0.285 OA
ATOM      9  C   UNL     1       6.517   6.194  -9.732  0.00  0.00    +0.043 A 
ATOM     10  C   UNL     1       5.957   5.279  -8.848  0.00  0.00    +0.002 A 
BRANCH   6  11
ATOM     11  N   UNL     1       4.056   6.293 -12.375  0.00  0.00    -0.168 NA
ATOM     12  C   UNL     1       4.412   5.540 -13.516  0.00  0.00    +0.325 C 
ATOM     13  O   UNL     1       5.154   4.540 -13.413  0.00  0.00    -0.263 OA
ENDBRANCH   6  11
ENDBRANCH   2   4
ENDBRANCH   1   2
BRANCH   1  14
ATOM     14  N   UNL     1       1.489   5.291  -7.633  0.00  0.00    -0.216 NA
BRANCH  14  15
ATOM     15  C   UNL     1       0.297   6.120  -8.300  0.00  0.00    +0.077 C 
ATOM     16  C   UNL     1      -0.827   5.407  -7.295  0.00  0.00    +0.019 C 
BRANCH  15  17
ATOM     17  C   UNL     1       0.077   4.944  -9.461  0.00  0.00    +0.044 C 
BRANCH  17  21
ATOM     18  C   UNL     1       0.517   6.646 -13.288  0.00  0.00    +0.139 A 
ATOM     19  C   UNL     1       0.713   5.287 -13.115  0.00  0.00    +0.037 A 
ATOM     20  C   UNL     1       0.646   4.776 -11.823  0.00  0.00    -0.001 A 
ATOM     21  C   UNL     1       0.380   5.605 -10.739  0.00  0.00    -0.021 A 
ATOM     22  C   UNL     1      -0.289   6.772 -11.090  0.00  0.00    -0.001 A 
ATOM     23  C   UNL     1       0.135   7.452 -12.222  0.00  0.00    +0.037 A 
BRANCH  18  25
ATOM     24  C   UNL     1       1.052   7.664 -14.935  0.00  0.00    +0.252 C 
ATOM     25  O   UNL     1       1.006   7.336 -14.401  0.00  0.00    -0.471 OA
ENDBRANCH  18  25
ENDBRANCH  17  21
ENDBRANCH  15  17
ENDBRANCH  14  15
ENDBRANCH   1  14
TORSDOF 8
ENDMDL
MODEL 6
REMARK VINA RESULT:      -7.4      2.568      3.828
REMARK  Name = 
REMARK  8 active torsions:
REMARK  status: ('A' for Active; 'I' for Inactive)
REMARK    1  A    between atoms: O_2  and  C_3
REMARK    2  A    between atoms: C_6  and  C_7
REMARK    3  A    between atoms: C_7  and  C_8
REMARK    4  A    between atoms: C_8  and  N_10
REMARK    5  A    between atoms: N_10  and  C_11
REMARK    6  A    between atoms: C_11  and  C_12
REMARK    7  A    between atoms: C_12  and  C_14
REMARK    8  A    between atoms: C_19  and  N_20
REMARK                            x       y       z     vdW  Elec       q    Type
REMARK                         _______ _______ _______ _____ _____    ______ ____
ROOT
ATOM      1  C   UNL     1       2.569   4.828  -6.315  0.00  0.00    +0.126 C 
ENDROOT
BRANCH   1   2
ATOM      2  C   UNL     1       2.096   6.200  -5.451  0.00  0.00    +0.192 C 
ATOM      3  O   UNL     1       2.579   5.580  -4.109  0.00  0.00    -0.217 OA
BRANCH   2   4
ATOM      4  C   UNL     1       0.557   5.629  -5.283  0.00  0.00    +0.011 A 
ATOM      5  C   UNL     1      -0.262   6.272  -4.453  0.00  0.00    +0.018 A 
ATOM      6  C   UNL     1      -1.630   6.071  -4.660  0.00  0.00    +0.112 A 
ATOM      7  C   UNL     1      -2.063   5.833  -5.957  0.00  0.00    +0.211 A 
ATOM      8  O   UNL     1      -3.105   6.541  -6.558  0.00  0.00    -0.285 OA
ATOM      9  C   UNL     1      -1.209   5.044  -6.718  0.00  0.00    +0.043 A 
ATOM     10  C   UNL     1       0.124   4.894  -6.357  0.00  0.00    +0.002 A 
BRANCH   6  11
ATOM     11  N   UNL     1      -2.605   6.653  -3.799  0.00  0.00    -0.168 NA
ATOM     12  C   UNL     1      -3.201   5.808  -2.837  0.00  0.00    +0.325 C 
ATOM     13  O   UNL     1      -2.806   4.631  -2.689  0.00  0.00    -0.263 OA
ENDBRANCH   6  11
ENDBRANCH   2   4
ENDBRANCH   1   2
BRANCH   1  14
ATOM     14  N   UNL     1       3.764   5.352  -6.909  0.00  0.00    -0.216 NA
BRANCH  14  15
ATOM     15  C   UNL     1       3.808   4.734  -8.383  0.00  0.00    +0.077 C 
ATOM     16  C   UNL     1       5.252   5.500  -8.714  0.00  0.00    +0.019 C 
BRANCH  15  17
ATOM     17  C   UNL     1       2.933   6.018  -8.988  0.00  0.00    +0.044 C 
BRANCH  17  21
ATOM     18  C   UNL     1       0.912   4.961 -12.529  0.00  0.00    +0.139 A 
ATOM     19  C   UNL     1       0.349   4.657 -11.301  0.00  0.00    +0.037 A 
ATOM     20  C   UNL     1       1.085   4.942 -10.156  0.00  0.00    -0.001 A 
ATOM     21  C   UNL     1       2.346   5.523 -10.243  0.00  0.00    -0.021 A 
ATOM     22  C   UNL     1       2.547   6.227 -11.426  0.00  0.00    -0.001 A 
ATOM     23  C   UNL     1       2.117   5.648 -12.610  0.00  0.00    +0.037 A 
BRANCH  18  25
ATOM     24  C   UNL     1       0.460   4.150 -14.311  0.00  0.00    +0.252 C 
ATOM     25  O   UNL     1       0.517   4.324 -13.710  0.00  0.00    -0.471 OA
ENDBRANCH  18  25
ENDBRANCH  17  21
ENDBRANCH  15  17
ENDBRANCH  14  15
ENDBRANCH   1  14
TORSDOF 8
ENDMDL
MODEL 7
REMARK VINA RESULT:      -7.4      2.896      5.557
REMARK  Name = 
REMARK  8 active torsions:
REMARK  status: ('A' for Active; 'I' for Inactive)
REMARK    1  A    between atoms: O_2  and  C_3
REMARK    2  A    between atoms: C_6  and  C_7
REMARK    3  A    between atoms: C_7  and  C_8
REMARK    4  A    between atoms: C_8  and  N_10
REMARK    5  A    between atoms: N_10  and  C_11
REMARK    6  A    between atoms: C_11  and  C_12
REMARK    7  A    between atoms: C_12  and  C_14
REMARK    8  A    between atoms: C_19  and  N_20
REMARK                            x       y       z     vdW  Elec       q    Type
REMARK                         _______ _______ _______ _____ _____    ______ ____
ROOT
ATOM      1  C   UNL     1       0.330   5.073  -1.737  0.00  0.00    +0.126 C 
ENDROOT
BRANCH   1   2
ATOM      2  C   UNL     1      -1.026   6.068  -1.592  0.00  0.00    +0.192 C 
ATOM      3  O   UNL     1      -1.988   4.873  -1.847  0.00  0.00    -0.217 OA
BRANCH   2   4
ATOM      4  C   UNL     1      -0.954   6.487  -3.187  0.00  0.00    +0.011 A 
ATOM      5  C   UNL     1      -0.379   5.634  -4.033  0.00  0.00    +0.018 A 
ATOM      6  C   UNL     1      -0.721   5.779  -5.380  0.00  0.00    +0.112 A 
ATOM      7  C   UNL     1      -1.993   6.245  -5.682  0.00  0.00    +0.211 A 
ATOM      8  O   UNL     1      -2.851   5.605  -6.577  0.00  0.00    -0.285 OA
ATOM      9  C   UNL     1      -2.468   7.229  -4.823  0.00  0.00    +0.043 A 
ATOM     10  C   UNL     1      -1.912   7.394  -3.560  0.00  0.00    +0.002 A 
BRANCH   6  11
ATOM     11  N   UNL     1      -0.124   4.969  -6.390  0.00  0.00    -0.168 NA
ATOM     12  C   UNL     1       0.826   5.586  -7.233  0.00  0.00    +0.325 C 
ATOM     13  O   UNL     1       1.194   6.762  -7.025  0.00  0.00    -0.263 OA
ENDBRANCH   6  11
ENDBRANCH   2   4
ENDBRANCH   1   2
BRANCH   1  14
ATOM     14  N   UNL     1       1.220   5.799  -0.878  0.00  0.00    -0.216 NA
BRANCH  14  15
ATOM     15  C   UNL     1       2.686   5.502  -1.440  0.00  0.00    +0.077 C 
ATOM     16  C   UNL     1       3.394   6.293  -0.154  0.00  0.00    +0.019 C 
BRANCH  15  17
ATOM     17  C   UNL     1       2.662   6.899  -2.349  0.00  0.00    +0.044 C 
BRANCH  17  21
ATOM     18  C   UNL     1       4.422   5.728  -5.992  0.00  0.00    +0.139 A 
ATOM     19  C   UNL     1       4.584   7.027  -5.538  0.00  0.00    +0.037 A 
ATOM     20  C   UNL     1       3.915   7.400  -4.377  0.00  0.00    -0.001 A 
ATOM     21  C   UNL     1       3.116   6.494  -3.688  0.00  0.00    -0.021 A 
ATOM     22  C   UNL     1       3.453   5.167  -3.933  0.00  0.00    -0.001 A 
ATOM     23  C   UNL     1       3.722   4.793  -5.241  0.00  0.00    +0.037 A 
BRANCH  18  25
ATOM     24  C   UNL     1       4.549   5.189  -7.923  0.00  0.00    +0.252 C 
ATOM     25  O   UNL     1       4.631   5.373  -7.328  0.00  0.00    -0.471 OA
ENDBRANCH  18  25
ENDBRANCH  17  21
ENDBRANCH  15  17
ENDBRANCH  14  15
ENDBRANCH   1  14
TORSDOF 8
ENDMDL
MODEL 8
REMARK VINA RESULT:      -7.4      3.702      8.963
REMARK  Name = 
REMARK  8 active torsions:
REMARK  status: ('A' for Active; 'I' for Inactive)
REMARK    1  A    between atoms: O_2  and  C_3
REMARK    2  A    between atoms: C_6  and  C_7
REMARK    3  A    between atoms: C_7  and  C_8
REMARK    4  A    between atoms: C_8  and  N_10
REMARK    5  A    between atoms: N_10  and  C_11
REMARK    6  A    between atoms: C_11  and  C_12
REMARK    7  A    between atoms: C_12  and  C_14
REMARK    8  A    between atoms: C_19  and  N_20
REMARK                            x       y       z     vdW  Elec       q    Type
REMARK                         _______ _______ _______ _____ _____    ______ ____
ROOT
ATOM      1  C   UNL     1       2.522   5.899  -8.882  0.00  0.00    +0.126 C 
ENDROOT
BRANCH   1   2
ATOM      2  C   UNL     1       3.519   5.428 -10.162  0.00  0.00    +0.192 C 
ATOM      3  O   UNL     1       4.155   6.845 -10.249  0.00  0.00    -0.217 OA
BRANCH   2   4
ATOM      4  C   UNL     1       2.346   5.771 -11.271  0.00  0.00    +0.011 A 
ATOM      5  C   UNL     1       2.725   6.057 -12.515  0.00  0.00    +0.018 A 
ATOM      6  C   UNL     1       1.753   5.896 -13.506  0.00  0.00    +0.112 A 
ATOM      7  C   UNL     1       0.794   4.910 -13.323  0.00  0.00    +0.211 A 
ATOM      8  O   UNL     1       0.490   3.950 -14.288  0.00  0.00    -0.285 OA
ATOM      9  C   UNL     1       0.356   4.764 -12.012  0.00  0.00    +0.043 A 
ATOM     10  C   UNL     1       1.121   5.242 -10.954  0.00  0.00    +0.002 A 
BRANCH   6  11
ATOM     11  N   UNL     1       2.017   6.231 -14.866  0.00  0.00    -0.168 NA
ATOM     12  C   UNL     1       1.432   7.417 -15.363  0.00  0.00    +0.325 C 
ATOM     13  O   UNL     1       0.799   8.182 -14.605  0.00  0.00    -0.263 OA
ENDBRANCH   6  11
ENDBRANCH   2   4
ENDBRANCH   1   2
BRANCH   1  14
ATOM     14  N   UNL     1       3.062   5.044  -7.866  0.00  0.00    -0.216 NA
BRANCH  14  15
ATOM     15  C   UNL     1       2.291   5.444  -6.524  0.00  0.00    +0.077 C 
ATOM     16  C   UNL     1       1.874   3.856  -6.232  0.00  0.00    +0.019 C 
BRANCH  15  17
ATOM     17  C   UNL     1       0.880   5.710  -7.369  0.00  0.00    +0.044 C 
BRANCH  17  21
ATOM     18  C   UNL     1      -2.233   6.546  -4.657  0.00  0.00    +0.139 A 
ATOM     19  C   UNL     1      -1.065   7.290  -4.613  0.00  0.00    +0.037 A 
ATOM     20  C   UNL     1      -0.027   6.928  -5.464  0.00  0.00    -0.001 A 
ATOM     21  C   UNL     1      -0.162   5.856  -6.340  0.00  0.00    -0.021 A 
ATOM     22  C   UNL     1      -1.485   5.559  -6.647  0.00  0.00    -0.001 A 
ATOM     23  C   UNL     1      -2.409   5.554  -5.613  0.00  0.00    +0.037 A 
BRANCH  18  25
ATOM     24  C   UNL     1      -3.416   6.343  -3.046  0.00  0.00    +0.252 C 
ATOM     25  O   UNL     1      -3.126   6.494  -3.583  0.00  0.00    -0.471 OA
ENDBRANCH  18  25
ENDBRANCH  17  21
ENDBRANCH  15  17
ENDBRANCH  14  15
ENDBRANCH   1  14
TORSDOF 8
ENDMDL
MODEL 9
REMARK VINA RESULT:      -7.3      3.147      4.374
REMARK  Name = 
REMARK  8 active torsions:
REMARK  status: ('A' for Active; 'I' for Inactive)
REMARK    1  A    between atoms: O_2  and  C_3
REMARK    2  A    between atoms: C_6  and  C_7
REMARK    3  A    between atoms: C_7  and  C_8
REMARK    4  A    between atoms: C_8  and  N_10
REMARK    5  A    between atoms: N_10  and  C_11
REMARK    6  A    between atoms: C_11  and  C_12
REMARK    7  A    between atoms: C_12  and  C_14
REMARK    8  A    between atoms: C_19  and  N_20
REMARK                            x       y       z     vdW  Elec       q    Type
REMARK                         _______ _______ _______ _____ _____    ______ ____
ROOT
ATOM      1  C   UNL     1       2.918   5.702  -6.296  0.00  0.00    +0.126 C 
ENDROOT
BRANCH   1   2
ATOM      2  C   UNL     1       2.499   4.430  -5.268  0.00  0.00    +0.192 C 
ATOM      3  O   UNL     1       1.510   3.846  -6.318  0.00  0.00    -0.217 OA
BRANCH   2   4
ATOM      4  C   UNL     1       1.339   5.341  -4.527  0.00  0.00    +0.011 A 
ATOM      5  C   UNL     1       0.170   5.491  -5.147  0.00  0.00    +0.018 A 
ATOM      6  C   UNL     1      -0.911   5.857  -4.341  0.00  0.00    +0.112 A 
ATOM      7  C   UNL     1      -0.918   5.418  -3.024  0.00  0.00    +0.211 A 
ATOM      8  O   UNL     1      -2.005   4.766  -2.441  0.00  0.00    -0.285 OA
ATOM      9  C   UNL     1       0.327   5.414  -2.408  0.00  0.00    +0.043 A 
ATOM     10  C   UNL     1       1.492   5.422  -3.167  0.00  0.00    +0.002 A 
BRANCH   6  11
ATOM     11  N   UNL     1      -2.199   6.111  -4.896  0.00  0.00    -0.168 NA
ATOM     12  C   UNL     1      -2.593   7.462  -5.020  0.00  0.00    +0.325 C 
ATOM     13  O   UNL     1      -1.796   8.385  -4.748  0.00  0.00    -0.263 OA
ENDBRANCH   6  11
ENDBRANCH   2   4
ENDBRANCH   1   2
BRANCH   1  14
ATOM     14  N   UNL     1       2.682   5.049  -7.550  0.00  0.00    -0.216 NA
BRANCH  14  15
ATOM     15  C   UNL     1       2.780   6.203  -8.652  0.00  0.00    +0.077 C 
ATOM     16  C   UNL     1       2.434   7.380  -7.521  0.00  0.00    +0.019 C 
BRANCH  15  17
ATOM     17  C   UNL     1       1.167   6.028  -9.034  0.00  0.00    +0.044 C 
BRANCH  17  21
ATOM     18  C   UNL     1       0.615   7.142 -13.058  0.00  0.00    +0.139 A 
ATOM     19  C   UNL     1       1.670   6.315 -12.713  0.00  0.00    +0.037 A 
ATOM     20  C   UNL     1       1.872   6.040 -11.365  0.00  0.00    -0.001 A 
ATOM     21  C   UNL     1       1.033   6.573 -10.393  0.00  0.00    -0.021 A 
ATOM     22  C   UNL     1      -0.223   6.919 -10.880  0.00  0.00    -0.001 A 
ATOM     23  C   UNL     1      -0.292   7.576 -12.099  0.00  0.00    +0.037 A 
BRANCH  18  25
ATOM     24  C   UNL     1       0.681   8.042 -14.853  0.00  0.00    +0.252 C 
ATOM     25  O   UNL     1       0.585   7.854 -14.261  0.00  0.00    -0.471 OA
ENDBRANCH  18  25
ENDBRANCH  17  21
ENDBRANCH  15  17
ENDBRANCH  14  15
ENDBRANCH   1  14
TORSDOF 8
ENDMDL
