MODEL 1
REMARK VINA RESULT:      41.4      0.000      0.000
REMARK  Name = 
REMARK  3 active torsions:
REMARK  status: ('A' for Active; 'I' for Inactive)
REMARK    1  A    between atoms: C_17  and  O_18
REMARK    2  A    between atoms: O_18  and  C_19
REMARK    3  A    between atoms: C_32  and  C_33
REMARK                            x       y       z     vdW  Elec       q    Type
REMARK                         _______ _______ _______ _____ _____    ______ ____
ROOT
ATOM      1  C   UNL     1       3.506   6.928 -11.281  0.00  0.00    +0.007 C 
ATOM      2  C   UNL     1       3.420   7.629  -9.816  0.00  0.00    +0.053 C 
ATOM      3  C   UNL     1       3.233   6.115  -9.031  0.00  0.00    +0.159 C 
ATOM      4  O   UNL     1       3.349   6.817  -7.707  0.00  0.00    -0.223 OA
ATOM      5  C   UNL     1       1.536   6.184  -9.099  0.00  0.00    +0.071 C 
ATOM      6  C   UNL     1       1.489   4.683  -9.663  0.00  0.00    +0.006 C 
ATOM      7  C   UNL     1       1.273   5.757  -7.468  0.00  0.00    +0.171 C 
ATOM      8  C   UNL     1       0.238   7.023  -7.293  0.00  0.00    +0.047 C 
ATOM      9  O   UNL     1       0.099   4.799  -7.736  0.00  0.00    -0.452 OA
ATOM     10  C   UNL     1      -0.386   4.330  -6.518  0.00  0.00    +0.319 C 
ATOM     11  O   UNL     1      -1.024   3.247  -6.551  0.00  0.00    -0.250 OA
ATOM     12  C   UNL     1      -0.373   5.138  -5.263  0.00  0.00    +0.142 C 
ATOM     13  C   UNL     1      -0.174   3.979  -4.098  0.00  0.00    +0.166 C 
ATOM     14  O   UNL     1       1.163   4.564  -3.661  0.00  0.00    -0.222 OA
ATOM     15  C   UNL     1      -1.023   4.829  -2.963  0.00  0.00    +0.066 C 
ATOM     16  C   UNL     1      -0.369   6.335  -3.107  0.00  0.00    +0.157 C 
ATOM     17  O   UNL     1      -1.699   6.970  -2.714  0.00  0.00    -0.223 OA
ATOM     18  C   UNL     1       0.149   6.300  -1.536  0.00  0.00    +0.066 C 
ATOM     19  C   UNL     1      -0.066   7.893  -1.145  0.00  0.00    +0.155 C 
ATOM     20  O   UNL     1      -1.041   7.510  -0.033  0.00  0.00    -0.223 OA
ATOM     21  C   UNL     1       1.277   7.869  -0.183  0.00  0.00    +0.036 C 
ATOM     22  C   UNL     1       0.914   7.867   1.201  0.00  0.00    +0.038 C 
ATOM     23  C   UNL     1       0.355   9.387   1.458  0.00  0.00    +0.183 C 
ATOM     24  O   UNL     1       0.514   9.234   2.956  0.00  0.00    -0.220 OA
ATOM     25  C   UNL     1       1.960  10.009   1.297  0.00  0.00    +0.189 C 
ATOM     26  O   UNL     1       1.565  10.794   0.066  0.00  0.00    -0.220 OA
ATOM     27  C   UNL     1       1.568  11.265   2.285  0.00  0.00    +0.100 C 
ATOM     28  C   UNL     1       2.949  11.825   2.401  0.00  0.00    +0.156 C 
ATOM     29  O   UNL     1       3.595  11.370   3.298  0.00  0.00    -0.296 OA
ATOM     30  C   UNL     1       3.399  12.314   1.088  0.00  0.00    +0.098 C 
ATOM     31  C   UNL     1       4.643  13.252   1.582  0.00  0.00    +0.172 C 
ATOM     32  O   UNL     1       5.412  12.051   2.101  0.00  0.00    -0.222 OA
ATOM     33  C   UNL     1       5.398  13.181   0.036  0.00  0.00    +0.164 C 
ATOM     34  C   UNL     1       6.883  13.381   0.873  0.00  0.00    +0.168 C 
ATOM     35  O   UNL     1       7.263  11.938   0.522  0.00  0.00    -0.222 OA
ATOM     36  C   UNL     1       7.816  13.919  -0.313  0.00  0.00    +0.068 C 
ATOM     37  C   UNL     1       7.093  14.200  -1.719  0.00  0.00    +0.142 C 
ATOM     38  C   UNL     1       8.337  13.498  -2.534  0.00  0.00    +0.003 C 
ATOM     39  C   UNL     1       7.901  12.837  -3.553  0.00  0.00    -0.002 C 
ATOM     40  C   UNL     1       7.992  13.662  -4.758  0.00  0.00    -0.000 C 
ATOM     41  C   UNL     1       9.250  13.699  -5.209  0.00  0.00    -0.000 C 
ATOM     42  C   UNL     1       9.376  13.097  -6.544  0.00  0.00    -0.000 C 
ATOM     43  C   UNL     1       8.977  11.836  -6.635  0.00  0.00    -0.000 C 
ATOM     44  C   UNL     1       8.526  11.369  -7.932  0.00  0.00    -0.005 C 
ATOM     45  C   UNL     1       7.709  12.121  -8.637  0.00  0.00    -0.026 C 
ATOM     46  C   UNL     1       7.237  11.658  -9.975  0.00  0.00    +0.031 C 
ATOM     47  C   UNL     1       7.294  10.160 -10.103  0.00  0.00    +0.031 C 
ATOM     48  C   UNL     1       6.186   9.724 -10.991  0.00  0.00    -0.026 C 
ATOM     49  C   UNL     1       6.157   8.476 -11.453  0.00  0.00    -0.005 C 
ATOM     50  C   UNL     1       5.856   7.463 -10.439  0.00  0.00    -0.005 C 
ATOM     51  C   UNL     1       4.985   7.597  -9.526  0.00  0.00    -0.024 C 
ENDROOT
BRANCH  33  52
ATOM     52  C   UNL     1       4.949  14.657  -0.139  0.00  0.00    +0.369 C 
ATOM     53  O   UNL     1       4.546  14.844  -1.421  0.00  0.00    -0.245 OA
ATOM     54  O   UNL     1       4.870  15.696  -0.000  0.00  0.00    -0.245 OA
ENDBRANCH  33  52
BRANCH  37  55
ATOM     55  O   UNL     1       7.635  15.638  -1.796  0.00  0.00    -0.327 OA
BRANCH  55  56
ATOM     56  C   UNL     1       8.976  15.531  -1.091  0.00  0.00    +0.268 C 
ATOM     57  C   UNL     1       9.685  16.401  -2.416  0.00  0.00    +0.228 C 
ATOM     58  O   UNL     1       9.112  17.749  -2.120  0.00  0.00    -0.216 OA
ATOM     59  C   UNL     1      11.175  16.590  -1.640  0.00  0.00    +0.160 C 
ATOM     60  N   UNL     1      11.576  17.738  -2.605  0.00  0.00    -0.127 NA
ATOM     61  C   UNL     1      10.742  17.720  -0.463  0.00  0.00    +0.199 C 
ATOM     62  O   UNL     1      12.054  17.555   0.236  0.00  0.00    -0.219 OA
ATOM     63  C   UNL     1      10.064  16.500   0.523  0.00  0.00    +0.150 C 
ATOM     64  C   UNL     1       9.715  17.599   1.691  0.00  0.00    +0.035 C 
ATOM     65  O   UNL     1       8.760  16.760  -0.197  0.00  0.00    -0.328 OA
ENDBRANCH  55  56
ENDBRANCH  37  55
TORSDOF 3
ENDMDL
