MODEL 1
REMARK VINA RESULT:      -5.7      0.000      0.000
REMARK  Name = 
REMARK  0 active torsions:
REMARK  status: ('A' for Active; 'I' for Inactive)
REMARK                            x       y       z     vdW  Elec       q    Type
REMARK                         _______ _______ _______ _____ _____    ______ ____
ROOT
ATOM      1  C   UNL     1       4.353   4.962  -9.901  0.00  0.00    +0.030 C 
ATOM      2  C   UNL     1       5.391   5.872 -10.500  0.00  0.00    +0.093 C 
ATOM      3  O   UNL     1       5.655   5.457 -11.798  0.00  0.00    -0.363 OA
ATOM      4  C   UNL     1       6.858   5.946 -12.271  0.00  0.00    +0.093 C 
ATOM      5  C   UNL     1       6.846   6.254 -13.747  0.00  0.00    +0.030 C 
ATOM      6  C   UNL     1       7.906   4.883 -11.965  0.00  0.00    +0.030 C 
ATOM      7  C   UNL     1       7.216   7.225 -11.521  0.00  0.00    +0.025 C 
ATOM      8  C   UNL     1       6.016   8.096 -11.273  0.00  0.00    +0.005 C 
ATOM      9  C   UNL     1       7.718   6.751 -10.162  0.00  0.00    +0.005 C 
ATOM     10  C   UNL     1       4.908   7.314 -10.578  0.00  0.00    +0.027 C 
ATOM     11  C   UNL     1       6.606   5.864  -9.612  0.00  0.00    +0.027 C 
ENDROOT
TORSDOF 0
ENDMDL
MODEL 2
REMARK VINA RESULT:      -5.6      0.803      3.207
REMARK  Name = 
REMARK  0 active torsions:
REMARK  status: ('A' for Active; 'I' for Inactive)
REMARK                            x       y       z     vdW  Elec       q    Type
REMARK                         _______ _______ _______ _____ _____    ______ ____
ROOT
ATOM      1  C   UNL     1       6.103   5.379 -13.832  0.00  0.00    +0.030 C 
ATOM      2  C   UNL     1       6.474   5.792 -12.434  0.00  0.00    +0.093 C 
ATOM      3  O   UNL     1       5.500   5.331 -11.558  0.00  0.00    -0.363 OA
ATOM      4  C   UNL     1       5.524   5.999 -10.349  0.00  0.00    +0.093 C 
ATOM      5  C   UNL     1       5.160   5.129  -9.172  0.00  0.00    +0.030 C 
ATOM      6  C   UNL     1       4.536   7.153 -10.473  0.00  0.00    +0.030 C 
ATOM      7  C   UNL     1       6.919   6.565 -10.108  0.00  0.00    +0.025 C 
ATOM      8  C   UNL     1       8.002   5.617 -10.545  0.00  0.00    +0.005 C 
ATOM      9  C   UNL     1       7.002   7.791 -11.012  0.00  0.00    +0.005 C 
ATOM     10  C   UNL     1       7.799   5.186 -11.992  0.00  0.00    +0.027 C 
ATOM     11  C   UNL     1       6.643   7.287 -12.405  0.00  0.00    +0.027 C 
ENDROOT
TORSDOF 0
ENDMDL
MODEL 3
REMARK VINA RESULT:      -5.5      8.783     10.794
REMARK  Name = 
REMARK  0 active torsions:
REMARK  status: ('A' for Active; 'I' for Inactive)
REMARK                            x       y       z     vdW  Elec       q    Type
REMARK                         _______ _______ _______ _____ _____    ______ ____
ROOT
ATOM      1  C   UNL     1       0.659   4.853  -5.206  0.00  0.00    +0.030 C 
ATOM      2  C   UNL     1      -0.497   5.792  -4.989  0.00  0.00    +0.093 C 
ATOM      3  O   UNL     1      -0.970   5.628  -3.693  0.00  0.00    -0.363 OA
ATOM      4  C   UNL     1      -2.251   6.119  -3.537  0.00  0.00    +0.093 C 
ATOM      5  C   UNL     1      -2.507   6.715  -2.176  0.00  0.00    +0.030 C 
ATOM      6  C   UNL     1      -3.195   4.947  -3.782  0.00  0.00    +0.030 C 
ATOM      7  C   UNL     1      -2.515   7.195  -4.585  0.00  0.00    +0.025 C 
ATOM      8  C   UNL     1      -1.319   8.078  -4.809  0.00  0.00    +0.005 C 
ATOM      9  C   UNL     1      -2.756   6.425  -5.879  0.00  0.00    +0.005 C 
ATOM     10  C   UNL     1      -0.082   7.249  -5.134  0.00  0.00    +0.027 C 
ATOM     11  C   UNL     1      -1.538   5.524  -6.042  0.00  0.00    +0.027 C 
ENDROOT
TORSDOF 0
ENDMDL
MODEL 4
REMARK VINA RESULT:      -5.3      0.955      1.993
REMARK  Name = 
REMARK  0 active torsions:
REMARK  status: ('A' for Active; 'I' for Inactive)
REMARK                            x       y       z     vdW  Elec       q    Type
REMARK                         _______ _______ _______ _____ _____    ______ ____
ROOT
ATOM      1  C   UNL     1       4.176   5.147 -10.504  0.00  0.00    +0.030 C 
ATOM      2  C   UNL     1       5.226   5.932 -11.242  0.00  0.00    +0.093 C 
ATOM      3  O   UNL     1       6.459   5.322 -11.051  0.00  0.00    -0.363 OA
ATOM      4  C   UNL     1       7.512   6.173 -11.324  0.00  0.00    +0.093 C 
ATOM      5  C   UNL     1       8.710   5.477 -11.921  0.00  0.00    +0.030 C 
ATOM      6  C   UNL     1       7.893   6.828 -10.001  0.00  0.00    +0.030 C 
ATOM      7  C   UNL     1       7.055   7.253 -12.298  0.00  0.00    +0.025 C 
ATOM      8  C   UNL     1       6.140   6.711 -13.362  0.00  0.00    +0.005 C 
ATOM      9  C   UNL     1       6.237   8.220 -11.450  0.00  0.00    +0.005 C 
ATOM     10  C   UNL     1       4.967   5.962 -12.742  0.00  0.00    +0.027 C 
ATOM     11  C   UNL     1       5.185   7.358 -10.761  0.00  0.00    +0.027 C 
ENDROOT
TORSDOF 0
ENDMDL
MODEL 5
REMARK VINA RESULT:      -5.3      1.136      2.137
REMARK  Name = 
REMARK  0 active torsions:
REMARK  status: ('A' for Active; 'I' for Inactive)
REMARK                            x       y       z     vdW  Elec       q    Type
REMARK                         _______ _______ _______ _____ _____    ______ ____
ROOT
ATOM      1  C   UNL     1       8.100   5.148  -9.656  0.00  0.00    +0.030 C 
ATOM      2  C   UNL     1       6.988   5.863 -10.374  0.00  0.00    +0.093 C 
ATOM      3  O   UNL     1       6.686   5.168 -11.537  0.00  0.00    -0.363 OA
ATOM      4  C   UNL     1       5.998   5.945 -12.449  0.00  0.00    +0.093 C 
ATOM      5  C   UNL     1       4.988   5.172 -13.259  0.00  0.00    +0.030 C 
ATOM      6  C   UNL     1       7.045   6.562 -13.367  0.00  0.00    +0.030 C 
ATOM      7  C   UNL     1       5.263   7.061 -11.714  0.00  0.00    +0.025 C 
ATOM      8  C   UNL     1       4.664   6.592 -10.417  0.00  0.00    +0.005 C 
ATOM      9  C   UNL     1       6.347   8.077 -11.368  0.00  0.00    +0.005 C 
ATOM     10  C   UNL     1       5.716   5.922  -9.541  0.00  0.00    +0.027 C 
ATOM     11  C   UNL     1       7.416   7.285 -10.623  0.00  0.00    +0.027 C 
ENDROOT
TORSDOF 0
ENDMDL
MODEL 6
REMARK VINA RESULT:      -5.2      8.695     10.659
REMARK  Name = 
REMARK  0 active torsions:
REMARK  status: ('A' for Active; 'I' for Inactive)
REMARK                            x       y       z     vdW  Elec       q    Type
REMARK                         _______ _______ _______ _____ _____    ______ ____
ROOT
ATOM      1  C   UNL     1      -1.474   5.788  -1.596  0.00  0.00    +0.030 C 
ATOM      2  C   UNL     1      -1.726   5.940  -3.072  0.00  0.00    +0.093 C 
ATOM      3  O   UNL     1      -0.634   5.437  -3.766  0.00  0.00    -0.363 OA
ATOM      4  C   UNL     1      -0.580   5.901  -5.066  0.00  0.00    +0.093 C 
ATOM      5  C   UNL     1      -0.032   4.892  -6.044  0.00  0.00    +0.030 C 
ATOM      6  C   UNL     1       0.302   7.144  -5.045  0.00  0.00    +0.030 C 
ATOM      7  C   UNL     1      -1.980   6.294  -5.524  0.00  0.00    +0.025 C 
ATOM      8  C   UNL     1      -3.031   5.334  -5.037  0.00  0.00    +0.005 C 
ATOM      9  C   UNL     1      -2.248   7.635  -4.848  0.00  0.00    +0.005 C 
ATOM     10  C   UNL     1      -2.949   5.156  -3.526  0.00  0.00    +0.027 C 
ATOM     11  C   UNL     1      -2.001   7.391  -3.363  0.00  0.00    +0.027 C 
ENDROOT
TORSDOF 0
ENDMDL
MODEL 7
REMARK VINA RESULT:      -5.0      4.128      6.316
REMARK  Name = 
REMARK  0 active torsions:
REMARK  status: ('A' for Active; 'I' for Inactive)
REMARK                            x       y       z     vdW  Elec       q    Type
REMARK                         _______ _______ _______ _____ _____    ______ ____
ROOT
ATOM      1  C   UNL     1       4.183   4.568  -8.985  0.00  0.00    +0.030 C 
ATOM      2  C   UNL     1       3.422   5.408  -7.995  0.00  0.00    +0.093 C 
ATOM      3  O   UNL     1       2.403   4.641  -7.447  0.00  0.00    -0.363 OA
ATOM      4  C   UNL     1       1.418   5.417  -6.866  0.00  0.00    +0.093 C 
ATOM      5  C   UNL     1       0.797   4.787  -5.645  0.00  0.00    +0.030 C 
ATOM      6  C   UNL     1       0.357   5.642  -7.937  0.00  0.00    +0.030 C 
ATOM      7  C   UNL     1       2.005   6.764  -6.459  0.00  0.00    +0.025 C 
ATOM      8  C   UNL     1       3.392   6.633  -5.890  0.00  0.00    +0.005 C 
ATOM      9  C   UNL     1       2.126   7.545  -7.763  0.00  0.00    +0.005 C 
ATOM     10  C   UNL     1       4.304   5.873  -6.845  0.00  0.00    +0.027 C 
ATOM     11  C   UNL     1       2.928   6.645  -8.697  0.00  0.00    +0.027 C 
ENDROOT
TORSDOF 0
ENDMDL
MODEL 8
REMARK VINA RESULT:      -4.9      4.627      6.102
REMARK  Name = 
REMARK  0 active torsions:
REMARK  status: ('A' for Active; 'I' for Inactive)
REMARK                            x       y       z     vdW  Elec       q    Type
REMARK                         _______ _______ _______ _____ _____    ______ ____
ROOT
ATOM      1  C   UNL     1       2.378   6.025 -13.589  0.00  0.00    +0.030 C 
ATOM      2  C   UNL     1       1.435   6.101 -12.419  0.00  0.00    +0.093 C 
ATOM      3  O   UNL     1       2.163   6.395 -11.274  0.00  0.00    -0.363 OA
ATOM      4  C   UNL     1       1.476   6.078 -10.119  0.00  0.00    +0.093 C 
ATOM      5  C   UNL     1       1.749   7.022  -8.975  0.00  0.00    +0.030 C 
ATOM      6  C   UNL     1       1.896   4.662  -9.742  0.00  0.00    +0.030 C 
ATOM      7  C   UNL     1      -0.023   6.092 -10.399  0.00  0.00    +0.025 C 
ATOM      8  C   UNL     1      -0.423   7.221 -11.309  0.00  0.00    +0.005 C 
ATOM      9  C   UNL     1      -0.290   4.792 -11.151  0.00  0.00    +0.005 C 
ATOM     10  C   UNL     1       0.402   7.206 -12.591  0.00  0.00    +0.027 C 
ATOM     11  C   UNL     1       0.678   4.803 -12.328  0.00  0.00    +0.027 C 
ENDROOT
TORSDOF 0
ENDMDL
MODEL 9
REMARK VINA RESULT:      -4.9      5.722      7.071
REMARK  Name = 
REMARK  0 active torsions:
REMARK  status: ('A' for Active; 'I' for Inactive)
REMARK                            x       y       z     vdW  Elec       q    Type
REMARK                         _______ _______ _______ _____ _____    ______ ____
ROOT
ATOM      1  C   UNL     1      -1.110   5.913  -6.185  0.00  0.00    +0.030 C 
ATOM      2  C   UNL     1       0.318   5.619  -6.558  0.00  0.00    +0.093 C 
ATOM      3  O   UNL     1       1.131   6.622  -6.047  0.00  0.00    -0.363 OA
ATOM      4  C   UNL     1       2.361   6.670  -6.674  0.00  0.00    +0.093 C 
ATOM      5  C   UNL     1       3.490   7.069  -5.757  0.00  0.00    +0.030 C 
ATOM      6  C   UNL     1       2.227   7.678  -7.809  0.00  0.00    +0.030 C 
ATOM      7  C   UNL     1       2.686   5.302  -7.262  0.00  0.00    +0.025 C 
ATOM      8  C   UNL     1       2.271   4.177  -6.354  0.00  0.00    +0.005 C 
ATOM      9  C   UNL     1       1.829   5.206  -8.519  0.00  0.00    +0.005 C 
ATOM     10  C   UNL     1       0.803   4.302  -5.967  0.00  0.00    +0.027 C 
ATOM     11  C   UNL     1       0.404   5.486  -8.055  0.00  0.00    +0.027 C 
ENDROOT
TORSDOF 0
ENDMDL
