MODEL 1
REMARK VINA RESULT:      -7.0      0.000      0.000
REMARK  Name = 
REMARK  4 active torsions:
REMARK  status: ('A' for Active; 'I' for Inactive)
REMARK    1  A    between atoms: C_4  and  C_5
REMARK    2  A    between atoms: C_4  and  C_7
REMARK    3  A    between atoms: N_9  and  C_10
REMARK    4  A    between atoms: C_13  and  C_14
REMARK                            x       y       z     vdW  Elec       q    Type
REMARK                         _______ _______ _______ _____ _____    ______ ____
ROOT
ATOM      1  C   UNL     1       4.176   5.287  -8.933  0.00  0.00    +0.074 A 
ATOM      2  C   UNL     1       5.463   5.033  -8.534  0.00  0.00    +0.017 A 
ATOM      3  C   UNL     1       6.483   5.697  -9.203  0.00  0.00    +0.005 A 
ATOM      4  C   UNL     1       6.192   6.417 -10.332  0.00  0.00    +0.072 A 
ATOM      5  C   UNL     1       5.014   6.138 -10.970  0.00  0.00    +0.005 A 
ATOM      6  C   UNL     1       3.980   5.508 -10.290  0.00  0.00    +0.017 A 
ENDROOT
BRANCH   4   7
ATOM      7  C   UNL     1       7.126   7.388 -10.955  0.00  0.00    +0.419 C 
ATOM      8  F   UNL     1       7.804   6.819 -12.001  0.00  0.00    -0.166 F 
ATOM      9  F   UNL     1       6.438   8.496 -11.405  0.00  0.00    -0.166 F 
ATOM     10  F   UNL     1       8.022   7.815  -9.996  0.00  0.00    -0.166 F 
ENDBRANCH   4   7
BRANCH   1  12
ATOM     11  C   UNL     1       2.693   5.665  -7.010  0.00  0.00    +0.282 C 
ATOM     12  N   UNL     1       3.120   4.820  -8.084  0.00  0.00    -0.175 NA
ATOM     13  O   UNL     1       2.617   6.898  -7.301  0.00  0.00    -0.267 OA
BRANCH  11  16
ATOM     14  C   UNL     1       0.545   5.411  -3.954  0.00  0.00    +0.078 C 
ATOM     15  C   UNL     1       1.684   5.094  -4.859  0.00  0.00    +0.188 C 
ATOM     16  C   UNL     1       1.585   5.160  -6.186  0.00  0.00    +0.158 C 
ATOM     17  O   UNL     1       2.937   5.013  -4.292  0.00  0.00    -0.290 OA
BRANCH  16  18
ATOM     18  C   UNL     1       0.262   5.113  -6.764  0.00  0.00    +0.108 C 
ATOM     19  N   UNL     1      -0.731   5.376  -7.320  0.00  0.00    -0.191 NA
ENDBRANCH  16  18
ENDBRANCH  11  16
ENDBRANCH   1  12
TORSDOF 4
ENDMDL
MODEL 2
REMARK VINA RESULT:      -7.0      5.071      7.834
REMARK  Name = 
REMARK  4 active torsions:
REMARK  status: ('A' for Active; 'I' for Inactive)
REMARK    1  A    between atoms: C_4  and  C_5
REMARK    2  A    between atoms: C_4  and  C_7
REMARK    3  A    between atoms: N_9  and  C_10
REMARK    4  A    between atoms: C_13  and  C_14
REMARK                            x       y       z     vdW  Elec       q    Type
REMARK                         _______ _______ _______ _____ _____    ______ ____
ROOT
ATOM      1  C   UNL     1       0.419   5.645  -6.955  0.00  0.00    +0.074 A 
ATOM      2  C   UNL     1      -0.869   5.208  -7.119  0.00  0.00    +0.017 A 
ATOM      3  C   UNL     1      -1.859   5.840  -6.377  0.00  0.00    +0.005 A 
ATOM      4  C   UNL     1      -1.502   6.723  -5.392  0.00  0.00    +0.072 A 
ATOM      5  C   UNL     1      -0.220   6.653  -4.918  0.00  0.00    +0.005 A 
ATOM      6  C   UNL     1       0.777   6.055  -5.678  0.00  0.00    +0.017 A 
ENDROOT
BRANCH   4   7
ATOM      7  C   UNL     1      -2.450   7.661  -4.740  0.00  0.00    +0.419 C 
ATOM      8  F   UNL     1      -3.075   7.070  -3.673  0.00  0.00    -0.166 F 
ATOM      9  F   UNL     1      -1.790   8.793  -4.314  0.00  0.00    -0.166 F 
ATOM     10  F   UNL     1      -3.391   8.052  -5.672  0.00  0.00    -0.166 F 
ENDBRANCH   4   7
BRANCH   1  12
ATOM     11  C   UNL     1       1.657   6.007  -9.048  0.00  0.00    +0.282 C 
ATOM     12  N   UNL     1       1.394   5.189  -7.902  0.00  0.00    -0.175 NA
ATOM     13  O   UNL     1       1.707   7.252  -8.812  0.00  0.00    -0.267 OA
BRANCH  11  16
ATOM     14  C   UNL     1       3.835   6.085 -12.092  0.00  0.00    +0.078 C 
ATOM     15  C   UNL     1       2.626   5.777 -11.280  0.00  0.00    +0.188 C 
ATOM     16  C   UNL     1       2.687   5.515  -9.975  0.00  0.00    +0.158 C 
ATOM     17  O   UNL     1       1.400   6.055 -11.842  0.00  0.00    -0.290 OA
BRANCH  16  18
ATOM     18  C   UNL     1       3.960   5.099  -9.431  0.00  0.00    +0.108 C 
ATOM     19  N   UNL     1       4.940   5.018  -8.801  0.00  0.00    -0.191 NA
ENDBRANCH  16  18
ENDBRANCH  11  16
ENDBRANCH   1  12
TORSDOF 4
ENDMDL
MODEL 3
REMARK VINA RESULT:      -6.9      2.982      4.148
REMARK  Name = 
REMARK  4 active torsions:
REMARK  status: ('A' for Active; 'I' for Inactive)
REMARK    1  A    between atoms: C_4  and  C_5
REMARK    2  A    between atoms: C_4  and  C_7
REMARK    3  A    between atoms: N_9  and  C_10
REMARK    4  A    between atoms: C_13  and  C_14
REMARK                            x       y       z     vdW  Elec       q    Type
REMARK                         _______ _______ _______ _____ _____    ______ ____
ROOT
ATOM      1  C   UNL     1       2.388   6.466  -5.957  0.00  0.00    +0.074 A 
ATOM      2  C   UNL     1       2.236   7.198  -7.106  0.00  0.00    +0.017 A 
ATOM      3  C   UNL     1       3.080   6.902  -8.169  0.00  0.00    +0.005 A 
ATOM      4  C   UNL     1       4.132   6.047  -7.976  0.00  0.00    +0.072 A 
ATOM      5  C   UNL     1       4.542   5.832  -6.687  0.00  0.00    +0.005 A 
ATOM      6  C   UNL     1       3.684   6.092  -5.627  0.00  0.00    +0.017 A 
ENDROOT
BRANCH   4   7
ATOM      7  C   UNL     1       4.915   5.438  -9.081  0.00  0.00    +0.419 C 
ATOM      8  F   UNL     1       5.132   6.341 -10.088  0.00  0.00    -0.166 F 
ATOM      9  F   UNL     1       6.126   4.974  -8.613  0.00  0.00    -0.166 F 
ATOM     10  F   UNL     1       4.214   4.354  -9.571  0.00  0.00    -0.166 F 
ENDBRANCH   4   7
BRANCH   1  12
ATOM     11  C   UNL     1       0.239   5.689  -5.049  0.00  0.00    +0.282 C 
ATOM     12  N   UNL     1       1.360   6.578  -4.965  0.00  0.00    -0.175 NA
ATOM     13  O   UNL     1       0.532   4.494  -5.360  0.00  0.00    -0.267 OA
BRANCH  11  16
ATOM     14  C   UNL     1      -3.141   5.297  -3.489  0.00  0.00    +0.078 C 
ATOM     15  C   UNL     1      -2.067   5.951  -4.286  0.00  0.00    +0.188 C 
ATOM     16  C   UNL     1      -0.774   5.818  -3.992  0.00  0.00    +0.158 C 
ATOM     17  O   UNL     1      -2.417   6.463  -5.516  0.00  0.00    -0.290 OA
BRANCH  16  18
ATOM     18  C   UNL     1      -0.428   5.403  -2.652  0.00  0.00    +0.108 C 
ATOM     19  N   UNL     1      -0.023   4.815  -1.727  0.00  0.00    -0.191 NA
ENDBRANCH  16  18
ENDBRANCH  11  16
ENDBRANCH   1  12
TORSDOF 4
ENDMDL
MODEL 4
REMARK VINA RESULT:      -6.6      2.011      2.608
REMARK  Name = 
REMARK  4 active torsions:
REMARK  status: ('A' for Active; 'I' for Inactive)
REMARK    1  A    between atoms: C_4  and  C_5
REMARK    2  A    between atoms: C_4  and  C_7
REMARK    3  A    between atoms: N_9  and  C_10
REMARK    4  A    between atoms: C_13  and  C_14
REMARK                            x       y       z     vdW  Elec       q    Type
REMARK                         _______ _______ _______ _____ _____    ______ ____
ROOT
ATOM      1  C   UNL     1       4.659   5.865  -9.572  0.00  0.00    +0.074 A 
ATOM      2  C   UNL     1       5.876   5.558  -9.023  0.00  0.00    +0.017 A 
ATOM      3  C   UNL     1       6.974   5.533  -9.873  0.00  0.00    +0.005 A 
ATOM      4  C   UNL     1       6.780   5.623 -11.227  0.00  0.00    +0.072 A 
ATOM      5  C   UNL     1       5.528   5.342 -11.704  0.00  0.00    +0.005 A 
ATOM      6  C   UNL     1       4.426   5.405 -10.862  0.00  0.00    +0.017 A 
ENDROOT
BRANCH   4   7
ATOM      7  C   UNL     1       7.867   5.895 -12.200  0.00  0.00    +0.419 C 
ATOM      8  F   UNL     1       9.099   5.711 -11.629  0.00  0.00    -0.166 F 
ATOM      9  F   UNL     1       7.745   5.071 -13.299  0.00  0.00    -0.166 F 
ATOM     10  F   UNL     1       7.748   7.198 -12.639  0.00  0.00    -0.166 F 
ENDBRANCH   4   7
BRANCH   1  12
ATOM     11  C   UNL     1       2.545   5.180  -8.520  0.00  0.00    +0.282 C 
ATOM     12  N   UNL     1       3.584   6.155  -8.670  0.00  0.00    -0.175 NA
ATOM     13  O   UNL     1       2.947   3.978  -8.478  0.00  0.00    -0.267 OA
BRANCH  11  16
ATOM     14  C   UNL     1      -0.918   5.107  -7.100  0.00  0.00    +0.078 C 
ATOM     15  C   UNL     1       0.208   5.598  -7.941  0.00  0.00    +0.188 C 
ATOM     16  C   UNL     1       1.481   5.506  -7.559  0.00  0.00    +0.158 C 
ATOM     17  O   UNL     1      -0.068   5.886  -9.259  0.00  0.00    -0.290 OA
BRANCH  16  18
ATOM     18  C   UNL     1       1.749   5.333  -6.150  0.00  0.00    +0.108 C 
ATOM     19  N   UNL     1       2.121   4.930  -5.118  0.00  0.00    -0.191 NA
ENDBRANCH  16  18
ENDBRANCH  11  16
ENDBRANCH   1  12
TORSDOF 4
ENDMDL
MODEL 5
REMARK VINA RESULT:      -6.5      1.891      2.655
REMARK  Name = 
REMARK  4 active torsions:
REMARK  status: ('A' for Active; 'I' for Inactive)
REMARK    1  A    between atoms: C_4  and  C_5
REMARK    2  A    between atoms: C_4  and  C_7
REMARK    3  A    between atoms: N_9  and  C_10
REMARK    4  A    between atoms: C_13  and  C_14
REMARK                            x       y       z     vdW  Elec       q    Type
REMARK                         _______ _______ _______ _____ _____    ______ ____
ROOT
ATOM      1  C   UNL     1       2.541   4.691  -7.162  0.00  0.00    +0.074 A 
ATOM      2  C   UNL     1       3.680   5.168  -6.568  0.00  0.00    +0.017 A 
ATOM      3  C   UNL     1       4.722   5.555  -7.402  0.00  0.00    +0.005 A 
ATOM      4  C   UNL     1       4.652   5.276  -8.742  0.00  0.00    +0.072 A 
ATOM      5  C   UNL     1       3.773   4.303  -9.137  0.00  0.00    +0.005 A 
ATOM      6  C   UNL     1       2.710   3.944  -8.320  0.00  0.00    +0.017 A 
ENDROOT
BRANCH   4   7
ATOM      7  C   UNL     1       5.546   5.882  -9.759  0.00  0.00    +0.419 C 
ATOM      8  F   UNL     1       5.135   7.148 -10.086  0.00  0.00    -0.166 F 
ATOM      9  F   UNL     1       6.843   5.928  -9.294  0.00  0.00    -0.166 F 
ATOM     10  F   UNL     1       5.534   5.084 -10.886  0.00  0.00    -0.166 F 
ENDBRANCH   4   7
BRANCH   1  12
ATOM     11  C   UNL     1       0.780   5.731  -5.797  0.00  0.00    +0.282 C 
ATOM     12  N   UNL     1       1.380   4.546  -6.334  0.00  0.00    -0.175 NA
ATOM     13  O   UNL     1       0.723   6.709  -6.603  0.00  0.00    -0.267 OA
BRANCH  11  16
ATOM     14  C   UNL     1      -1.440   6.178  -2.816  0.00  0.00    +0.078 C 
ATOM     15  C   UNL     1      -0.374   5.558  -3.650  0.00  0.00    +0.188 C 
ATOM     16  C   UNL     1      -0.428   5.536  -4.981  0.00  0.00    +0.158 C 
ATOM     17  O   UNL     1       0.820   5.262  -3.031  0.00  0.00    -0.290 OA
BRANCH  16  18
ATOM     18  C   UNL     1      -1.718   5.720  -5.605  0.00  0.00    +0.108 C 
ATOM     19  N   UNL     1      -2.616   5.711  -6.352  0.00  0.00    -0.191 NA
ENDBRANCH  16  18
ENDBRANCH  11  16
ENDBRANCH   1  12
TORSDOF 4
ENDMDL
MODEL 6
REMARK VINA RESULT:      -6.4      4.462      7.290
REMARK  Name = 
REMARK  4 active torsions:
REMARK  status: ('A' for Active; 'I' for Inactive)
REMARK    1  A    between atoms: C_4  and  C_5
REMARK    2  A    between atoms: C_4  and  C_7
REMARK    3  A    between atoms: N_9  and  C_10
REMARK    4  A    between atoms: C_13  and  C_14
REMARK                            x       y       z     vdW  Elec       q    Type
REMARK                         _______ _______ _______ _____ _____    ______ ____
ROOT
ATOM      1  C   UNL     1       2.195   4.774  -8.381  0.00  0.00    +0.074 A 
ATOM      2  C   UNL     1       0.993   5.039  -8.986  0.00  0.00    +0.017 A 
ATOM      3  C   UNL     1      -0.061   5.431  -8.170  0.00  0.00    +0.005 A 
ATOM      4  C   UNL     1       0.077   5.356  -6.808  0.00  0.00    +0.072 A 
ATOM      5  C   UNL     1       1.068   4.547  -6.320  0.00  0.00    +0.005 A 
ATOM      6  C   UNL     1       2.141   4.187  -7.124  0.00  0.00    +0.017 A 
ENDROOT
BRANCH   4   7
ATOM      7  C   UNL     1      -0.849   6.004  -5.848  0.00  0.00    +0.419 C 
ATOM      8  F   UNL     1      -0.964   5.267  -4.698  0.00  0.00    -0.166 F 
ATOM      9  F   UNL     1      -0.408   7.273  -5.535  0.00  0.00    -0.166 F 
ATOM     10  F   UNL     1      -2.087   6.129  -6.446  0.00  0.00    -0.166 F 
ENDBRANCH   4   7
BRANCH   1  12
ATOM     11  C   UNL     1       3.854   5.808  -9.873  0.00  0.00    +0.282 C 
ATOM     12  N   UNL     1       3.341   4.635  -9.230  0.00  0.00    -0.175 NA
ATOM     13  O   UNL     1       3.871   6.847  -9.145  0.00  0.00    -0.267 OA
BRANCH  11  16
ATOM     14  C   UNL     1       6.094   6.396 -12.814  0.00  0.00    +0.078 C 
ATOM     15  C   UNL     1       4.998   5.762 -12.031  0.00  0.00    +0.188 C 
ATOM     16  C   UNL     1       5.049   5.623 -10.707  0.00  0.00    +0.158 C 
ATOM     17  O   UNL     1       3.790   5.582 -12.669  0.00  0.00    -0.290 OA
BRANCH  16  18
ATOM     18  C   UNL     1       6.347   5.686 -10.075  0.00  0.00    +0.108 C 
ATOM     19  N   UNL     1       7.284   6.023  -9.463  0.00  0.00    -0.191 NA
ENDBRANCH  16  18
ENDBRANCH  11  16
ENDBRANCH   1  12
TORSDOF 4
ENDMDL
MODEL 7
REMARK VINA RESULT:      -6.3      5.183      7.711
REMARK  Name = 
REMARK  4 active torsions:
REMARK  status: ('A' for Active; 'I' for Inactive)
REMARK    1  A    between atoms: C_4  and  C_5
REMARK    2  A    between atoms: C_4  and  C_7
REMARK    3  A    between atoms: N_9  and  C_10
REMARK    4  A    between atoms: C_13  and  C_14
REMARK                            x       y       z     vdW  Elec       q    Type
REMARK                         _______ _______ _______ _____ _____    ______ ____
ROOT
ATOM      1  C   UNL     1       0.379   5.451  -7.151  0.00  0.00    +0.074 A 
ATOM      2  C   UNL     1      -0.937   5.252  -7.477  0.00  0.00    +0.017 A 
ATOM      3  C   UNL     1      -1.890   5.585  -6.523  0.00  0.00    +0.005 A 
ATOM      4  C   UNL     1      -1.488   5.911  -5.254  0.00  0.00    +0.072 A 
ATOM      5  C   UNL     1      -0.232   5.521  -4.872  0.00  0.00    +0.005 A 
ATOM      6  C   UNL     1       0.731   5.225  -5.827  0.00  0.00    +0.017 A 
ENDROOT
BRANCH   4   7
ATOM      7  C   UNL     1      -2.370   6.553  -4.248  0.00  0.00    +0.419 C 
ATOM      8  F   UNL     1      -3.055   7.607  -4.792  0.00  0.00    -0.166 F 
ATOM      9  F   UNL     1      -3.267   5.637  -3.740  0.00  0.00    -0.166 F 
ATOM     10  F   UNL     1      -1.589   6.998  -3.200  0.00  0.00    -0.166 F 
ENDBRANCH   4   7
BRANCH   1  12
ATOM     11  C   UNL     1       1.585   6.539  -8.997  0.00  0.00    +0.282 C 
ATOM     12  N   UNL     1       1.339   5.366  -8.212  0.00  0.00    -0.175 NA
ATOM     13  O   UNL     1       1.639   7.620  -8.334  0.00  0.00    -0.267 OA
BRANCH  11  16
ATOM     14  C   UNL     1       4.652   5.163 -10.644  0.00  0.00    +0.078 C 
ATOM     15  C   UNL     1       3.855   6.065  -9.768  0.00  0.00    +0.188 C 
ATOM     16  C   UNL     1       2.601   6.415 -10.052  0.00  0.00    +0.158 C 
ATOM     17  O   UNL     1       4.336   6.300  -8.499  0.00  0.00    -0.290 OA
BRANCH  16  18
ATOM     18  C   UNL     1       2.159   6.280 -11.421  0.00  0.00    +0.108 C 
ATOM     19  N   UNL     1       2.035   6.389 -12.577  0.00  0.00    -0.191 NA
ENDBRANCH  16  18
ENDBRANCH  11  16
ENDBRANCH   1  12
TORSDOF 4
ENDMDL
MODEL 8
REMARK VINA RESULT:      -6.2      7.590      9.443
REMARK  Name = 
REMARK  4 active torsions:
REMARK  status: ('A' for Active; 'I' for Inactive)
REMARK    1  A    between atoms: C_4  and  C_5
REMARK    2  A    between atoms: C_4  and  C_7
REMARK    3  A    between atoms: N_9  and  C_10
REMARK    4  A    between atoms: C_13  and  C_14
REMARK                            x       y       z     vdW  Elec       q    Type
REMARK                         _______ _______ _______ _____ _____    ______ ____
ROOT
ATOM      1  C   UNL     1      -1.552   5.845  -1.769  0.00  0.00    +0.074 A 
ATOM      2  C   UNL     1      -0.463   5.590  -2.561  0.00  0.00    +0.017 A 
ATOM      3  C   UNL     1      -0.649   5.631  -3.937  0.00  0.00    +0.005 A 
ATOM      4  C   UNL     1      -1.918   5.734  -4.442  0.00  0.00    +0.072 A 
ATOM      5  C   UNL     1      -2.955   5.398  -3.614  0.00  0.00    +0.005 A 
ATOM      6  C   UNL     1      -2.779   5.394  -2.236  0.00  0.00    +0.017 A 
ENDROOT
BRANCH   4   7
ATOM      7  C   UNL     1      -2.219   6.074  -5.855  0.00  0.00    +0.419 C 
ATOM      8  F   UNL     1      -1.073   6.137  -6.603  0.00  0.00    -0.166 F 
ATOM      9  F   UNL     1      -3.072   5.139  -6.404  0.00  0.00    -0.166 F 
ATOM     10  F   UNL     1      -2.862   7.295  -5.886  0.00  0.00    -0.166 F 
ENDBRANCH   4   7
BRANCH   1  12
ATOM     11  C   UNL     1      -0.945   7.386   0.048  0.00  0.00    +0.282 C 
ATOM     12  N   UNL     1      -1.312   6.067  -0.373  0.00  0.00    -0.175 NA
ATOM     13  O   UNL     1      -1.582   8.323  -0.524  0.00  0.00    -0.267 OA
BRANCH  11  16
ATOM     14  C   UNL     1       0.796   8.626   3.121  0.00  0.00    +0.078 C 
ATOM     15  C   UNL     1       0.481   7.688   2.009  0.00  0.00    +0.188 C 
ATOM     16  C   UNL     1      -0.741   7.575   1.492  0.00  0.00    +0.158 C 
ATOM     17  O   UNL     1       1.543   7.145   1.321  0.00  0.00    -0.290 OA
BRANCH  16  18
ATOM     18  C   UNL     1      -1.855   8.035   2.291  0.00  0.00    +0.108 C 
ATOM     19  N   UNL     1      -2.910   8.378   2.654  0.00  0.00    -0.191 NA
ENDBRANCH  16  18
ENDBRANCH  11  16
ENDBRANCH   1  12
TORSDOF 4
ENDMDL
MODEL 9
REMARK VINA RESULT:      -6.2      4.945      6.705
REMARK  Name = 
REMARK  4 active torsions:
REMARK  status: ('A' for Active; 'I' for Inactive)
REMARK    1  A    between atoms: C_4  and  C_5
REMARK    2  A    between atoms: C_4  and  C_7
REMARK    3  A    between atoms: N_9  and  C_10
REMARK    4  A    between atoms: C_13  and  C_14
REMARK                            x       y       z     vdW  Elec       q    Type
REMARK                         _______ _______ _______ _____ _____    ______ ____
ROOT
ATOM      1  C   UNL     1       4.193   5.992  -5.304  0.00  0.00    +0.074 A 
ATOM      2  C   UNL     1       4.133   4.885  -4.498  0.00  0.00    +0.017 A 
ATOM      3  C   UNL     1       4.173   5.091  -3.124  0.00  0.00    +0.005 A 
ATOM      4  C   UNL     1       4.455   6.340  -2.638  0.00  0.00    +0.072 A 
ATOM      5  C   UNL     1       5.064   7.224  -3.488  0.00  0.00    +0.005 A 
ATOM      6  C   UNL     1       4.992   7.039  -4.862  0.00  0.00    +0.017 A 
ENDROOT
BRANCH   4   7
ATOM      7  C   UNL     1       4.243   6.744  -1.225  0.00  0.00    +0.419 C 
ATOM      8  F   UNL     1       3.811   5.686  -0.469  0.00  0.00    -0.166 F 
ATOM      9  F   UNL     1       5.411   7.244  -0.688  0.00  0.00    -0.166 F 
ATOM     10  F   UNL     1       3.302   7.753  -1.193  0.00  0.00    -0.166 F 
ENDBRANCH   4   7
BRANCH   1  12
ATOM     11  C   UNL     1       2.716   6.452  -7.214  0.00  0.00    +0.282 C 
ATOM     12  N   UNL     1       3.886   5.812  -6.692  0.00  0.00    -0.175 NA
ATOM     13  O   UNL     1       2.521   7.632  -6.789  0.00  0.00    -0.267 OA
BRANCH  11  16
ATOM     14  C   UNL     1       0.749   6.680 -10.391  0.00  0.00    +0.078 C 
ATOM     15  C   UNL     1       1.222   6.083  -9.112  0.00  0.00    +0.188 C 
ATOM     16  C   UNL     1       2.458   6.267  -8.649  0.00  0.00    +0.158 C 
ATOM     17  O   UNL     1       0.266   5.573  -8.262  0.00  0.00    -0.290 OA
BRANCH  16  18
ATOM     18  C   UNL     1       3.474   6.678  -9.590  0.00  0.00    +0.108 C 
ATOM     19  N   UNL     1       4.489   6.961 -10.096  0.00  0.00    -0.191 NA
ENDBRANCH  16  18
ENDBRANCH  11  16
ENDBRANCH   1  12
TORSDOF 4
ENDMDL
