MODEL 1
REMARK VINA RESULT:      -9.1      0.000      0.000
REMARK  Name = 
REMARK  11 active torsions:
REMARK  status: ('A' for Active; 'I' for Inactive)
REMARK    1  A    between atoms: O_2  and  C_3
REMARK    2  A    between atoms: C_6  and  C_7
REMARK    3  A    between atoms: C_7  and  N_8
REMARK    4  A    between atoms: N_8  and  C_25
REMARK    5  A    between atoms: C_9  and  C_11
REMARK    6  A    between atoms: C_11  and  C_13
REMARK    7  A    between atoms: C_13  and  C_14
REMARK    8  A    between atoms: C_18  and  C_19
REMARK    9  A    between atoms: C_25  and  C_27
REMARK   10  A    between atoms: C_29  and  C_30
REMARK   11  A    between atoms: C_39  and  C_40
REMARK                            x       y       z     vdW  Elec       q    Type
REMARK                         _______ _______ _______ _____ _____    ______ ____
ROOT
ATOM      1  N   UNL     1       1.973   5.919  -6.344  0.00  0.00    -0.269 N 
ATOM      2  C   UNL     1       0.922   5.428  -5.569  0.00  0.00    +0.244 C 
ATOM      3  O   UNL     1       1.193   4.502  -4.740  0.00  0.00    -0.273 OA
ENDROOT
BRANCH   2   4
ATOM      4  C   UNL     1       0.071   6.511  -4.674  0.00  0.00    +0.172 C 
ATOM      5  N   UNL     1      -1.145   6.584  -5.720  0.00  0.00    -0.123 NA
BRANCH   4   6
ATOM      6  C   UNL     1      -0.677   5.265  -3.841  0.00  0.00    +0.054 C 
BRANCH   6   7
ATOM      7  C   UNL     1      -1.031   5.888  -2.555  0.00  0.00    -0.028 A 
ATOM      8  C   UNL     1      -0.338   5.548  -1.412  0.00  0.00    -0.026 A 
ATOM      9  C   UNL     1       0.946   4.783  -1.482  0.00  0.00    +0.031 C 
ATOM     10  C   UNL     1      -0.608   6.296  -0.277  0.00  0.00    +0.000 A 
ATOM     11  C   UNL     1      -1.692   7.151  -0.284  0.00  0.00    +0.056 A 
ATOM     12  C   UNL     1      -2.655   7.053  -1.255  0.00  0.00    +0.000 A 
ATOM     13  C   UNL     1      -2.315   6.371  -2.415  0.00  0.00    -0.026 A 
ATOM     14  C   UNL     1      -3.254   6.490  -3.553  0.00  0.00    +0.031 C 
BRANCH  11  15
ATOM     15  C   UNL     1      -2.030   8.008   0.859  0.00  0.00    +0.284 C 
ATOM     16  O   UNL     1      -2.196   7.385   1.951  0.00  0.00    -0.267 OA
ATOM     17  N   UNL     1      -1.274   9.219   0.974  0.00  0.00    -0.084 NA
ENDBRANCH  11  15
ENDBRANCH   6   7
ENDBRANCH   4   6
ENDBRANCH   2   4
BRANCH   1  18
ATOM     18  C   UNL     1       1.442   6.484  -7.748  0.00  0.00    +0.134 C 
ATOM     19  C   UNL     1       2.206   7.956  -7.511  0.00  0.00    +0.030 C 
BRANCH  18  20
ATOM     20  C   UNL     1       2.724   5.900  -8.595  0.00  0.00    +0.157 A 
ATOM     21  N   UNL     1       2.486   5.080  -9.639  0.00  0.00    -0.226 NA
ATOM     22  C   UNL     1       3.646   5.119 -10.344  0.00  0.00    +0.119 A 
ATOM     23  C   UNL     1       4.286   6.318 -10.041  0.00  0.00    +0.102 A 
ATOM     24  N   UNL     1       3.397   6.915  -9.202  0.00  0.00    -0.227 NA
BRANCH  23  25
ATOM     25  C   UNL     1       5.722   6.626 -10.154  0.00  0.00    +0.019 A 
ATOM     26  C   UNL     1       6.251   7.251 -11.278  0.00  0.00    +0.002 A 
ATOM     27  C   UNL     1       7.337   6.728 -11.970  0.00  0.00    +0.000 A 
ATOM     28  C   UNL     1       8.160   5.812 -11.327  0.00  0.00    +0.000 A 
ATOM     29  C   UNL     1       7.882   5.543 -10.008  0.00  0.00    +0.000 A 
ATOM     30  C   UNL     1       6.614   5.789  -9.493  0.00  0.00    +0.002 A 
ENDBRANCH  23  25
ENDBRANCH  18  20
ENDBRANCH   1  18
BRANCH   1  31
ATOM     31  C   UNL     1       3.290   5.378  -6.333  0.00  0.00    +0.121 C 
BRANCH  31  35
ATOM     32  C   UNL     1       4.182   5.727  -2.284  0.00  0.00    +0.145 A 
ATOM     33  C   UNL     1       3.925   6.875  -2.993  0.00  0.00    +0.113 A 
ATOM     34  C   UNL     1       3.764   6.799  -4.372  0.00  0.00    +0.007 A 
ATOM     35  C   UNL     1       3.987   5.611  -5.058  0.00  0.00    -0.002 A 
ATOM     36  C   UNL     1       4.469   4.555  -4.312  0.00  0.00    +0.001 A 
ATOM     37  C   UNL     1       4.373   4.541  -2.931  0.00  0.00    +0.037 A 
BRANCH  33  38
ATOM     38  C   UNL     1       3.257   7.992  -2.308  0.00  0.00    +0.391 C 
ATOM     39  O   UNL     1       3.986   9.155  -2.053  0.00  0.00    -0.240 OA
ATOM     40  O   UNL     1       2.135   7.843  -1.786  0.00  0.00    -0.240 OA
ENDBRANCH  33  38
BRANCH  32  42
ATOM     41  C   UNL     1       4.658   5.796  -0.483  0.00  0.00    +0.252 C 
ATOM     42  O   UNL     1       4.646   5.888  -0.980  0.00  0.00    -0.471 OA
ENDBRANCH  32  42
ENDBRANCH  31  35
ENDBRANCH   1  31
TORSDOF 11
ENDMDL
MODEL 2
REMARK VINA RESULT:      -8.8      2.015      2.868
REMARK  Name = 
REMARK  11 active torsions:
REMARK  status: ('A' for Active; 'I' for Inactive)
REMARK    1  A    between atoms: O_2  and  C_3
REMARK    2  A    between atoms: C_6  and  C_7
REMARK    3  A    between atoms: C_7  and  N_8
REMARK    4  A    between atoms: N_8  and  C_25
REMARK    5  A    between atoms: C_9  and  C_11
REMARK    6  A    between atoms: C_11  and  C_13
REMARK    7  A    between atoms: C_13  and  C_14
REMARK    8  A    between atoms: C_18  and  C_19
REMARK    9  A    between atoms: C_25  and  C_27
REMARK   10  A    between atoms: C_29  and  C_30
REMARK   11  A    between atoms: C_39  and  C_40
REMARK                            x       y       z     vdW  Elec       q    Type
REMARK                         _______ _______ _______ _____ _____    ______ ____
ROOT
ATOM      1  N   UNL     1       2.760   5.958  -4.798  0.00  0.00    -0.269 N 
ATOM      2  C   UNL     1       1.520   5.675  -5.368  0.00  0.00    +0.244 C 
ATOM      3  O   UNL     1       1.068   4.494  -5.224  0.00  0.00    -0.273 OA
ENDROOT
BRANCH   2   4
ATOM      4  C   UNL     1       0.254   6.627  -4.936  0.00  0.00    +0.172 C 
ATOM      5  N   UNL     1      -0.616   6.246  -6.231  0.00  0.00    -0.123 NA
BRANCH   4   6
ATOM      6  C   UNL     1      -0.426   5.365  -4.068  0.00  0.00    +0.054 C 
BRANCH   6   7
ATOM      7  C   UNL     1      -0.831   6.008  -2.806  0.00  0.00    -0.028 A 
ATOM      8  C   UNL     1      -0.258   5.610  -1.617  0.00  0.00    -0.026 A 
ATOM      9  C   UNL     1       0.966   4.750  -1.595  0.00  0.00    +0.031 C 
ATOM     10  C   UNL     1      -0.558   6.372  -0.498  0.00  0.00    +0.000 A 
ATOM     11  C   UNL     1      -1.570   7.308  -0.581  0.00  0.00    +0.056 A 
ATOM     12  C   UNL     1      -2.459   7.288  -1.625  0.00  0.00    +0.000 A 
ATOM     13  C   UNL     1      -2.081   6.587  -2.761  0.00  0.00    -0.026 A 
ATOM     14  C   UNL     1      -2.916   6.784  -3.968  0.00  0.00    +0.031 C 
BRANCH  11  15
ATOM     15  C   UNL     1      -1.931   8.182   0.542  0.00  0.00    +0.284 C 
ATOM     16  O   UNL     1      -2.353   7.570   1.570  0.00  0.00    -0.267 OA
ATOM     17  N   UNL     1      -1.015   9.249   0.819  0.00  0.00    -0.084 NA
ENDBRANCH  11  15
ENDBRANCH   6   7
ENDBRANCH   4   6
ENDBRANCH   2   4
BRANCH   1  18
ATOM     18  C   UNL     1       3.515   7.122  -5.602  0.00  0.00    +0.134 C 
ATOM     19  C   UNL     1       4.632   6.043  -6.231  0.00  0.00    +0.030 C 
BRANCH  18  20
ATOM     20  C   UNL     1       2.557   6.979  -6.931  0.00  0.00    +0.157 A 
ATOM     21  N   UNL     1       2.081   8.102  -7.505  0.00  0.00    -0.226 NA
ATOM     22  C   UNL     1       1.710   7.691  -8.745  0.00  0.00    +0.119 A 
ATOM     23  C   UNL     1       2.452   6.556  -9.055  0.00  0.00    +0.102 A 
ATOM     24  N   UNL     1       3.251   6.426  -7.963  0.00  0.00    -0.227 NA
BRANCH  23  25
ATOM     25  C   UNL     1       2.116   5.495 -10.021  0.00  0.00    +0.019 A 
ATOM     26  C   UNL     1       2.430   5.606 -11.371  0.00  0.00    +0.002 A 
ATOM     27  C   UNL     1       1.479   5.423 -12.368  0.00  0.00    +0.000 A 
ATOM     28  C   UNL     1       0.313   4.732 -12.059  0.00  0.00    +0.000 A 
ATOM     29  C   UNL     1       0.217   4.206 -10.794  0.00  0.00    +0.000 A 
ATOM     30  C   UNL     1       0.992   4.719  -9.759  0.00  0.00    +0.002 A 
ENDBRANCH  23  25
ENDBRANCH  18  20
ENDBRANCH   1  18
BRANCH   1  31
ATOM     31  C   UNL     1       3.586   4.985  -4.163  0.00  0.00    +0.121 C 
BRANCH  31  35
ATOM     32  C   UNL     1       4.277   6.239  -0.257  0.00  0.00    +0.145 A 
ATOM     33  C   UNL     1       4.081   7.197  -1.221  0.00  0.00    +0.113 A 
ATOM     34  C   UNL     1       3.989   6.811  -2.553  0.00  0.00    +0.007 A 
ATOM     35  C   UNL     1       4.221   5.496  -2.938  0.00  0.00    -0.002 A 
ATOM     36  C   UNL     1       4.643   4.633  -1.947  0.00  0.00    +0.001 A 
ATOM     37  C   UNL     1       4.476   4.935  -0.606  0.00  0.00    +0.037 A 
BRANCH  33  38
ATOM     38  C   UNL     1       3.403   8.446  -0.844  0.00  0.00    +0.391 C 
ATOM     39  O   UNL     1       2.202   8.371  -0.136  0.00  0.00    -0.240 OA
ATOM     40  O   UNL     1       3.772   9.542  -1.311  0.00  0.00    -0.240 OA
ENDBRANCH  33  38
BRANCH  32  42
ATOM     41  C   UNL     1       4.951   6.965   1.323  0.00  0.00    +0.252 C 
ATOM     42  O   UNL     1       4.678   6.688   1.001  0.00  0.00    -0.471 OA
ENDBRANCH  32  42
ENDBRANCH  31  35
ENDBRANCH   1  31
TORSDOF 11
ENDMDL
MODEL 3
REMARK VINA RESULT:      -8.8      3.014      8.585
REMARK  Name = 
REMARK  11 active torsions:
REMARK  status: ('A' for Active; 'I' for Inactive)
REMARK    1  A    between atoms: O_2  and  C_3
REMARK    2  A    between atoms: C_6  and  C_7
REMARK    3  A    between atoms: C_7  and  N_8
REMARK    4  A    between atoms: N_8  and  C_25
REMARK    5  A    between atoms: C_9  and  C_11
REMARK    6  A    between atoms: C_11  and  C_13
REMARK    7  A    between atoms: C_13  and  C_14
REMARK    8  A    between atoms: C_18  and  C_19
REMARK    9  A    between atoms: C_25  and  C_27
REMARK   10  A    between atoms: C_29  and  C_30
REMARK   11  A    between atoms: C_39  and  C_40
REMARK                            x       y       z     vdW  Elec       q    Type
REMARK                         _______ _______ _______ _____ _____    ______ ____
ROOT
ATOM      1  N   UNL     1       3.302   5.596  -4.961  0.00  0.00    -0.269 N 
ATOM      2  C   UNL     1       3.435   4.891  -6.157  0.00  0.00    +0.244 C 
ATOM      3  O   UNL     1       2.525   4.048  -6.441  0.00  0.00    -0.273 OA
ENDROOT
BRANCH   2   4
ATOM      4  C   UNL     1       3.595   5.766  -7.537  0.00  0.00    +0.172 C 
ATOM      5  N   UNL     1       5.086   5.244  -7.824  0.00  0.00    -0.123 NA
BRANCH   4   6
ATOM      6  C   UNL     1       2.947   4.508  -8.434  0.00  0.00    +0.054 C 
BRANCH   6   7
ATOM      7  C   UNL     1       2.098   5.202  -9.418  0.00  0.00    -0.028 A 
ATOM      8  C   UNL     1       0.727   5.179  -9.280  0.00  0.00    -0.026 A 
ATOM      9  C   UNL     1       0.082   4.719  -8.012  0.00  0.00    +0.031 C 
ATOM     10  C   UNL     1       0.004   5.993 -10.139  0.00  0.00    +0.000 A 
ATOM     11  C   UNL     1       0.652   6.576 -11.210  0.00  0.00    +0.056 A 
ATOM     12  C   UNL     1       1.892   6.137 -11.601  0.00  0.00    +0.000 A 
ATOM     13  C   UNL     1       2.620   5.400 -10.679  0.00  0.00    -0.026 A 
ATOM     14  C   UNL     1       4.043   5.155 -11.004  0.00  0.00    +0.031 C 
BRANCH  11  15
ATOM     15  C   UNL     1      -0.026   7.479 -12.147  0.00  0.00    +0.284 C 
ATOM     16  O   UNL     1      -0.748   8.363 -11.596  0.00  0.00    -0.267 OA
ATOM     17  N   UNL     1       0.772   7.957 -13.238  0.00  0.00    -0.084 NA
ENDBRANCH  11  15
ENDBRANCH   6   7
ENDBRANCH   4   6
ENDBRANCH   2   4
BRANCH   1  18
ATOM     18  C   UNL     1       4.733   6.027  -4.381  0.00  0.00    +0.134 C 
ATOM     19  C   UNL     1       4.418   7.651  -4.652  0.00  0.00    +0.030 C 
BRANCH  18  20
ATOM     20  C   UNL     1       4.198   6.133  -2.830  0.00  0.00    +0.157 A 
ATOM     21  N   UNL     1       4.519   5.145  -1.970  0.00  0.00    -0.226 NA
ATOM     22  C   UNL     1       4.310   5.706  -0.751  0.00  0.00    +0.119 A 
ATOM     23  C   UNL     1       4.420   7.086  -0.895  0.00  0.00    +0.102 A 
ATOM     24  N   UNL     1       4.744   7.214  -2.209  0.00  0.00    -0.227 NA
BRANCH  23  25
ATOM     25  C   UNL     1       3.842   8.131  -0.033  0.00  0.00    +0.019 A 
ATOM     26  C   UNL     1       3.280   9.289  -0.561  0.00  0.00    +0.002 A 
ATOM     27  C   UNL     1       3.657  10.556  -0.132  0.00  0.00    +0.000 A 
ATOM     28  C   UNL     1       4.290  10.682   1.099  0.00  0.00    +0.000 A 
ATOM     29  C   UNL     1       4.429   9.539   1.848  0.00  0.00    +0.000 A 
ATOM     30  C   UNL     1       4.382   8.289   1.239  0.00  0.00    +0.002 A 
ENDBRANCH  23  25
ENDBRANCH  18  20
ENDBRANCH   1  18
BRANCH   1  31
ATOM     31  C   UNL     1       2.274   5.353  -4.004  0.00  0.00    +0.121 C 
BRANCH  31  35
ATOM     32  C   UNL     1      -1.420   7.193  -4.534  0.00  0.00    +0.145 A 
ATOM     33  C   UNL     1      -1.383   5.990  -3.872  0.00  0.00    +0.113 A 
ATOM     34  C   UNL     1      -0.184   5.289  -3.805  0.00  0.00    +0.007 A 
ATOM     35  C   UNL     1       0.939   5.716  -4.504  0.00  0.00    -0.002 A 
ATOM     36  C   UNL     1       0.766   6.803  -5.336  0.00  0.00    +0.001 A 
ATOM     37  C   UNL     1      -0.321   7.651  -5.201  0.00  0.00    +0.037 A 
BRANCH  33  38
ATOM     38  C   UNL     1      -2.352   5.750  -2.793  0.00  0.00    +0.391 C 
ATOM     39  O   UNL     1      -2.487   6.709  -1.786  0.00  0.00    -0.240 OA
ATOM     40  O   UNL     1      -2.898   4.637  -2.657  0.00  0.00    -0.240 OA
ENDBRANCH  33  38
BRANCH  32  42
ATOM     41  C   UNL     1      -3.016   7.953  -5.126  0.00  0.00    +0.252 C 
ATOM     42  O   UNL     1      -2.681   7.696  -4.848  0.00  0.00    -0.471 OA
ENDBRANCH  32  42
ENDBRANCH  31  35
ENDBRANCH   1  31
TORSDOF 11
ENDMDL
MODEL 4
REMARK VINA RESULT:      -8.6      2.570      5.454
REMARK  Name = 
REMARK  11 active torsions:
REMARK  status: ('A' for Active; 'I' for Inactive)
REMARK    1  A    between atoms: O_2  and  C_3
REMARK    2  A    between atoms: C_6  and  C_7
REMARK    3  A    between atoms: C_7  and  N_8
REMARK    4  A    between atoms: N_8  and  C_25
REMARK    5  A    between atoms: C_9  and  C_11
REMARK    6  A    between atoms: C_11  and  C_13
REMARK    7  A    between atoms: C_13  and  C_14
REMARK    8  A    between atoms: C_18  and  C_19
REMARK    9  A    between atoms: C_25  and  C_27
REMARK   10  A    between atoms: C_29  and  C_30
REMARK   11  A    between atoms: C_39  and  C_40
REMARK                            x       y       z     vdW  Elec       q    Type
REMARK                         _______ _______ _______ _____ _____    ______ ____
ROOT
ATOM      1  N   UNL     1       2.998   5.985  -6.037  0.00  0.00    -0.269 N 
ATOM      2  C   UNL     1       3.892   6.823  -5.370  0.00  0.00    +0.244 C 
ATOM      3  O   UNL     1       3.494   8.000  -5.098  0.00  0.00    -0.273 OA
ENDROOT
BRANCH   2   4
ATOM      4  C   UNL     1       4.514   6.287  -3.948  0.00  0.00    +0.172 C 
ATOM      5  N   UNL     1       5.622   7.447  -3.871  0.00  0.00    -0.123 NA
BRANCH   4   6
ATOM      6  C   UNL     1       3.423   7.227  -3.093  0.00  0.00    +0.054 C 
BRANCH   6   7
ATOM      7  C   UNL     1       3.942   7.172  -1.716  0.00  0.00    -0.028 A 
ATOM      8  C   UNL     1       3.980   5.969  -1.042  0.00  0.00    -0.026 A 
ATOM      9  C   UNL     1       3.780   4.672  -1.759  0.00  0.00    +0.031 C 
ATOM     10  C   UNL     1       4.636   5.963   0.179  0.00  0.00    +0.000 A 
ATOM     11  C   UNL     1       4.993   7.167   0.751  0.00  0.00    +0.056 A 
ATOM     12  C   UNL     1       4.459   8.345   0.295  0.00  0.00    +0.000 A 
ATOM     13  C   UNL     1       3.888   8.331  -0.970  0.00  0.00    -0.026 A 
ATOM     14  C   UNL     1       3.552   9.646  -1.559  0.00  0.00    +0.031 C 
BRANCH  11  15
ATOM     15  C   UNL     1       5.722   7.253   2.022  0.00  0.00    +0.284 C 
ATOM     16  O   UNL     1       6.338   8.346   2.202  0.00  0.00    -0.267 OA
ATOM     17  N   UNL     1       5.022   6.768   3.175  0.00  0.00    -0.084 NA
ENDBRANCH  11  15
ENDBRANCH   6   7
ENDBRANCH   4   6
ENDBRANCH   2   4
BRANCH   1  18
ATOM     18  C   UNL     1       3.775   4.898  -6.923  0.00  0.00    +0.134 C 
ATOM     19  C   UNL     1       2.406   3.940  -7.053  0.00  0.00    +0.030 C 
BRANCH  18  20
ATOM     20  C   UNL     1       3.440   5.652  -8.345  0.00  0.00    +0.157 A 
ATOM     21  N   UNL     1       4.467   6.011  -9.141  0.00  0.00    -0.226 NA
ATOM     22  C   UNL     1       3.880   6.205 -10.349  0.00  0.00    +0.119 A 
ATOM     23  C   UNL     1       2.709   5.453 -10.377  0.00  0.00    +0.102 A 
ATOM     24  N   UNL     1       2.739   4.827  -9.170  0.00  0.00    -0.227 NA
BRANCH  23  25
ATOM     25  C   UNL     1       1.518   5.669 -11.217  0.00  0.00    +0.019 A 
ATOM     26  C   UNL     1       1.622   5.973 -12.571  0.00  0.00    +0.002 A 
ATOM     27  C   UNL     1       0.977   7.069 -13.133  0.00  0.00    +0.000 A 
ATOM     28  C   UNL     1      -0.095   7.634 -12.452  0.00  0.00    +0.000 A 
ATOM     29  C   UNL     1      -0.495   7.012 -11.294  0.00  0.00    +0.000 A 
ATOM     30  C   UNL     1       0.382   6.182 -10.603  0.00  0.00    +0.002 A 
ENDBRANCH  23  25
ENDBRANCH  18  20
ENDBRANCH   1  18
BRANCH   1  31
ATOM     31  C   UNL     1       1.722   6.401  -6.515  0.00  0.00    +0.121 C 
BRANCH  31  35
ATOM     32  C   UNL     1      -1.561   5.697  -4.058  0.00  0.00    +0.145 A 
ATOM     33  C   UNL     1      -0.319   5.330  -3.602  0.00  0.00    +0.113 A 
ATOM     34  C   UNL     1       0.774   5.425  -4.457  0.00  0.00    +0.007 A 
ATOM     35  C   UNL     1       0.611   5.757  -5.797  0.00  0.00    -0.002 A 
ATOM     36  C   UNL     1      -0.688   5.883  -6.243  0.00  0.00    +0.001 A 
ATOM     37  C   UNL     1      -1.742   6.058  -5.362  0.00  0.00    +0.037 A 
BRANCH  33  38
ATOM     38  C   UNL     1      -0.042   5.423  -2.161  0.00  0.00    +0.391 C 
ATOM     39  O   UNL     1      -0.020   6.684  -1.561  0.00  0.00    -0.240 OA
ATOM     40  O   UNL     1       0.362   4.432  -1.521  0.00  0.00    -0.240 OA
ENDBRANCH  33  38
BRANCH  32  42
ATOM     41  C   UNL     1      -3.084   5.359  -3.037  0.00  0.00    +0.252 C 
ATOM     42  O   UNL     1      -2.654   5.292  -3.293  0.00  0.00    -0.471 OA
ENDBRANCH  32  42
ENDBRANCH  31  35
ENDBRANCH   1  31
TORSDOF 11
ENDMDL
MODEL 5
REMARK VINA RESULT:      -8.6      3.489      6.034
REMARK  Name = 
REMARK  11 active torsions:
REMARK  status: ('A' for Active; 'I' for Inactive)
REMARK    1  A    between atoms: O_2  and  C_3
REMARK    2  A    between atoms: C_6  and  C_7
REMARK    3  A    between atoms: C_7  and  N_8
REMARK    4  A    between atoms: N_8  and  C_25
REMARK    5  A    between atoms: C_9  and  C_11
REMARK    6  A    between atoms: C_11  and  C_13
REMARK    7  A    between atoms: C_13  and  C_14
REMARK    8  A    between atoms: C_18  and  C_19
REMARK    9  A    between atoms: C_25  and  C_27
REMARK   10  A    between atoms: C_29  and  C_30
REMARK   11  A    between atoms: C_39  and  C_40
REMARK                            x       y       z     vdW  Elec       q    Type
REMARK                         _______ _______ _______ _____ _____    ______ ____
ROOT
ATOM      1  N   UNL     1       2.035   5.061  -7.497  0.00  0.00    -0.269 N 
ATOM      2  C   UNL     1       2.201   4.823  -6.132  0.00  0.00    +0.244 C 
ATOM      3  O   UNL     1       3.282   4.262  -5.766  0.00  0.00    -0.273 OA
ENDROOT
BRANCH   2   4
ATOM      4  C   UNL     1       2.069   6.109  -5.119  0.00  0.00    +0.172 C 
ATOM      5  N   UNL     1       0.727   5.564  -4.427  0.00  0.00    -0.123 NA
BRANCH   4   6
ATOM      6  C   UNL     1       3.013   5.329  -3.975  0.00  0.00    +0.054 C 
BRANCH   6   7
ATOM      7  C   UNL     1       3.250   6.376  -2.967  0.00  0.00    -0.028 A 
ATOM      8  C   UNL     1       4.245   7.309  -3.164  0.00  0.00    -0.026 A 
ATOM      9  C   UNL     1       4.905   7.470  -4.497  0.00  0.00    +0.031 C 
ATOM     10  C   UNL     1       4.297   8.361  -2.263  0.00  0.00    +0.000 A 
ATOM     11  C   UNL     1       3.532   8.295  -1.115  0.00  0.00    +0.056 A 
ATOM     12  C   UNL     1       2.971   7.109  -0.715  0.00  0.00    +0.000 A 
ATOM     13  C   UNL     1       2.857   6.110  -1.672  0.00  0.00    -0.026 A 
ATOM     14  C   UNL     1       2.025   4.941  -1.312  0.00  0.00    +0.031 C 
BRANCH  11  15
ATOM     15  C   UNL     1       3.497   9.378  -0.125  0.00  0.00    +0.284 C 
ATOM     16  O   UNL     1       4.295   9.226   0.848  0.00  0.00    -0.267 OA
ATOM     17  N   UNL     1       3.455  10.707  -0.659  0.00  0.00    -0.084 NA
ENDBRANCH  11  15
ENDBRANCH   6   7
ENDBRANCH   4   6
ENDBRANCH   2   4
BRANCH   1  18
ATOM     18  C   UNL     1       0.483   5.069  -7.899  0.00  0.00    +0.134 C 
ATOM     19  C   UNL     1       0.449   6.743  -7.965  0.00  0.00    +0.030 C 
BRANCH  18  20
ATOM     20  C   UNL     1       0.785   4.963  -9.511  0.00  0.00    +0.157 A 
ATOM     21  N   UNL     1       0.123   4.034 -10.231  0.00  0.00    -0.226 NA
ATOM     22  C   UNL     1       0.264   4.464 -11.511  0.00  0.00    +0.119 A 
ATOM     23  C   UNL     1       0.489   5.837 -11.474  0.00  0.00    +0.102 A 
ATOM     24  N   UNL     1       0.407   6.108 -10.144  0.00  0.00    -0.227 NA
BRANCH  23  25
ATOM     25  C   UNL     1       1.150   6.670 -12.495  0.00  0.00    +0.019 A 
ATOM     26  C   UNL     1       0.476   7.692 -13.155  0.00  0.00    +0.002 A 
ATOM     27  C   UNL     1       0.452   7.785 -14.542  0.00  0.00    +0.000 A 
ATOM     28  C   UNL     1       1.423   7.111 -15.272  0.00  0.00    +0.000 A 
ATOM     29  C   UNL     1       2.397   6.455 -14.559  0.00  0.00    +0.000 A 
ATOM     30  C   UNL     1       2.172   6.088 -13.236  0.00  0.00    +0.002 A 
ENDBRANCH  23  25
ENDBRANCH  18  20
ENDBRANCH   1  18
BRANCH   1  31
ATOM     31  C   UNL     1       2.949   4.623  -8.498  0.00  0.00    +0.121 C 
BRANCH  31  35
ATOM     32  C   UNL     1       5.549   7.068 -10.636  0.00  0.00    +0.145 A 
ATOM     33  C   UNL     1       6.085   6.049  -9.889  0.00  0.00    +0.113 A 
ATOM     34  C   UNL     1       5.253   5.307  -9.056  0.00  0.00    +0.007 A 
ATOM     35  C   UNL     1       3.922   5.662  -8.869  0.00  0.00    -0.002 A 
ATOM     36  C   UNL     1       3.511   6.835  -9.469  0.00  0.00    +0.001 A 
ATOM     37  C   UNL     1       4.237   7.416 -10.495  0.00  0.00    +0.037 A 
BRANCH  33  38
ATOM     38  C   UNL     1       7.299   5.380 -10.378  0.00  0.00    +0.391 C 
ATOM     39  O   UNL     1       7.368   5.015 -11.724  0.00  0.00    -0.240 OA
ATOM     40  O   UNL     1       8.166   4.963  -9.584  0.00  0.00    -0.240 OA
ENDBRANCH  33  38
BRANCH  32  42
ATOM     41  C   UNL     1       6.636   8.431 -11.297  0.00  0.00    +0.252 C 
ATOM     42  O   UNL     1       6.448   7.972 -11.198  0.00  0.00    -0.471 OA
ENDBRANCH  32  42
ENDBRANCH  31  35
ENDBRANCH   1  31
TORSDOF 11
ENDMDL
MODEL 6
REMARK VINA RESULT:      -8.5      2.940      9.027
REMARK  Name = 
REMARK  11 active torsions:
REMARK  status: ('A' for Active; 'I' for Inactive)
REMARK    1  A    between atoms: O_2  and  C_3
REMARK    2  A    between atoms: C_6  and  C_7
REMARK    3  A    between atoms: C_7  and  N_8
REMARK    4  A    between atoms: N_8  and  C_25
REMARK    5  A    between atoms: C_9  and  C_11
REMARK    6  A    between atoms: C_11  and  C_13
REMARK    7  A    between atoms: C_13  and  C_14
REMARK    8  A    between atoms: C_18  and  C_19
REMARK    9  A    between atoms: C_25  and  C_27
REMARK   10  A    between atoms: C_29  and  C_30
REMARK   11  A    between atoms: C_39  and  C_40
REMARK                            x       y       z     vdW  Elec       q    Type
REMARK                         _______ _______ _______ _____ _____    ______ ____
ROOT
ATOM      1  N   UNL     1       3.062   5.206  -5.397  0.00  0.00    -0.269 N 
ATOM      2  C   UNL     1       3.326   4.668  -6.657  0.00  0.00    +0.244 C 
ATOM      3  O   UNL     1       2.527   3.779  -7.090  0.00  0.00    -0.273 OA
ENDROOT
BRANCH   2   4
ATOM      4  C   UNL     1       3.456   5.717  -7.914  0.00  0.00    +0.172 C 
ATOM      5  N   UNL     1       5.041   5.508  -8.066  0.00  0.00    -0.123 NA
BRANCH   4   6
ATOM      6  C   UNL     1       3.156   4.479  -9.003  0.00  0.00    +0.054 C 
BRANCH   6   7
ATOM      7  C   UNL     1       2.632   5.191 -10.181  0.00  0.00    -0.028 A 
ATOM      8  C   UNL     1       3.503   5.722 -11.109  0.00  0.00    -0.026 A 
ATOM      9  C   UNL     1       4.953   5.354 -11.110  0.00  0.00    +0.031 C 
ATOM     10  C   UNL     1       2.941   6.223 -12.272  0.00  0.00    +0.000 A 
ATOM     11  C   UNL     1       1.571   6.382 -12.336  0.00  0.00    +0.056 A 
ATOM     12  C   UNL     1       0.806   6.339 -11.198  0.00  0.00    +0.000 A 
ATOM     13  C   UNL     1       1.375   5.749 -10.079  0.00  0.00    -0.026 A 
ATOM     14  C   UNL     1       0.467   5.471  -8.944  0.00  0.00    +0.031 C 
BRANCH  11  15
ATOM     15  C   UNL     1       0.888   6.871 -13.540  0.00  0.00    +0.284 C 
ATOM     16  O   UNL     1       0.641   8.115 -13.536  0.00  0.00    -0.267 OA
ATOM     17  N   UNL     1       1.386   6.367 -14.786  0.00  0.00    -0.084 NA
ENDBRANCH  11  15
ENDBRANCH   6   7
ENDBRANCH   4   6
ENDBRANCH   2   4
BRANCH   1  18
ATOM     18  C   UNL     1       4.409   5.707  -4.687  0.00  0.00    +0.134 C 
ATOM     19  C   UNL     1       3.980   7.316  -4.878  0.00  0.00    +0.030 C 
BRANCH  18  20
ATOM     20  C   UNL     1       3.762   5.664  -3.176  0.00  0.00    +0.157 A 
ATOM     21  N   UNL     1       4.424   4.995  -2.211  0.00  0.00    -0.226 NA
ATOM     22  C   UNL     1       3.887   5.481  -1.063  0.00  0.00    +0.119 A 
ATOM     23  C   UNL     1       3.374   6.745  -1.337  0.00  0.00    +0.102 A 
ATOM     24  N   UNL     1       3.709   6.916  -2.643  0.00  0.00    -0.227 NA
BRANCH  23  25
ATOM     25  C   UNL     1       2.318   7.468  -0.606  0.00  0.00    +0.019 A 
ATOM     26  C   UNL     1       2.618   8.416   0.367  0.00  0.00    +0.002 A 
ATOM     27  C   UNL     1       2.067   8.366   1.642  0.00  0.00    +0.000 A 
ATOM     28  C   UNL     1       0.911   7.620   1.841  0.00  0.00    +0.000 A 
ATOM     29  C   UNL     1       0.345   7.041   0.731  0.00  0.00    +0.000 A 
ATOM     30  C   UNL     1       1.108   6.812  -0.409  0.00  0.00    +0.002 A 
ENDBRANCH  23  25
ENDBRANCH  18  20
ENDBRANCH   1  18
BRANCH   1  31
ATOM     31  C   UNL     1       2.023   4.746  -4.538  0.00  0.00    +0.121 C 
BRANCH  31  35
ATOM     32  C   UNL     1      -1.315   7.230  -4.518  0.00  0.00    +0.145 A 
ATOM     33  C   UNL     1      -1.411   6.009  -3.897  0.00  0.00    +0.113 A 
ATOM     34  C   UNL     1      -0.361   5.105  -4.011  0.00  0.00    +0.007 A 
ATOM     35  C   UNL     1       0.722   5.361  -4.844  0.00  0.00    -0.002 A 
ATOM     36  C   UNL     1       0.643   6.501  -5.618  0.00  0.00    +0.001 A 
ATOM     37  C   UNL     1      -0.246   7.520  -5.316  0.00  0.00    +0.037 A 
BRANCH  33  38
ATOM     38  C   UNL     1      -2.261   5.891  -2.703  0.00  0.00    +0.391 C 
ATOM     39  O   UNL     1      -2.213   6.902  -1.742  0.00  0.00    -0.240 OA
ATOM     40  O   UNL     1      -2.861   4.828  -2.446  0.00  0.00    -0.240 OA
ENDBRANCH  33  38
BRANCH  32  42
ATOM     41  C   UNL     1      -2.900   8.139  -4.890  0.00  0.00    +0.252 C 
ATOM     42  O   UNL     1      -2.494   7.962  -4.646  0.00  0.00    -0.471 OA
ENDBRANCH  32  42
ENDBRANCH  31  35
ENDBRANCH   1  31
TORSDOF 11
ENDMDL
MODEL 7
REMARK VINA RESULT:      -8.4      4.798      7.570
REMARK  Name = 
REMARK  11 active torsions:
REMARK  status: ('A' for Active; 'I' for Inactive)
REMARK    1  A    between atoms: O_2  and  C_3
REMARK    2  A    between atoms: C_6  and  C_7
REMARK    3  A    between atoms: C_7  and  N_8
REMARK    4  A    between atoms: N_8  and  C_25
REMARK    5  A    between atoms: C_9  and  C_11
REMARK    6  A    between atoms: C_11  and  C_13
REMARK    7  A    between atoms: C_13  and  C_14
REMARK    8  A    between atoms: C_18  and  C_19
REMARK    9  A    between atoms: C_25  and  C_27
REMARK   10  A    between atoms: C_29  and  C_30
REMARK   11  A    between atoms: C_39  and  C_40
REMARK                            x       y       z     vdW  Elec       q    Type
REMARK                         _______ _______ _______ _____ _____    ______ ____
ROOT
ATOM      1  N   UNL     1       1.401   5.599 -11.178  0.00  0.00    -0.269 N 
ATOM      2  C   UNL     1       1.250   4.902  -9.980  0.00  0.00    +0.244 C 
ATOM      3  O   UNL     1       2.190   4.116  -9.640  0.00  0.00    -0.273 OA
ENDROOT
BRANCH   2   4
ATOM      4  C   UNL     1       0.975   5.785  -8.622  0.00  0.00    +0.172 C 
ATOM      5  N   UNL     1      -0.495   5.182  -8.396  0.00  0.00    -0.123 NA
BRANCH   4   6
ATOM      6  C   UNL     1       1.651   4.578  -7.677  0.00  0.00    +0.054 C 
BRANCH   6   7
ATOM      7  C   UNL     1       2.376   5.331  -6.640  0.00  0.00    -0.028 A 
ATOM      8  C   UNL     1       3.752   5.412  -6.684  0.00  0.00    -0.026 A 
ATOM      9  C   UNL     1       4.515   5.004  -7.904  0.00  0.00    +0.031 C 
ATOM     10  C   UNL     1       4.351   6.276  -5.780  0.00  0.00    +0.000 A 
ATOM     11  C   UNL     1       3.589   6.807  -4.758  0.00  0.00    +0.056 A 
ATOM     12  C   UNL     1       2.363   6.276  -4.451  0.00  0.00    +0.000 A 
ATOM     13  C   UNL     1       1.756   5.488  -5.418  0.00  0.00    -0.026 A 
ATOM     14  C   UNL     1       0.337   5.136  -5.190  0.00  0.00    +0.031 C 
BRANCH  11  15
ATOM     15  C   UNL     1       4.132   7.757  -3.780  0.00  0.00    +0.284 C 
ATOM     16  O   UNL     1       3.414   7.915  -2.747  0.00  0.00    -0.267 OA
ATOM     17  N   UNL     1       5.536   7.645  -3.517  0.00  0.00    -0.084 NA
ENDBRANCH  11  15
ENDBRANCH   6   7
ENDBRANCH   4   6
ENDBRANCH   2   4
BRANCH   1  18
ATOM     18  C   UNL     1      -0.023   5.942 -11.832  0.00  0.00    +0.134 C 
ATOM     19  C   UNL     1       0.009   7.503 -11.222  0.00  0.00    +0.030 C 
BRANCH  18  20
ATOM     20  C   UNL     1       0.625   6.435 -13.260  0.00  0.00    +0.157 A 
ATOM     21  N   UNL     1       0.304   5.758 -14.381  0.00  0.00    -0.226 NA
ATOM     22  C   UNL     1       0.633   6.620 -15.377  0.00  0.00    +0.119 A 
ATOM     23  C   UNL     1       0.600   7.908 -14.852  0.00  0.00    +0.102 A 
ATOM     24  N   UNL     1       0.194   7.688 -13.573  0.00  0.00    -0.227 NA
BRANCH  23  25
ATOM     25  C   UNL     1       1.304   9.103 -15.350  0.00  0.00    +0.019 A 
ATOM     26  C   UNL     1       0.829  10.388 -15.106  0.00  0.00    +0.002 A 
ATOM     27  C   UNL     1       0.637  11.310 -16.127  0.00  0.00    +0.000 A 
ATOM     28  C   UNL     1       1.292  11.112 -17.337  0.00  0.00    +0.000 A 
ATOM     29  C   UNL     1       2.154  10.046 -17.412  0.00  0.00    +0.000 A 
ATOM     30  C   UNL     1       2.029   8.977 -16.530  0.00  0.00    +0.002 A 
ENDBRANCH  23  25
ENDBRANCH  18  20
ENDBRANCH   1  18
BRANCH   1  31
ATOM     31  C   UNL     1       2.485   5.402 -12.082  0.00  0.00    +0.121 C 
BRANCH  31  35
ATOM     32  C   UNL     1       6.203   7.077 -11.257  0.00  0.00    +0.145 A 
ATOM     33  C   UNL     1       6.165   5.872 -11.915  0.00  0.00    +0.113 A 
ATOM     34  C   UNL     1       4.945   5.225 -12.077  0.00  0.00    +0.007 A 
ATOM     35  C   UNL     1       3.790   5.708 -11.475  0.00  0.00    -0.002 A 
ATOM     36  C   UNL     1       3.943   6.793 -10.636  0.00  0.00    +0.001 A 
ATOM     37  C   UNL     1       5.075   7.590 -10.685  0.00  0.00    +0.037 A 
BRANCH  33  38
ATOM     38  C   UNL     1       7.208   5.580 -12.910  0.00  0.00    +0.391 C 
ATOM     39  O   UNL     1       7.193   6.274 -14.121  0.00  0.00    -0.240 OA
ATOM     40  O   UNL     1       7.969   4.602 -12.772  0.00  0.00    -0.240 OA
ENDBRANCH  33  38
BRANCH  32  42
ATOM     41  C   UNL     1       7.859   7.542 -10.539  0.00  0.00    +0.252 C 
ATOM     42  O   UNL     1       7.456   7.525 -10.843  0.00  0.00    -0.471 OA
ENDBRANCH  32  42
ENDBRANCH  31  35
ENDBRANCH   1  31
TORSDOF 11
ENDMDL
MODEL 8
REMARK VINA RESULT:      -8.2      3.691      9.105
REMARK  Name = 
REMARK  11 active torsions:
REMARK  status: ('A' for Active; 'I' for Inactive)
REMARK    1  A    between atoms: O_2  and  C_3
REMARK    2  A    between atoms: C_6  and  C_7
REMARK    3  A    between atoms: C_7  and  N_8
REMARK    4  A    between atoms: N_8  and  C_25
REMARK    5  A    between atoms: C_9  and  C_11
REMARK    6  A    between atoms: C_11  and  C_13
REMARK    7  A    between atoms: C_13  and  C_14
REMARK    8  A    between atoms: C_18  and  C_19
REMARK    9  A    between atoms: C_25  and  C_27
REMARK   10  A    between atoms: C_29  and  C_30
REMARK   11  A    between atoms: C_39  and  C_40
REMARK                            x       y       z     vdW  Elec       q    Type
REMARK                         _______ _______ _______ _____ _____    ______ ____
ROOT
ATOM      1  N   UNL     1       2.547   5.056  -7.831  0.00  0.00    -0.269 N 
ATOM      2  C   UNL     1       2.401   4.789  -9.192  0.00  0.00    +0.244 C 
ATOM      3  O   UNL     1       1.418   4.059  -9.541  0.00  0.00    -0.273 OA
ENDROOT
BRANCH   2   4
ATOM      4  C   UNL     1       2.306   6.075 -10.209  0.00  0.00    +0.172 C 
ATOM      5  N   UNL     1       3.731   5.781 -10.889  0.00  0.00    -0.123 NA
BRANCH   4   6
ATOM      6  C   UNL     1       1.528   5.135 -11.358  0.00  0.00    +0.054 C 
BRANCH   6   7
ATOM      7  C   UNL     1       1.263   6.090 -12.447  0.00  0.00    -0.028 A 
ATOM      8  C   UNL     1       0.200   6.963 -12.353  0.00  0.00    -0.026 A 
ATOM      9  C   UNL     1      -0.520   7.171 -11.059  0.00  0.00    +0.031 C 
ATOM     10  C   UNL     1       0.115   7.944 -13.330  0.00  0.00    +0.000 A 
ATOM     11  C   UNL     1       0.927   7.849 -14.442  0.00  0.00    +0.056 A 
ATOM     12  C   UNL     1       1.581   6.680 -14.736  0.00  0.00    +0.000 A 
ATOM     13  C   UNL     1       1.722   5.761 -13.705  0.00  0.00    -0.026 A 
ATOM     14  C   UNL     1       2.645   4.630 -13.950  0.00  0.00    +0.031 C 
BRANCH  11  15
ATOM     15  C   UNL     1       0.929   8.860 -15.507  0.00  0.00    +0.284 C 
ATOM     16  O   UNL     1       2.082   9.178 -15.927  0.00  0.00    -0.267 OA
ATOM     17  N   UNL     1      -0.052   8.681 -16.536  0.00  0.00    -0.084 NA
ENDBRANCH  11  15
ENDBRANCH   6   7
ENDBRANCH   4   6
ENDBRANCH   2   4
BRANCH   1  18
ATOM     18  C   UNL     1       4.084   5.316  -7.454  0.00  0.00    +0.134 C 
ATOM     19  C   UNL     1       3.872   6.979  -7.495  0.00  0.00    +0.030 C 
BRANCH  18  20
ATOM     20  C   UNL     1       3.810   5.273  -5.834  0.00  0.00    +0.157 A 
ATOM     21  N   UNL     1       4.610   4.505  -5.066  0.00  0.00    -0.226 NA
ATOM     22  C   UNL     1       4.412   4.993  -3.815  0.00  0.00    +0.119 A 
ATOM     23  C   UNL     1       3.979   6.310  -3.936  0.00  0.00    +0.102 A 
ATOM     24  N   UNL     1       4.012   6.501  -5.282  0.00  0.00    -0.227 NA
BRANCH  23  25
ATOM     25  C   UNL     1       3.205   7.099  -2.962  0.00  0.00    +0.019 A 
ATOM     26  C   UNL     1       3.754   8.194  -2.304  0.00  0.00    +0.002 A 
ATOM     27  C   UNL     1       3.716   8.319  -0.920  0.00  0.00    +0.000 A 
ATOM     28  C   UNL     1       2.784   7.573  -0.208  0.00  0.00    +0.000 A 
ATOM     29  C   UNL     1       1.905   6.812  -0.940  0.00  0.00    +0.000 A 
ATOM     30  C   UNL     1       2.214   6.439  -2.244  0.00  0.00    +0.002 A 
ENDBRANCH  23  25
ENDBRANCH  18  20
ENDBRANCH   1  18
BRANCH   1  31
ATOM     31  C   UNL     1       1.731   4.479  -6.815  0.00  0.00    +0.121 C 
BRANCH  31  35
ATOM     32  C   UNL     1      -0.707   7.108  -4.705  0.00  0.00    +0.145 A 
ATOM     33  C   UNL     1      -1.024   5.772  -4.686  0.00  0.00    +0.113 A 
ATOM     34  C   UNL     1      -0.311   4.894  -5.495  0.00  0.00    +0.007 A 
ATOM     35  C   UNL     1       0.623   5.359  -6.413  0.00  0.00    -0.002 A 
ATOM     36  C   UNL     1       0.723   6.729  -6.544  0.00  0.00    +0.001 A 
ATOM     37  C   UNL     1       0.230   7.586  -5.575  0.00  0.00    +0.037 A 
BRANCH  33  38
ATOM     38  C   UNL     1      -1.632   5.210  -3.471  0.00  0.00    +0.391 C 
ATOM     39  O   UNL     1      -3.004   4.949  -3.466  0.00  0.00    -0.240 OA
ATOM     40  O   UNL     1      -0.993   5.151  -2.403  0.00  0.00    -0.240 OA
ENDBRANCH  33  38
BRANCH  32  42
ATOM     41  C   UNL     1      -2.066   8.244  -4.121  0.00  0.00    +0.252 C 
ATOM     42  O   UNL     1      -1.635   7.980  -4.138  0.00  0.00    -0.471 OA
ENDBRANCH  32  42
ENDBRANCH  31  35
ENDBRANCH   1  31
TORSDOF 11
ENDMDL
MODEL 9
REMARK VINA RESULT:      -8.1      3.239      7.612
REMARK  Name = 
REMARK  11 active torsions:
REMARK  status: ('A' for Active; 'I' for Inactive)
REMARK    1  A    between atoms: O_2  and  C_3
REMARK    2  A    between atoms: C_6  and  C_7
REMARK    3  A    between atoms: C_7  and  N_8
REMARK    4  A    between atoms: N_8  and  C_25
REMARK    5  A    between atoms: C_9  and  C_11
REMARK    6  A    between atoms: C_11  and  C_13
REMARK    7  A    between atoms: C_13  and  C_14
REMARK    8  A    between atoms: C_18  and  C_19
REMARK    9  A    between atoms: C_25  and  C_27
REMARK   10  A    between atoms: C_29  and  C_30
REMARK   11  A    between atoms: C_39  and  C_40
REMARK                            x       y       z     vdW  Elec       q    Type
REMARK                         _______ _______ _______ _____ _____    ______ ____
ROOT
ATOM      1  N   UNL     1       2.714   5.504  -7.133  0.00  0.00    -0.269 N 
ATOM      2  C   UNL     1       3.733   5.037  -6.304  0.00  0.00    +0.244 C 
ATOM      3  O   UNL     1       4.850   5.646  -6.354  0.00  0.00    -0.273 OA
ENDROOT
BRANCH   2   4
ATOM      4  C   UNL     1       3.416   4.943  -4.695  0.00  0.00    +0.172 C 
ATOM      5  N   UNL     1       4.955   5.121  -4.272  0.00  0.00    -0.123 NA
BRANCH   4   6
ATOM      6  C   UNL     1       3.171   6.599  -4.626  0.00  0.00    +0.054 C 
BRANCH   6   7
ATOM      7  C   UNL     1       3.195   6.880  -3.181  0.00  0.00    -0.028 A 
ATOM      8  C   UNL     1       2.087   6.603  -2.408  0.00  0.00    -0.026 A 
ATOM      9  C   UNL     1       0.967   5.762  -2.931  0.00  0.00    +0.031 C 
ATOM     10  C   UNL     1       2.241   6.731  -1.036  0.00  0.00    +0.000 A 
ATOM     11  C   UNL     1       3.378   7.342  -0.546  0.00  0.00    +0.056 A 
ATOM     12  C   UNL     1       4.193   8.072  -1.373  0.00  0.00    +0.000 A 
ATOM     13  C   UNL     1       4.069   7.850  -2.737  0.00  0.00    -0.026 A 
ATOM     14  C   UNL     1       5.117   8.439  -3.601  0.00  0.00    +0.031 C 
BRANCH  11  15
ATOM     15  C   UNL     1       3.640   7.487   0.891  0.00  0.00    +0.284 C 
ATOM     16  O   UNL     1       2.610   7.389   1.625  0.00  0.00    -0.267 OA
ATOM     17  N   UNL     1       4.792   6.795   1.387  0.00  0.00    -0.084 NA
ENDBRANCH  11  15
ENDBRANCH   6   7
ENDBRANCH   4   6
ENDBRANCH   2   4
BRANCH   1  18
ATOM     18  C   UNL     1       1.698   4.325  -7.522  0.00  0.00    +0.134 C 
ATOM     19  C   UNL     1       1.579   3.823  -5.928  0.00  0.00    +0.030 C 
BRANCH  18  20
ATOM     20  C   UNL     1       0.364   5.273  -7.374  0.00  0.00    +0.157 A 
ATOM     21  N   UNL     1      -0.487   5.355  -8.416  0.00  0.00    -0.226 NA
ATOM     22  C   UNL     1      -1.628   5.836  -7.858  0.00  0.00    +0.119 A 
ATOM     23  C   UNL     1      -1.611   5.504  -6.506  0.00  0.00    +0.102 A 
ATOM     24  N   UNL     1      -0.456   4.794  -6.398  0.00  0.00    -0.227 NA
BRANCH  23  25
ATOM     25  C   UNL     1      -2.334   6.165  -5.406  0.00  0.00    +0.019 A 
ATOM     26  C   UNL     1      -2.228   7.533  -5.176  0.00  0.00    +0.002 A 
ATOM     27  C   UNL     1      -1.900   8.048  -3.928  0.00  0.00    +0.000 A 
ATOM     28  C   UNL     1      -2.073   7.244  -2.807  0.00  0.00    +0.000 A 
ATOM     29  C   UNL     1      -2.636   6.008  -3.009  0.00  0.00    +0.000 A 
ATOM     30  C   UNL     1      -2.597   5.414  -4.266  0.00  0.00    +0.002 A 
ENDBRANCH  23  25
ENDBRANCH  18  20
ENDBRANCH   1  18
BRANCH   1  31
ATOM     31  C   UNL     1       2.882   6.542  -8.094  0.00  0.00    +0.121 C 
BRANCH  31  35
ATOM     32  C   UNL     1       4.155   6.281 -12.047  0.00  0.00    +0.145 A 
ATOM     33  C   UNL     1       2.905   5.805 -11.735  0.00  0.00    +0.113 A 
ATOM     34  C   UNL     1       2.512   5.752 -10.402  0.00  0.00    +0.007 A 
ATOM     35  C   UNL     1       3.404   6.045  -9.377  0.00  0.00    -0.002 A 
ATOM     36  C   UNL     1       4.709   6.289  -9.752  0.00  0.00    +0.001 A 
ATOM     37  C   UNL     1       5.038   6.607 -11.060  0.00  0.00    +0.037 A 
BRANCH  33  38
ATOM     38  C   UNL     1       1.835   5.925 -12.737  0.00  0.00    +0.391 C 
ATOM     39  O   UNL     1       1.297   7.187 -12.996  0.00  0.00    -0.240 OA
ATOM     40  O   UNL     1       1.277   4.912 -13.203  0.00  0.00    -0.240 OA
ENDBRANCH  33  38
BRANCH  32  42
ATOM     41  C   UNL     1       4.973   5.952 -13.690  0.00  0.00    +0.252 C 
ATOM     42  O   UNL     1       4.619   6.023 -13.335  0.00  0.00    -0.471 OA
ENDBRANCH  32  42
ENDBRANCH  31  35
ENDBRANCH   1  31
TORSDOF 11
ENDMDL
