MODEL 1
REMARK VINA RESULT:      -7.5      0.000      0.000
REMARK  Name = 
REMARK  9 active torsions:
REMARK  status: ('A' for Active; 'I' for Inactive)
REMARK    1  A    between atoms: C_2  and  C_3
REMARK    2  A    between atoms: C_3  and  C_4
REMARK    3  A    between atoms: C_4  and  N_5
REMARK    4  A    between atoms: C_4  and  C_22
REMARK    5  A    between atoms: N_5  and  CA_6
REMARK    6  A    between atoms: CA_6  and  C_8
REMARK    7  A    between atoms: C_11  and  C_12
REMARK    8  A    between atoms: C_22  and  O_24
REMARK    9  A    between atoms: O_24  and  C_25
REMARK                            x       y       z     vdW  Elec       q    Type
REMARK                         _______ _______ _______ _____ _____    ______ ____
ROOT
ATOM      1  C   ALA A   1       1.137   5.072  -6.625  0.00  0.00    +0.242 C 
ATOM      2  N   UNK A   2       1.551   5.573  -7.898  0.00  0.00    -0.272 N 
ATOM      3  C   UNK A   2       0.324   5.525  -8.858  0.00  0.00    +0.076 C 
ATOM      4  C   UNK A   2       0.945   4.269  -9.823  0.00  0.00    +0.020 C 
ATOM      5  C   UNK A   2       0.172   4.684 -11.177  0.00  0.00    +0.002 C 
ATOM      6  C   UNK A   2       0.715   5.900 -11.785  0.00  0.00    +0.000 C 
ATOM      7  C   UNK A   2       0.068   6.982 -10.916  0.00  0.00    +0.002 C 
ATOM      8  C   UNK A   2       2.305   5.091 -10.103  0.00  0.00    +0.033 C 
ATOM      9  C   UNK A   2       0.897   6.801  -9.694  0.00  0.00    +0.020 C 
ATOM     10  C   UNK A   2       2.656   4.675  -8.553  0.00  0.00    +0.179 C 
ATOM     11  O   ALA A   1       1.485   3.926  -6.200  0.00  0.00    -0.273 OA
ENDROOT
BRANCH  10  12
ATOM     12  C   UNK A   2       3.814   5.801  -8.447  0.00  0.00    +0.382 C 
ATOM     13  O   UNK A   2       4.770   5.569  -7.445  0.00  0.00    -0.244 OA
ATOM     14  O   UNK A   2       4.371   5.829  -9.591  0.00  0.00    -0.244 OA
ENDBRANCH  10  12
BRANCH   1  15
ATOM     15  CA  ALA A   1       1.046   6.124  -5.407  0.00  0.00    +0.149 C 
ATOM     16  CB  ALA A   1       2.383   5.459  -4.707  0.00  0.00    +0.029 C 
BRANCH  15  17
ATOM     17  N   ALA A   1       0.021   5.268  -4.577  0.00  0.00    -0.201 NA
BRANCH  17  18
ATOM     18  C   UNK A   0      -0.749   6.356  -3.743  0.00  0.00    +0.172 C 
BRANCH  18  19
ATOM     19  C   UNK A   0      -0.908   5.431  -2.436  0.00  0.00    +0.333 C 
ATOM     20  O   UNK A   0      -2.052   4.883  -2.509  0.00  0.00    -0.249 OA
BRANCH  19  21
ATOM     21  O   UNK A   0       0.085   4.617  -2.029  0.00  0.00    -0.448 OA
BRANCH  21  22
ATOM     22  C   UNK A   0       1.075   4.996  -1.074  0.00  0.00    +0.209 C 
ATOM     23  C   UNK A   0       0.872   6.346  -0.479  0.00  0.00    +0.051 C 
ENDBRANCH  21  22
ENDBRANCH  19  21
ENDBRANCH  18  19
BRANCH  18  24
ATOM     24  C   UNK A   0      -2.238   5.946  -4.318  0.00  0.00    +0.029 C 
BRANCH  24  26
ATOM     25  C   UNK A   0      -1.959   8.298  -4.562  0.00  0.00    +0.000 C 
ATOM     26  C   UNK A   0      -2.554   7.231  -5.080  0.00  0.00    +0.002 C 
ENDBRANCH  24  26
ENDBRANCH  18  24
ENDBRANCH  17  18
ENDBRANCH  15  17
ENDBRANCH   1  15
TORSDOF 9
ENDMDL
MODEL 2
REMARK VINA RESULT:      -7.3      2.928      5.539
REMARK  Name = 
REMARK  9 active torsions:
REMARK  status: ('A' for Active; 'I' for Inactive)
REMARK    1  A    between atoms: C_2  and  C_3
REMARK    2  A    between atoms: C_3  and  C_4
REMARK    3  A    between atoms: C_4  and  N_5
REMARK    4  A    between atoms: C_4  and  C_22
REMARK    5  A    between atoms: N_5  and  CA_6
REMARK    6  A    between atoms: CA_6  and  C_8
REMARK    7  A    between atoms: C_11  and  C_12
REMARK    8  A    between atoms: C_22  and  O_24
REMARK    9  A    between atoms: O_24  and  C_25
REMARK                            x       y       z     vdW  Elec       q    Type
REMARK                         _______ _______ _______ _____ _____    ______ ____
ROOT
ATOM      1  C   ALA A   1       2.583   6.083 -10.585  0.00  0.00    +0.242 C 
ATOM      2  N   UNK A   2       3.902   5.766 -11.034  0.00  0.00    -0.272 N 
ATOM      3  C   UNK A   2       4.918   6.500 -10.108  0.00  0.00    +0.076 C 
ATOM      4  C   UNK A   2       5.426   7.605 -11.298  0.00  0.00    +0.020 C 
ATOM      5  C   UNK A   2       6.907   7.840 -10.704  0.00  0.00    +0.002 C 
ATOM      6  C   UNK A   2       7.782   6.683 -10.898  0.00  0.00    +0.000 C 
ATOM      7  C   UNK A   2       7.319   5.765  -9.762  0.00  0.00    +0.002 C 
ATOM      8  C   UNK A   2       5.801   6.411 -12.316  0.00  0.00    +0.033 C 
ATOM      9  C   UNK A   2       6.025   5.330 -10.353  0.00  0.00    +0.020 C 
ATOM     10  C   UNK A   2       4.171   6.294 -12.486  0.00  0.00    +0.179 C 
ATOM     11  O   ALA A   1       1.821   6.877 -11.220  0.00  0.00    -0.273 OA
ENDROOT
BRANCH  10  12
ATOM     12  C   UNK A   2       4.282   4.817 -13.139  0.00  0.00    +0.382 C 
ATOM     13  O   UNK A   2       3.388   4.571 -14.193  0.00  0.00    -0.244 OA
ATOM     14  O   UNK A   2       5.483   4.711 -13.545  0.00  0.00    -0.244 OA
ENDBRANCH  10  12
BRANCH   1  15
ATOM     15  CA  ALA A   1       1.726   4.899  -9.904  0.00  0.00    +0.149 C 
ATOM     16  CB  ALA A   1       0.458   5.211 -10.910  0.00  0.00    +0.029 C 
BRANCH  15  17
ATOM     17  N   ALA A   1       1.187   5.793  -8.728  0.00  0.00    -0.201 NA
BRANCH  17  18
ATOM     18  C   UNK A   0       2.068   5.334  -7.508  0.00  0.00    +0.172 C 
BRANCH  18  19
ATOM     19  C   UNK A   0       0.812   4.963  -6.573  0.00  0.00    +0.333 C 
ATOM     20  O   UNK A   0       1.140   3.932  -5.907  0.00  0.00    -0.249 OA
BRANCH  19  21
ATOM     21  O   UNK A   0       0.159   5.908  -5.869  0.00  0.00    -0.448 OA
BRANCH  21  22
ATOM     22  C   UNK A   0      -1.183   5.762  -5.408  0.00  0.00    +0.209 C 
ATOM     23  C   UNK A   0      -2.191   5.589  -6.490  0.00  0.00    +0.051 C 
ENDBRANCH  21  22
ENDBRANCH  19  21
ENDBRANCH  18  19
BRANCH  18  24
ATOM     24  C   UNK A   0       2.211   6.843  -6.862  0.00  0.00    +0.029 C 
BRANCH  24  26
ATOM     25  C   UNK A   0       4.303   5.720  -6.687  0.00  0.00    +0.000 C 
ATOM     26  C   UNK A   0       3.544   6.660  -6.139  0.00  0.00    +0.002 C 
ENDBRANCH  24  26
ENDBRANCH  18  24
ENDBRANCH  17  18
ENDBRANCH  15  17
ENDBRANCH   1  15
TORSDOF 9
ENDMDL
MODEL 3
REMARK VINA RESULT:      -7.2      3.078      8.419
REMARK  Name = 
REMARK  9 active torsions:
REMARK  status: ('A' for Active; 'I' for Inactive)
REMARK    1  A    between atoms: C_2  and  C_3
REMARK    2  A    between atoms: C_3  and  C_4
REMARK    3  A    between atoms: C_4  and  N_5
REMARK    4  A    between atoms: C_4  and  C_22
REMARK    5  A    between atoms: N_5  and  CA_6
REMARK    6  A    between atoms: CA_6  and  C_8
REMARK    7  A    between atoms: C_11  and  C_12
REMARK    8  A    between atoms: C_22  and  O_24
REMARK    9  A    between atoms: O_24  and  C_25
REMARK                            x       y       z     vdW  Elec       q    Type
REMARK                         _______ _______ _______ _____ _____    ______ ____
ROOT
ATOM      1  C   ALA A   1       3.066   5.015  -7.893  0.00  0.00    +0.242 C 
ATOM      2  N   UNK A   2       2.943   5.730  -6.663  0.00  0.00    -0.272 N 
ATOM      3  C   UNK A   2       4.329   5.711  -5.951  0.00  0.00    +0.076 C 
ATOM      4  C   UNK A   2       3.834   4.670  -4.700  0.00  0.00    +0.020 C 
ATOM      5  C   UNK A   2       4.882   5.205  -3.596  0.00  0.00    +0.002 C 
ATOM      6  C   UNK A   2       4.546   6.541  -3.101  0.00  0.00    +0.000 C 
ATOM      7  C   UNK A   2       5.074   7.422  -4.237  0.00  0.00    +0.002 C 
ATOM      8  C   UNK A   2       2.610   5.644  -4.308  0.00  0.00    +0.033 C 
ATOM      9  C   UNK A   2       4.011   7.141  -5.238  0.00  0.00    +0.020 C 
ATOM     10  C   UNK A   2       1.935   5.041  -5.679  0.00  0.00    +0.179 C 
ATOM     11  O   ALA A   1       2.571   3.855  -8.058  0.00  0.00    -0.273 OA
ENDROOT
BRANCH  10  12
ATOM     12  C   UNK A   2       0.850   6.241  -5.748  0.00  0.00    +0.382 C 
ATOM     13  O   UNK A   2      -0.339   5.920  -6.421  0.00  0.00    -0.244 OA
ATOM     14  O   UNK A   2       0.604   6.549  -4.539  0.00  0.00    -0.244 OA
ENDBRANCH  10  12
BRANCH   1  15
ATOM     15  CA  ALA A   1       2.979   5.866  -9.260  0.00  0.00    +0.149 C 
ATOM     16  CB  ALA A   1       1.782   4.881  -9.821  0.00  0.00    +0.029 C 
BRANCH  15  17
ATOM     17  N   ALA A   1       4.142   5.081  -9.971  0.00  0.00    -0.201 NA
BRANCH  17  18
ATOM     18  C   UNK A   0       4.753   6.162 -10.938  0.00  0.00    +0.172 C 
BRANCH  18  19
ATOM     19  C   UNK A   0       4.561   5.272 -12.265  0.00  0.00    +0.333 C 
ATOM     20  O   UNK A   0       3.487   5.663 -12.819  0.00  0.00    -0.249 OA
BRANCH  19  21
ATOM     21  O   UNK A   0       5.585   5.045 -13.110  0.00  0.00    -0.448 OA
BRANCH  21  22
ATOM     22  C   UNK A   0       5.813   5.804 -14.296  0.00  0.00    +0.209 C 
ATOM     23  C   UNK A   0       7.194   6.343 -14.427  0.00  0.00    +0.051 C 
ENDBRANCH  21  22
ENDBRANCH  19  21
ENDBRANCH  18  19
BRANCH  18  24
ATOM     24  C   UNK A   0       6.312   5.671 -10.731  0.00  0.00    +0.029 C 
BRANCH  24  26
ATOM     25  C   UNK A   0       6.509   7.986 -11.249  0.00  0.00    +0.000 C 
ATOM     26  C   UNK A   0       6.945   7.030 -10.440  0.00  0.00    +0.002 C 
ENDBRANCH  24  26
ENDBRANCH  18  24
ENDBRANCH  17  18
ENDBRANCH  15  17
ENDBRANCH   1  15
TORSDOF 9
ENDMDL
MODEL 4
REMARK VINA RESULT:      -7.2      1.776      6.707
REMARK  Name = 
REMARK  9 active torsions:
REMARK  status: ('A' for Active; 'I' for Inactive)
REMARK    1  A    between atoms: C_2  and  C_3
REMARK    2  A    between atoms: C_3  and  C_4
REMARK    3  A    between atoms: C_4  and  N_5
REMARK    4  A    between atoms: C_4  and  C_22
REMARK    5  A    between atoms: N_5  and  CA_6
REMARK    6  A    between atoms: CA_6  and  C_8
REMARK    7  A    between atoms: C_11  and  C_12
REMARK    8  A    between atoms: C_22  and  O_24
REMARK    9  A    between atoms: O_24  and  C_25
REMARK                            x       y       z     vdW  Elec       q    Type
REMARK                         _______ _______ _______ _____ _____    ______ ____
ROOT
ATOM      1  C   ALA A   1       2.183   6.492  -4.553  0.00  0.00    +0.242 C 
ATOM      2  N   UNK A   2       0.855   6.010  -4.342  0.00  0.00    -0.272 N 
ATOM      3  C   UNK A   2      -0.065   6.633  -5.434  0.00  0.00    +0.076 C 
ATOM      4  C   UNK A   2      -0.905   7.645  -4.356  0.00  0.00    +0.020 C 
ATOM      5  C   UNK A   2      -2.277   7.711  -5.202  0.00  0.00    +0.002 C 
ATOM      6  C   UNK A   2      -3.024   6.453  -5.163  0.00  0.00    +0.000 C 
ATOM      7  C   UNK A   2      -2.260   5.620  -6.196  0.00  0.00    +0.002 C 
ATOM      8  C   UNK A   2      -1.304   6.395  -3.417  0.00  0.00    +0.033 C 
ATOM      9  C   UNK A   2      -1.046   5.333  -5.386  0.00  0.00    +0.020 C 
ATOM     10  C   UNK A   2       0.273   6.473  -2.962  0.00  0.00    +0.179 C 
ATOM     11  O   ALA A   1       2.719   7.360  -3.795  0.00  0.00    -0.273 OA
ENDROOT
BRANCH  10  12
ATOM     12  C   UNK A   2       0.231   4.981  -2.335  0.00  0.00    +0.382 C 
ATOM     13  O   UNK A   2       1.181   4.738  -1.330  0.00  0.00    -0.244 OA
ATOM     14  O   UNK A   2      -0.946   4.837  -1.874  0.00  0.00    -0.244 OA
ENDBRANCH  10  12
BRANCH   1  15
ATOM     15  CA  ALA A   1       3.285   5.434  -5.069  0.00  0.00    +0.149 C 
ATOM     16  CB  ALA A   1       4.315   6.662  -5.450  0.00  0.00    +0.029 C 
BRANCH  15  17
ATOM     17  N   ALA A   1       2.678   5.314  -6.515  0.00  0.00    -0.201 NA
BRANCH  17  18
ATOM     18  C   UNK A   0       3.607   6.258  -7.363  0.00  0.00    +0.172 C 
BRANCH  18  19
ATOM     19  C   UNK A   0       2.400   6.901  -8.211  0.00  0.00    +0.333 C 
ATOM     20  O   UNK A   0       2.338   8.129  -7.892  0.00  0.00    -0.249 OA
BRANCH  19  21
ATOM     21  O   UNK A   0       2.256   6.649  -9.527  0.00  0.00    -0.448 OA
BRANCH  21  22
ATOM     22  C   UNK A   0       0.994   6.442 -10.157  0.00  0.00    +0.209 C 
ATOM     23  C   UNK A   0       0.046   5.599  -9.377  0.00  0.00    +0.051 C 
ENDBRANCH  21  22
ENDBRANCH  19  21
ENDBRANCH  18  19
BRANCH  18  24
ATOM     24  C   UNK A   0       3.933   5.132  -8.521  0.00  0.00    +0.029 C 
BRANCH  24  26
ATOM     25  C   UNK A   0       5.906   5.941  -9.579  0.00  0.00    +0.000 C 
ATOM     26  C   UNK A   0       5.456   5.253  -8.538  0.00  0.00    +0.002 C 
ENDBRANCH  24  26
ENDBRANCH  18  24
ENDBRANCH  17  18
ENDBRANCH  15  17
ENDBRANCH   1  15
TORSDOF 9
ENDMDL
MODEL 5
REMARK VINA RESULT:      -7.2      3.154      5.477
REMARK  Name = 
REMARK  9 active torsions:
REMARK  status: ('A' for Active; 'I' for Inactive)
REMARK    1  A    between atoms: C_2  and  C_3
REMARK    2  A    between atoms: C_3  and  C_4
REMARK    3  A    between atoms: C_4  and  N_5
REMARK    4  A    between atoms: C_4  and  C_22
REMARK    5  A    between atoms: N_5  and  CA_6
REMARK    6  A    between atoms: CA_6  and  C_8
REMARK    7  A    between atoms: C_11  and  C_12
REMARK    8  A    between atoms: C_22  and  O_24
REMARK    9  A    between atoms: O_24  and  C_25
REMARK                            x       y       z     vdW  Elec       q    Type
REMARK                         _______ _______ _______ _____ _____    ______ ____
ROOT
ATOM      1  C   ALA A   1       2.601   6.124 -10.711  0.00  0.00    +0.242 C 
ATOM      2  N   UNK A   2       3.936   5.802 -11.106  0.00  0.00    -0.272 N 
ATOM      3  C   UNK A   2       4.916   6.519 -10.130  0.00  0.00    +0.076 C 
ATOM      4  C   UNK A   2       5.483   7.631 -11.287  0.00  0.00    +0.020 C 
ATOM      5  C   UNK A   2       6.940   7.849 -10.627  0.00  0.00    +0.002 C 
ATOM      6  C   UNK A   2       7.813   6.687 -10.793  0.00  0.00    +0.000 C 
ATOM      7  C   UNK A   2       7.294   5.763  -9.687  0.00  0.00    +0.002 C 
ATOM      8  C   UNK A   2       5.893   6.442 -12.298  0.00  0.00    +0.033 C 
ATOM      9  C   UNK A   2       6.024   5.342 -10.337  0.00  0.00    +0.020 C 
ATOM     10  C   UNK A   2       4.272   6.340 -12.540  0.00  0.00    +0.179 C 
ATOM     11  O   ALA A   1       1.873   6.930 -11.371  0.00  0.00    -0.273 OA
ENDROOT
BRANCH  10  12
ATOM     12  C   UNK A   2       4.400   4.868 -13.201  0.00  0.00    +0.382 C 
ATOM     13  O   UNK A   2       3.474   4.599 -14.222  0.00  0.00    -0.244 OA
ATOM     14  O   UNK A   2       5.587   4.797 -13.651  0.00  0.00    -0.244 OA
ENDBRANCH  10  12
BRANCH   1  15
ATOM     15  CA  ALA A   1       1.707   4.942 -10.079  0.00  0.00    +0.149 C 
ATOM     16  CB  ALA A   1       0.422   5.965  -9.931  0.00  0.00    +0.029 C 
BRANCH  15  17
ATOM     17  N   ALA A   1       2.223   5.163  -8.610  0.00  0.00    -0.201 NA
BRANCH  17  18
ATOM     18  C   UNK A   0       1.176   6.177  -8.020  0.00  0.00    +0.172 C 
BRANCH  18  19
ATOM     19  C   UNK A   0       2.283   7.131  -7.347  0.00  0.00    +0.333 C 
ATOM     20  O   UNK A   0       2.064   8.308  -7.774  0.00  0.00    -0.249 OA
BRANCH  19  21
ATOM     21  O   UNK A   0       2.576   7.050  -6.035  0.00  0.00    -0.448 OA
BRANCH  21  22
ATOM     22  C   UNK A   0       3.903   7.102  -5.518  0.00  0.00    +0.209 C 
ATOM     23  C   UNK A   0       4.484   5.774  -5.176  0.00  0.00    +0.051 C 
ENDBRANCH  21  22
ENDBRANCH  19  21
ENDBRANCH  18  19
BRANCH  18  24
ATOM     24  C   UNK A   0       0.934   5.333  -6.625  0.00  0.00    +0.029 C 
BRANCH  24  26
ATOM     25  C   UNK A   0      -1.433   5.248  -6.866  0.00  0.00    +0.000 C 
ATOM     26  C   UNK A   0      -0.441   5.885  -6.257  0.00  0.00    +0.002 C 
ENDBRANCH  24  26
ENDBRANCH  18  24
ENDBRANCH  17  18
ENDBRANCH  15  17
ENDBRANCH   1  15
TORSDOF 9
ENDMDL
MODEL 6
REMARK VINA RESULT:      -7.2      2.783      8.298
REMARK  Name = 
REMARK  9 active torsions:
REMARK  status: ('A' for Active; 'I' for Inactive)
REMARK    1  A    between atoms: C_2  and  C_3
REMARK    2  A    between atoms: C_3  and  C_4
REMARK    3  A    between atoms: C_4  and  N_5
REMARK    4  A    between atoms: C_4  and  C_22
REMARK    5  A    between atoms: N_5  and  CA_6
REMARK    6  A    between atoms: CA_6  and  C_8
REMARK    7  A    between atoms: C_11  and  C_12
REMARK    8  A    between atoms: C_22  and  O_24
REMARK    9  A    between atoms: O_24  and  C_25
REMARK                            x       y       z     vdW  Elec       q    Type
REMARK                         _______ _______ _______ _____ _____    ______ ____
ROOT
ATOM      1  C   ALA A   1       3.460   5.198  -8.392  0.00  0.00    +0.242 C 
ATOM      2  N   UNK A   2       3.097   5.700  -7.104  0.00  0.00    -0.272 N 
ATOM      3  C   UNK A   2       4.402   5.903  -6.279  0.00  0.00    +0.076 C 
ATOM      4  C   UNK A   2       4.094   4.623  -5.202  0.00  0.00    +0.020 C 
ATOM      5  C   UNK A   2       4.916   5.233  -3.956  0.00  0.00    +0.002 C 
ATOM      6  C   UNK A   2       4.244   6.380  -3.345  0.00  0.00    +0.000 C 
ATOM      7  C   UNK A   2       4.616   7.500  -4.322  0.00  0.00    +0.002 C 
ATOM      8  C   UNK A   2       2.652   5.233  -4.814  0.00  0.00    +0.033 C 
ATOM      9  C   UNK A   2       3.712   7.118  -5.440  0.00  0.00    +0.020 C 
ATOM     10  C   UNK A   2       2.224   4.677  -6.299  0.00  0.00    +0.179 C 
ATOM     11  O   ALA A   1       3.265   3.988  -8.730  0.00  0.00    -0.273 OA
ENDROOT
BRANCH  10  12
ATOM     12  C   UNK A   2       0.891   5.596  -6.329  0.00  0.00    +0.382 C 
ATOM     13  O   UNK A   2      -0.136   5.116  -7.156  0.00  0.00    -0.244 OA
ATOM     14  O   UNK A   2       0.493   5.661  -5.122  0.00  0.00    -0.244 OA
ENDBRANCH  10  12
BRANCH   1  15
ATOM     15  CA  ALA A   1       3.257   6.179  -9.656  0.00  0.00    +0.149 C 
ATOM     16  CB  ALA A   1       1.842   5.425 -10.039  0.00  0.00    +0.029 C 
BRANCH  15  17
ATOM     17  N   ALA A   1       4.138   5.313 -10.630  0.00  0.00    -0.201 NA
BRANCH  17  18
ATOM     18  C   UNK A   0       4.813   6.397 -11.548  0.00  0.00    +0.172 C 
BRANCH  18  19
ATOM     19  C   UNK A   0       4.511   5.613 -12.920  0.00  0.00    +0.333 C 
ATOM     20  O   UNK A   0       5.443   4.762 -13.071  0.00  0.00    -0.249 OA
BRANCH  19  21
ATOM     21  O   UNK A   0       3.277   5.158 -13.211  0.00  0.00    -0.448 OA
BRANCH  21  22
ATOM     22  C   UNK A   0       2.237   5.979 -13.739  0.00  0.00    +0.209 C 
ATOM     23  C   UNK A   0       1.054   5.228 -14.242  0.00  0.00    +0.051 C 
ENDBRANCH  21  22
ENDBRANCH  19  21
ENDBRANCH  18  19
BRANCH  18  24
ATOM     24  C   UNK A   0       6.329   5.765 -11.421  0.00  0.00    +0.029 C 
BRANCH  24  26
ATOM     25  C   UNK A   0       6.554   8.129 -11.255  0.00  0.00    +0.000 C 
ATOM     26  C   UNK A   0       7.033   6.975 -10.811  0.00  0.00    +0.002 C 
ENDBRANCH  24  26
ENDBRANCH  18  24
ENDBRANCH  17  18
ENDBRANCH  15  17
ENDBRANCH   1  15
TORSDOF 9
ENDMDL
MODEL 7
REMARK VINA RESULT:      -7.0      1.838      6.634
REMARK  Name = 
REMARK  9 active torsions:
REMARK  status: ('A' for Active; 'I' for Inactive)
REMARK    1  A    between atoms: C_2  and  C_3
REMARK    2  A    between atoms: C_3  and  C_4
REMARK    3  A    between atoms: C_4  and  N_5
REMARK    4  A    between atoms: C_4  and  C_22
REMARK    5  A    between atoms: N_5  and  CA_6
REMARK    6  A    between atoms: CA_6  and  C_8
REMARK    7  A    between atoms: C_11  and  C_12
REMARK    8  A    between atoms: C_22  and  O_24
REMARK    9  A    between atoms: O_24  and  C_25
REMARK                            x       y       z     vdW  Elec       q    Type
REMARK                         _______ _______ _______ _____ _____    ______ ____
ROOT
ATOM      1  C   ALA A   1       2.396   6.733  -4.595  0.00  0.00    +0.242 C 
ATOM      2  N   UNK A   2       1.116   6.130  -4.393  0.00  0.00    -0.272 N 
ATOM      3  C   UNK A   2       0.133   6.715  -5.450  0.00  0.00    +0.076 C 
ATOM      4  C   UNK A   2      -0.777   7.608  -4.324  0.00  0.00    +0.020 C 
ATOM      5  C   UNK A   2      -2.160   7.589  -5.155  0.00  0.00    +0.002 C 
ATOM      6  C   UNK A   2      -2.796   6.271  -5.161  0.00  0.00    +0.000 C 
ATOM      7  C   UNK A   2      -1.976   5.549  -6.234  0.00  0.00    +0.002 C 
ATOM      8  C   UNK A   2      -1.056   6.291  -3.434  0.00  0.00    +0.033 C 
ATOM      9  C   UNK A   2      -0.732   5.335  -5.447  0.00  0.00    +0.020 C 
ATOM     10  C   UNK A   2       0.514   6.486  -2.990  0.00  0.00    +0.179 C 
ATOM     11  O   ALA A   1       2.865   7.613  -3.807  0.00  0.00    -0.273 OA
ENDROOT
BRANCH  10  12
ATOM     12  C   UNK A   2       0.607   4.972  -2.424  0.00  0.00    +0.382 C 
ATOM     13  O   UNK A   2       1.623   4.759  -1.479  0.00  0.00    -0.244 OA
ATOM     14  O   UNK A   2      -0.531   4.727  -1.912  0.00  0.00    -0.244 OA
ENDBRANCH  10  12
BRANCH   1  15
ATOM     15  CA  ALA A   1       3.577   5.795  -5.164  0.00  0.00    +0.149 C 
ATOM     16  CB  ALA A   1       4.712   6.861  -4.622  0.00  0.00    +0.029 C 
BRANCH  15  17
ATOM     17  N   ALA A   1       3.520   6.388  -6.619  0.00  0.00    -0.201 NA
BRANCH  17  18
ATOM     18  C   UNK A   0       2.877   5.217  -7.449  0.00  0.00    +0.172 C 
BRANCH  18  19
ATOM     19  C   UNK A   0       4.173   4.986  -8.375  0.00  0.00    +0.333 C 
ATOM     20  O   UNK A   0       3.946   3.950  -9.075  0.00  0.00    -0.249 OA
BRANCH  19  21
ATOM     21  O   UNK A   0       4.748   6.005  -9.042  0.00  0.00    -0.448 OA
BRANCH  21  22
ATOM     22  C   UNK A   0       5.930   5.867  -9.829  0.00  0.00    +0.209 C 
ATOM     23  C   UNK A   0       6.138   6.956 -10.823  0.00  0.00    +0.051 C 
ENDBRANCH  21  22
ENDBRANCH  19  21
ENDBRANCH  18  19
BRANCH  18  24
ATOM     24  C   UNK A   0       2.159   6.205  -8.554  0.00  0.00    +0.029 C 
BRANCH  24  26
ATOM     25  C   UNK A   0       0.122   5.907  -9.750  0.00  0.00    +0.000 C 
ATOM     26  C   UNK A   0       0.880   5.402  -8.785  0.00  0.00    +0.002 C 
ENDBRANCH  24  26
ENDBRANCH  18  24
ENDBRANCH  17  18
ENDBRANCH  15  17
ENDBRANCH   1  15
TORSDOF 9
ENDMDL
MODEL 8
REMARK VINA RESULT:      -6.9      2.731      3.867
REMARK  Name = 
REMARK  9 active torsions:
REMARK  status: ('A' for Active; 'I' for Inactive)
REMARK    1  A    between atoms: C_2  and  C_3
REMARK    2  A    between atoms: C_3  and  C_4
REMARK    3  A    between atoms: C_4  and  N_5
REMARK    4  A    between atoms: C_4  and  C_22
REMARK    5  A    between atoms: N_5  and  CA_6
REMARK    6  A    between atoms: CA_6  and  C_8
REMARK    7  A    between atoms: C_11  and  C_12
REMARK    8  A    between atoms: C_22  and  O_24
REMARK    9  A    between atoms: O_24  and  C_25
REMARK                            x       y       z     vdW  Elec       q    Type
REMARK                         _______ _______ _______ _____ _____    ______ ____
ROOT
ATOM      1  C   ALA A   1       1.899   5.542  -3.028  0.00  0.00    +0.242 C 
ATOM      2  N   UNK A   2       2.440   6.297  -4.114  0.00  0.00    -0.272 N 
ATOM      3  C   UNK A   2       1.962   5.643  -5.444  0.00  0.00    +0.076 C 
ATOM      4  C   UNK A   2       3.498   5.054  -5.876  0.00  0.00    +0.020 C 
ATOM      5  C   UNK A   2       3.255   5.071  -7.471  0.00  0.00    +0.002 C 
ATOM      6  C   UNK A   2       3.227   6.426  -8.023  0.00  0.00    +0.000 C 
ATOM      7  C   UNK A   2       1.805   6.866  -7.658  0.00  0.00    +0.002 C 
ATOM      8  C   UNK A   2       4.150   6.525  -5.754  0.00  0.00    +0.033 C 
ATOM      9  C   UNK A   2       2.015   7.084  -6.202  0.00  0.00    +0.020 C 
ATOM     10  C   UNK A   2       4.007   6.250  -4.140  0.00  0.00    +0.179 C 
ATOM     11  O   ALA A   1       2.613   4.766  -2.317  0.00  0.00    -0.273 OA
ENDROOT
BRANCH  10  12
ATOM     12  C   UNK A   2       4.187   7.821  -3.793  0.00  0.00    +0.382 C 
ATOM     13  O   UNK A   2       4.184   8.124  -2.422  0.00  0.00    -0.244 OA
ATOM     14  O   UNK A   2       5.294   8.163  -4.319  0.00  0.00    -0.244 OA
ENDBRANCH  10  12
BRANCH   1  15
ATOM     15  CA  ALA A   1       0.759   6.243  -2.130  0.00  0.00    +0.149 C 
ATOM     16  CB  ALA A   1       1.055   5.190  -0.897  0.00  0.00    +0.029 C 
BRANCH  15  17
ATOM     17  N   ALA A   1      -0.421   5.404  -2.743  0.00  0.00    -0.201 NA
BRANCH  17  18
ATOM     18  C   UNK A   0      -1.400   6.513  -3.275  0.00  0.00    +0.172 C 
BRANCH  18  19
ATOM     19  C   UNK A   0      -2.434   6.371  -2.050  0.00  0.00    +0.333 C 
ATOM     20  O   UNK A   0      -2.492   5.136  -1.758  0.00  0.00    -0.249 OA
BRANCH  19  21
ATOM     21  O   UNK A   0      -2.385   7.202  -0.991  0.00  0.00    -0.448 OA
BRANCH  21  22
ATOM     22  C   UNK A   0      -1.933   6.806   0.303  0.00  0.00    +0.209 C 
ATOM     23  C   UNK A   0      -2.498   7.607   1.424  0.00  0.00    +0.051 C 
ENDBRANCH  21  22
ENDBRANCH  19  21
ENDBRANCH  18  19
BRANCH  18  24
ATOM     24  C   UNK A   0      -2.265   5.490  -4.234  0.00  0.00    +0.029 C 
BRANCH  24  26
ATOM     25  C   UNK A   0      -1.566   5.485  -6.510  0.00  0.00    +0.000 C 
ATOM     26  C   UNK A   0      -2.113   6.232  -5.560  0.00  0.00    +0.002 C 
ENDBRANCH  24  26
ENDBRANCH  18  24
ENDBRANCH  17  18
ENDBRANCH  15  17
ENDBRANCH   1  15
TORSDOF 9
ENDMDL
MODEL 9
REMARK VINA RESULT:      -6.8      2.776      4.275
REMARK  Name = 
REMARK  9 active torsions:
REMARK  status: ('A' for Active; 'I' for Inactive)
REMARK    1  A    between atoms: C_2  and  C_3
REMARK    2  A    between atoms: C_3  and  C_4
REMARK    3  A    between atoms: C_4  and  N_5
REMARK    4  A    between atoms: C_4  and  C_22
REMARK    5  A    between atoms: N_5  and  CA_6
REMARK    6  A    between atoms: CA_6  and  C_8
REMARK    7  A    between atoms: C_11  and  C_12
REMARK    8  A    between atoms: C_22  and  O_24
REMARK    9  A    between atoms: O_24  and  C_25
REMARK                            x       y       z     vdW  Elec       q    Type
REMARK                         _______ _______ _______ _____ _____    ______ ____
ROOT
ATOM      1  C   ALA A   1       2.372   5.305  -4.763  0.00  0.00    +0.242 C 
ATOM      2  N   UNK A   2       1.358   6.128  -5.342  0.00  0.00    -0.272 N 
ATOM      3  C   UNK A   2      -0.007   5.734  -4.704  0.00  0.00    +0.076 C 
ATOM      4  C   UNK A   2      -0.626   5.016  -6.117  0.00  0.00    +0.020 C 
ATOM      5  C   UNK A   2      -2.182   5.288  -5.790  0.00  0.00    +0.002 C 
ATOM      6  C   UNK A   2      -2.548   6.699  -5.919  0.00  0.00    +0.000 C 
ATOM      7  C   UNK A   2      -2.024   7.265  -4.596  0.00  0.00    +0.002 C 
ATOM      8  C   UNK A   2      -0.360   6.359  -6.972  0.00  0.00    +0.033 C 
ATOM      9  C   UNK A   2      -0.571   7.248  -4.914  0.00  0.00    +0.020 C 
ATOM     10  C   UNK A   2       1.209   5.882  -6.883  0.00  0.00    +0.179 C 
ATOM     11  O   ALA A   1       2.921   4.352  -5.401  0.00  0.00    -0.273 OA
ENDROOT
BRANCH  10  12
ATOM     12  C   UNK A   2       1.745   7.352  -7.299  0.00  0.00    +0.382 C 
ATOM     13  O   UNK A   2       3.050   7.645  -6.872  0.00  0.00    -0.244 OA
ATOM     14  O   UNK A   2       1.676   7.395  -8.569  0.00  0.00    -0.244 OA
ENDBRANCH  10  12
BRANCH   1  15
ATOM     15  CA  ALA A   1       3.437   6.016  -3.783  0.00  0.00    +0.149 C 
ATOM     16  CB  ALA A   1       4.563   4.866  -4.140  0.00  0.00    +0.029 C 
BRANCH  15  17
ATOM     17  N   ALA A   1       2.916   5.296  -2.486  0.00  0.00    -0.201 NA
BRANCH  17  18
ATOM     18  C   UNK A   0       1.964   6.373  -1.847  0.00  0.00    +0.172 C 
BRANCH  18  19
ATOM     19  C   UNK A   0       2.873   6.589  -0.537  0.00  0.00    +0.333 C 
ATOM     20  O   UNK A   0       3.533   5.517  -0.365  0.00  0.00    -0.249 OA
BRANCH  19  21
ATOM     21  O   UNK A   0       3.575   7.723  -0.351  0.00  0.00    -0.448 OA
BRANCH  21  22
ATOM     22  C   UNK A   0       3.004   8.933   0.145  0.00  0.00    +0.209 C 
ATOM     23  C   UNK A   0       3.516  10.169  -0.510  0.00  0.00    +0.051 C 
ENDBRANCH  21  22
ENDBRANCH  19  21
ENDBRANCH  18  19
BRANCH  18  24
ATOM     24  C   UNK A   0       0.993   5.274  -1.096  0.00  0.00    +0.029 C 
BRANCH  24  26
ATOM     25  C   UNK A   0      -1.343   5.717  -1.205  0.00  0.00    +0.000 C 
ATOM     26  C   UNK A   0      -0.183   6.190  -0.768  0.00  0.00    +0.002 C 
ENDBRANCH  24  26
ENDBRANCH  18  24
ENDBRANCH  17  18
ENDBRANCH  15  17
ENDBRANCH   1  15
TORSDOF 9
ENDMDL
