MODEL 1
REMARK VINA RESULT:      -8.6      0.000      0.000
REMARK  Name = 
REMARK  1 active torsions:
REMARK  status: ('A' for Active; 'I' for Inactive)
REMARK    1  A    between atoms: O_2  and  C_3
REMARK                            x       y       z     vdW  Elec       q    Type
REMARK                         _______ _______ _______ _____ _____    ______ ____
ROOT
ATOM      1  C   UNL     1      -1.169   6.747  -4.938  0.00  0.00    +0.172 A 
ATOM      2  C   UNL     1       0.197   6.657  -5.197  0.00  0.00    +0.168 A 
ATOM      3  O   UNL     1       1.314   6.896  -4.501  0.00  0.00    -0.473 OA
ATOM      4  C   UNL     1       2.551   6.820  -5.402  0.00  0.00    +0.204 C 
ATOM      5  C   UNL     1       1.769   6.332  -6.722  0.00  0.00    +0.067 C 
ATOM      6  C   UNL     1       2.697   5.288  -7.460  0.00  0.00    +0.044 C 
ATOM      7  C   UNL     1       1.680   4.845  -8.764  0.00  0.00    +0.066 C 
ATOM      8  N   UNL     1       2.215   6.027  -9.654  0.00  0.00    -0.272 NA
ATOM      9  C   UNL     1       2.294   7.209  -8.989  0.00  0.00    +0.073 C 
ATOM     10  C   UNL     1       1.196   6.177 -10.701  0.00  0.00    +0.090 C 
ATOM     11  C   UNL     1       0.308   5.646  -8.506  0.00  0.00    +0.042 C 
ATOM     12  C   UNL     1      -0.276   5.329  -7.219  0.00  0.00    -0.022 A 
ATOM     13  C   UNL     1      -1.633   5.490  -6.966  0.00  0.00    -0.001 A 
ATOM     14  C   UNL     1       2.199   4.031  -6.590  0.00  0.00    -0.027 C 
ATOM     15  C   UNL     1       2.008   4.330  -5.321  0.00  0.00    +0.005 C 
ATOM     16  C   UNL     1       1.896   7.523  -7.644  0.00  0.00    +0.025 C 
ATOM     17  C   UNL     1       3.168   5.309  -4.809  0.00  0.00    +0.214 C 
ATOM     18  O   UNL     1       2.530   5.394  -3.432  0.00  0.00    -0.214 OA
ATOM     19  C   UNL     1       0.518   6.005  -6.334  0.00  0.00    +0.014 A 
ATOM     20  C   UNL     1      -2.078   6.213  -5.856  0.00  0.00    +0.040 A 
ENDROOT
BRANCH   1  22
ATOM     21  C   UNL     1      -2.187   7.550  -2.890  0.00  0.00    +0.253 C 
ATOM     22  O   UNL     1      -1.610   7.807  -4.145  0.00  0.00    -0.468 OA
ENDBRANCH   1  22
TORSDOF 1
ENDMDL
MODEL 2
REMARK VINA RESULT:      -8.1      3.477      6.057
REMARK  Name = 
REMARK  1 active torsions:
REMARK  status: ('A' for Active; 'I' for Inactive)
REMARK    1  A    between atoms: O_2  and  C_3
REMARK                            x       y       z     vdW  Elec       q    Type
REMARK                         _______ _______ _______ _____ _____    ______ ____
ROOT
ATOM      1  C   UNL     1       5.076   6.582 -10.324  0.00  0.00    +0.172 A 
ATOM      2  C   UNL     1       3.825   6.488  -9.717  0.00  0.00    +0.168 A 
ATOM      3  O   UNL     1       2.564   6.720 -10.097  0.00  0.00    -0.473 OA
ATOM      4  C   UNL     1       1.605   6.644  -8.904  0.00  0.00    +0.204 C 
ATOM      5  C   UNL     1       2.707   6.162  -7.833  0.00  0.00    +0.067 C 
ATOM      6  C   UNL     1       2.009   5.118  -6.876  0.00  0.00    +0.044 C 
ATOM      7  C   UNL     1       3.333   4.683  -5.881  0.00  0.00    +0.066 C 
ATOM      8  N   UNL     1       3.044   5.867  -4.886  0.00  0.00    -0.272 NA
ATOM      9  C   UNL     1       2.789   7.046  -5.509  0.00  0.00    +0.073 C 
ATOM     10  C   UNL     1       4.301   6.025  -4.141  0.00  0.00    +0.090 C 
ATOM     11  C   UNL     1       4.586   5.489  -6.491  0.00  0.00    +0.042 C 
ATOM     12  C   UNL     1       4.816   5.169  -7.885  0.00  0.00    -0.022 A 
ATOM     13  C   UNL     1       6.059   5.333  -8.484  0.00  0.00    -0.001 A 
ATOM     14  C   UNL     1       2.268   3.860  -7.842  0.00  0.00    -0.027 C 
ATOM     15  C   UNL     1       2.120   4.154  -9.118  0.00  0.00    +0.005 C 
ATOM     16  C   UNL     1       2.820   7.356  -6.913  0.00  0.00    +0.025 C 
ATOM     17  C   UNL     1       0.861   5.128  -9.311  0.00  0.00    +0.214 C 
ATOM     18  O   UNL     1       1.117   5.210 -10.807  0.00  0.00    -0.214 OA
ATOM     19  C   UNL     1       3.815   5.839  -8.534  0.00  0.00    +0.014 A 
ATOM     20  C   UNL     1       6.195   6.054  -9.673  0.00  0.00    +0.040 A 
ENDROOT
BRANCH   1  22
ATOM     21  C   UNL     1       6.596   8.092 -11.455  0.00  0.00    +0.253 C 
ATOM     22  O   UNL     1       5.290   7.640 -11.207  0.00  0.00    -0.468 OA
ENDBRANCH   1  22
TORSDOF 1
ENDMDL
MODEL 3
REMARK VINA RESULT:      -7.8      1.663      4.080
REMARK  Name = 
REMARK  1 active torsions:
REMARK  status: ('A' for Active; 'I' for Inactive)
REMARK    1  A    between atoms: O_2  and  C_3
REMARK                            x       y       z     vdW  Elec       q    Type
REMARK                         _______ _______ _______ _____ _____    ______ ____
ROOT
ATOM      1  C   UNL     1       3.501   5.483  -3.428  0.00  0.00    +0.172 A 
ATOM      2  C   UNL     1       2.467   5.299  -4.344  0.00  0.00    +0.168 A 
ATOM      3  O   UNL     1       1.173   4.969  -4.264  0.00  0.00    -0.473 OA
ATOM      4  C   UNL     1       0.584   4.705  -5.654  0.00  0.00    +0.204 C 
ATOM      5  C   UNL     1       1.898   5.135  -6.478  0.00  0.00    +0.067 C 
ATOM      6  C   UNL     1       1.413   5.892  -7.777  0.00  0.00    +0.044 C 
ATOM      7  C   UNL     1       2.923   6.320  -8.462  0.00  0.00    +0.066 C 
ATOM      8  N   UNL     1       3.022   4.953  -9.233  0.00  0.00    -0.272 NA
ATOM      9  C   UNL     1       2.700   3.877  -8.468  0.00  0.00    +0.073 C 
ATOM     10  C   UNL     1       4.446   4.838  -9.578  0.00  0.00    +0.090 C 
ATOM     11  C   UNL     1       4.016   5.811  -7.397  0.00  0.00    +0.042 C 
ATOM     12  C   UNL     1       3.819   6.398  -6.088  0.00  0.00    -0.022 A 
ATOM     13  C   UNL     1       4.854   6.511  -5.167  0.00  0.00    -0.001 A 
ATOM     14  C   UNL     1       1.286   7.323  -7.057  0.00  0.00    -0.027 C 
ATOM     15  C   UNL     1       0.812   7.239  -5.830  0.00  0.00    +0.005 C 
ATOM     16  C   UNL     1       2.363   3.825  -7.072  0.00  0.00    +0.025 C 
ATOM     17  C   UNL     1      -0.366   6.154  -5.773  0.00  0.00    +0.214 C 
ATOM     18  O   UNL     1      -0.534   6.370  -4.279  0.00  0.00    -0.214 OA
ATOM     19  C   UNL     1       2.735   5.723  -5.596  0.00  0.00    +0.014 A 
ATOM     20  C   UNL     1       4.709   6.035  -3.861  0.00  0.00    +0.040 A 
ENDROOT
BRANCH   1  22
ATOM     21  C   UNL     1       4.083   5.094  -1.108  0.00  0.00    +0.253 C 
ATOM     22  O   UNL     1       3.544   4.635  -2.321  0.00  0.00    -0.468 OA
ENDBRANCH   1  22
TORSDOF 1
ENDMDL
MODEL 4
REMARK VINA RESULT:      -6.9      2.213      4.003
REMARK  Name = 
REMARK  1 active torsions:
REMARK  status: ('A' for Active; 'I' for Inactive)
REMARK    1  A    between atoms: O_2  and  C_3
REMARK                            x       y       z     vdW  Elec       q    Type
REMARK                         _______ _______ _______ _____ _____    ______ ____
ROOT
ATOM      1  C   UNL     1      -1.446   6.008  -6.284  0.00  0.00    +0.172 A 
ATOM      2  C   UNL     1      -0.253   5.645  -6.908  0.00  0.00    +0.168 A 
ATOM      3  O   UNL     1       0.074   5.031  -8.050  0.00  0.00    -0.473 OA
ATOM      4  C   UNL     1       1.572   4.714  -8.096  0.00  0.00    +0.204 C 
ATOM      5  C   UNL     1       1.946   5.470  -6.724  0.00  0.00    +0.067 C 
ATOM      6  C   UNL     1       3.349   6.165  -6.937  0.00  0.00    +0.044 C 
ATOM      7  C   UNL     1       3.529   6.955  -5.428  0.00  0.00    +0.066 C 
ATOM      8  N   UNL     1       4.198   5.686  -4.782  0.00  0.00    -0.272 NA
ATOM      9  C   UNL     1       3.551   4.528  -5.073  0.00  0.00    +0.073 C 
ATOM     10  C   UNL     1       4.071   5.911  -3.336  0.00  0.00    +0.090 C 
ATOM     11  C   UNL     1       2.160   6.649  -4.638  0.00  0.00    +0.042 C 
ATOM     12  C   UNL     1       0.995   7.108  -5.365  0.00  0.00    -0.022 A 
ATOM     13  C   UNL     1      -0.204   7.401  -4.726  0.00  0.00    -0.001 A 
ATOM     14  C   UNL     1       2.738   7.492  -7.607  0.00  0.00    -0.027 C 
ATOM     15  C   UNL     1       1.724   7.241  -8.410  0.00  0.00    +0.005 C 
ATOM     16  C   UNL     1       2.333   4.329  -5.811  0.00  0.00    +0.025 C 
ATOM     17  C   UNL     1       2.020   5.918  -9.265  0.00  0.00    +0.214 C 
ATOM     18  O   UNL     1       0.660   6.014  -9.938  0.00  0.00    -0.214 OA
ATOM     19  C   UNL     1       0.858   6.183  -6.364  0.00  0.00    +0.014 A 
ATOM     20  C   UNL     1      -1.407   6.837  -5.161  0.00  0.00    +0.040 A 
ENDROOT
BRANCH   1  22
ATOM     21  C   UNL     1      -3.333   4.869  -5.278  0.00  0.00    +0.253 C 
ATOM     22  O   UNL     1      -2.528   5.134  -6.398  0.00  0.00    -0.468 OA
ENDBRANCH   1  22
TORSDOF 1
ENDMDL
MODEL 5
REMARK VINA RESULT:      -6.9      2.433      4.756
REMARK  Name = 
REMARK  1 active torsions:
REMARK  status: ('A' for Active; 'I' for Inactive)
REMARK    1  A    between atoms: O_2  and  C_3
REMARK                            x       y       z     vdW  Elec       q    Type
REMARK                         _______ _______ _______ _____ _____    ______ ____
ROOT
ATOM      1  C   UNL     1       3.117   6.758  -3.522  0.00  0.00    +0.172 A 
ATOM      2  C   UNL     1       2.279   6.830  -4.633  0.00  0.00    +0.168 A 
ATOM      3  O   UNL     1       2.429   7.183  -5.915  0.00  0.00    -0.473 OA
ATOM      4  C   UNL     1       1.073   7.267  -6.625  0.00  0.00    +0.204 C 
ATOM      5  C   UNL     1       0.201   6.716  -5.389  0.00  0.00    +0.067 C 
ATOM      6  C   UNL     1      -0.938   5.799  -5.988  0.00  0.00    +0.044 C 
ATOM      7  C   UNL     1      -1.690   5.267  -4.545  0.00  0.00    +0.066 C 
ATOM      8  N   UNL     1      -2.643   6.518  -4.515  0.00  0.00    -0.272 NA
ATOM      9  C   UNL     1      -2.002   7.689  -4.769  0.00  0.00    +0.073 C 
ATOM     10  C   UNL     1      -3.124   6.570  -3.128  0.00  0.00    +0.090 C 
ATOM     11  C   UNL     1      -0.803   5.900  -3.361  0.00  0.00    +0.042 C 
ATOM     12  C   UNL     1       0.585   5.494  -3.441  0.00  0.00    -0.022 A 
ATOM     13  C   UNL     1       1.418   5.493  -2.328  0.00  0.00    -0.001 A 
ATOM     14  C   UNL     1      -0.025   4.478  -6.049  0.00  0.00    -0.027 C 
ATOM     15  C   UNL     1       1.217   4.729  -6.413  0.00  0.00    +0.005 C 
ATOM     16  C   UNL     1      -0.601   7.931  -4.980  0.00  0.00    +0.025 C 
ATOM     17  C   UNL     1       1.232   5.825  -7.582  0.00  0.00    +0.214 C 
ATOM     18  O   UNL     1       2.751   5.811  -7.615  0.00  0.00    -0.214 OA
ATOM     19  C   UNL     1       1.076   6.240  -4.477  0.00  0.00    +0.014 A 
ATOM     20  C   UNL     1       2.656   6.140  -2.356  0.00  0.00    +0.040 A 
ENDROOT
BRANCH   1  22
ATOM     21  C   UNL     1       5.305   7.635  -4.079  0.00  0.00    +0.253 C 
ATOM     22  O   UNL     1       4.092   7.745  -3.380  0.00  0.00    -0.468 OA
ENDBRANCH   1  22
TORSDOF 1
ENDMDL
MODEL 6
REMARK VINA RESULT:      -6.8      3.723      5.879
REMARK  Name = 
REMARK  1 active torsions:
REMARK  status: ('A' for Active; 'I' for Inactive)
REMARK    1  A    between atoms: O_2  and  C_3
REMARK                            x       y       z     vdW  Elec       q    Type
REMARK                         _______ _______ _______ _____ _____    ______ ____
ROOT
ATOM      1  C   UNL     1       1.461   5.470 -12.361  0.00  0.00    +0.172 A 
ATOM      2  C   UNL     1       2.463   5.389 -11.396  0.00  0.00    +0.168 A 
ATOM      3  O   UNL     1       3.789   5.212 -11.415  0.00  0.00    -0.473 OA
ATOM      4  C   UNL     1       4.336   4.991 -10.001  0.00  0.00    +0.204 C 
ATOM      5  C   UNL     1       2.942   5.252  -9.239  0.00  0.00    +0.067 C 
ATOM      6  C   UNL     1       3.273   6.035  -7.907  0.00  0.00    +0.044 C 
ATOM      7  C   UNL     1       1.693   6.274  -7.294  0.00  0.00    +0.066 C 
ATOM      8  N   UNL     1       1.714   4.890  -6.546  0.00  0.00    -0.272 NA
ATOM      9  C   UNL     1       2.196   3.874  -7.307  0.00  0.00    +0.073 C 
ATOM     10  C   UNL     1       0.299   4.607  -6.275  0.00  0.00    +0.090 C 
ATOM     11  C   UNL     1       0.718   5.663  -8.419  0.00  0.00    +0.042 C 
ATOM     12  C   UNL     1       0.910   6.293  -9.709  0.00  0.00    -0.022 A 
ATOM     13  C   UNL     1      -0.085   6.303 -10.680  0.00  0.00    -0.001 A 
ATOM     14  C   UNL     1       3.268   7.485  -8.602  0.00  0.00    -0.027 C 
ATOM     15  C   UNL     1       3.809   7.479  -9.804  0.00  0.00    +0.005 C 
ATOM     16  C   UNL     1       2.604   3.886  -8.686  0.00  0.00    +0.025 C 
ATOM     17  C   UNL     1       5.105   6.537  -9.815  0.00  0.00    +0.214 C 
ATOM     18  O   UNL     1       5.319   6.799 -11.296  0.00  0.00    -0.214 OA
ATOM     19  C   UNL     1       2.087   5.757 -10.154  0.00  0.00    +0.014 A 
ATOM     20  C   UNL     1       0.177   5.871 -11.983  0.00  0.00    +0.040 A 
ENDROOT
BRANCH   1  22
ATOM     21  C   UNL     1       0.415   4.256 -14.178  0.00  0.00    +0.253 C 
ATOM     22  O   UNL     1       1.569   4.643 -13.479  0.00  0.00    -0.468 OA
ENDBRANCH   1  22
TORSDOF 1
ENDMDL
MODEL 7
REMARK VINA RESULT:      -6.7      4.480      6.819
REMARK  Name = 
REMARK  1 active torsions:
REMARK  status: ('A' for Active; 'I' for Inactive)
REMARK    1  A    between atoms: O_2  and  C_3
REMARK                            x       y       z     vdW  Elec       q    Type
REMARK                         _______ _______ _______ _____ _____    ______ ____
ROOT
ATOM      1  C   UNL     1       2.329   5.946 -12.927  0.00  0.00    +0.172 A 
ATOM      2  C   UNL     1       2.887   6.314 -11.703  0.00  0.00    +0.168 A 
ATOM      3  O   UNL     1       2.425   6.868 -10.577  0.00  0.00    -0.473 OA
ATOM      4  C   UNL     1       3.576   7.236  -9.633  0.00  0.00    +0.204 C 
ATOM      5  C   UNL     1       4.743   6.582 -10.527  0.00  0.00    +0.067 C 
ATOM      6  C   UNL     1       5.785   5.927  -9.535  0.00  0.00    +0.044 C 
ATOM      7  C   UNL     1       6.881   5.239 -10.656  0.00  0.00    +0.066 C 
ATOM      8  N   UNL     1       7.717   6.569 -10.737  0.00  0.00    -0.272 NA
ATOM      9  C   UNL     1       6.949   7.683 -10.860  0.00  0.00    +0.073 C 
ATOM     10  C   UNL     1       8.494   6.431 -11.976  0.00  0.00    +0.090 C 
ATOM     11  C   UNL     1       6.238   5.543 -12.100  0.00  0.00    +0.042 C 
ATOM     12  C   UNL     1       4.903   4.997 -12.229  0.00  0.00    -0.022 A 
ATOM     13  C   UNL     1       4.345   4.699 -13.467  0.00  0.00    -0.001 A 
ATOM     14  C   UNL     1       4.985   4.539  -9.402  0.00  0.00    -0.027 C 
ATOM     15  C   UNL     1       3.678   4.702  -9.360  0.00  0.00    +0.005 C 
ATOM     16  C   UNL     1       5.522   7.791 -10.995  0.00  0.00    +0.025 C 
ATOM     17  C   UNL     1       3.316   5.979  -8.462  0.00  0.00    +0.214 C 
ATOM     18  O   UNL     1       1.834   5.792  -8.741  0.00  0.00    -0.214 OA
ATOM     19  C   UNL     1       4.136   5.852 -11.487  0.00  0.00    +0.014 A 
ATOM     20  C   UNL     1       3.087   5.190 -13.825  0.00  0.00    +0.040 A 
ENDROOT
BRANCH   1  22
ATOM     21  C   UNL     1       0.815   6.499 -14.735  0.00  0.00    +0.253 C 
ATOM     22  O   UNL     1       1.338   6.770 -13.461  0.00  0.00    -0.468 OA
ENDBRANCH   1  22
TORSDOF 1
ENDMDL
MODEL 8
REMARK VINA RESULT:      -6.6      2.302      4.642
REMARK  Name = 
REMARK  1 active torsions:
REMARK  status: ('A' for Active; 'I' for Inactive)
REMARK    1  A    between atoms: O_2  and  C_3
REMARK                            x       y       z     vdW  Elec       q    Type
REMARK                         _______ _______ _______ _____ _____    ______ ____
ROOT
ATOM      1  C   UNL     1       4.401   6.107  -5.315  0.00  0.00    +0.172 A 
ATOM      2  C   UNL     1       3.377   6.600  -6.122  0.00  0.00    +0.168 A 
ATOM      3  O   UNL     1       3.300   7.476  -7.130  0.00  0.00    -0.473 OA
ATOM      4  C   UNL     1       1.840   7.777  -7.488  0.00  0.00    +0.204 C 
ATOM      5  C   UNL     1       1.194   6.699  -6.481  0.00  0.00    +0.067 C 
ATOM      6  C   UNL     1      -0.055   6.063  -7.209  0.00  0.00    +0.044 C 
ATOM      7  C   UNL     1      -0.545   4.920  -6.033  0.00  0.00    +0.066 C 
ATOM      8  N   UNL     1      -1.447   5.980  -5.300  0.00  0.00    -0.272 NA
ATOM      9  C   UNL     1      -0.837   7.182  -5.129  0.00  0.00    +0.073 C 
ATOM     10  C   UNL     1      -1.668   5.404  -3.967  0.00  0.00    +0.090 C 
ATOM     11  C   UNL     1       0.557   5.035  -4.865  0.00  0.00    +0.042 C 
ATOM     12  C   UNL     1       1.898   4.785  -5.351  0.00  0.00    -0.022 A 
ATOM     13  C   UNL     1       2.918   4.355  -4.511  0.00  0.00    -0.001 A 
ATOM     14  C   UNL     1       0.802   4.952  -7.993  0.00  0.00    -0.027 C 
ATOM     15  C   UNL     1       1.963   5.407  -8.422  0.00  0.00    +0.005 C 
ATOM     16  C   UNL     1       0.507   7.572  -5.455  0.00  0.00    +0.025 C 
ATOM     17  C   UNL     1       1.790   6.897  -8.985  0.00  0.00    +0.214 C 
ATOM     18  O   UNL     1       3.277   6.988  -9.284  0.00  0.00    -0.214 OA
ATOM     19  C   UNL     1       2.209   5.930  -6.031  0.00  0.00    +0.014 A 
ATOM     20  C   UNL     1       4.146   5.023  -4.471  0.00  0.00    +0.040 A 
ENDROOT
BRANCH   1  22
ATOM     21  C   UNL     1       5.122   8.029  -4.028  0.00  0.00    +0.253 C 
ATOM     22  O   UNL     1       5.408   6.993  -4.932  0.00  0.00    -0.468 OA
ENDBRANCH   1  22
TORSDOF 1
ENDMDL
MODEL 9
REMARK VINA RESULT:      -6.5      3.254      4.530
REMARK  Name = 
REMARK  1 active torsions:
REMARK  status: ('A' for Active; 'I' for Inactive)
REMARK    1  A    between atoms: O_2  and  C_3
REMARK                            x       y       z     vdW  Elec       q    Type
REMARK                         _______ _______ _______ _____ _____    ______ ____
ROOT
ATOM      1  C   UNL     1       0.298   6.724  -0.786  0.00  0.00    +0.172 A 
ATOM      2  C   UNL     1       1.654   6.900  -1.053  0.00  0.00    +0.168 A 
ATOM      3  O   UNL     1       2.674   7.505  -0.434  0.00  0.00    -0.473 OA
ATOM      4  C   UNL     1       3.914   7.553  -1.333  0.00  0.00    +0.204 C 
ATOM      5  C   UNL     1       3.290   6.673  -2.528  0.00  0.00    +0.067 C 
ATOM      6  C   UNL     1       4.444   5.752  -3.089  0.00  0.00    +0.044 C 
ATOM      7  C   UNL     1       3.580   4.866  -4.272  0.00  0.00    +0.066 C 
ATOM      8  N   UNL     1       3.851   5.960  -5.368  0.00  0.00    -0.272 NA
ATOM      9  C   UNL     1       3.648   7.228  -4.926  0.00  0.00    +0.073 C 
ATOM     10  C   UNL     1       2.846   5.687  -6.404  0.00  0.00    +0.090 C 
ATOM     11  C   UNL     1       2.058   5.368  -4.131  0.00  0.00    +0.042 C 
ATOM     12  C   UNL     1       1.535   5.162  -2.796  0.00  0.00    -0.022 A 
ATOM     13  C   UNL     1       0.171   5.053  -2.548  0.00  0.00    -0.001 A 
ATOM     14  C   UNL     1       4.226   4.590  -1.999  0.00  0.00    -0.027 C 
ATOM     15  C   UNL     1       3.947   5.059  -0.799  0.00  0.00    +0.005 C 
ATOM     16  C   UNL     1       3.162   7.678  -3.650  0.00  0.00    +0.025 C 
ATOM     17  C   UNL     1       4.845   6.350  -0.494  0.00  0.00    +0.214 C 
ATOM     18  O   UNL     1       4.177   6.532   0.858  0.00  0.00    -0.214 OA
ATOM     19  C   UNL     1       2.137   6.146  -2.062  0.00  0.00    +0.014 A 
ATOM     20  C   UNL     1      -0.447   5.843  -1.575  0.00  0.00    +0.040 A 
ENDROOT
BRANCH   1  22
ATOM     21  C   UNL     1      -1.789   7.752  -0.110  0.00  0.00    +0.253 C 
ATOM     22  O   UNL     1      -0.387   7.780  -0.184  0.00  0.00    -0.468 OA
ENDBRANCH   1  22
TORSDOF 1
ENDMDL
