MODEL 1
REMARK VINA RESULT:      -9.1      0.000      0.000
REMARK  Name = 
REMARK  2 active torsions:
REMARK  status: ('A' for Active; 'I' for Inactive)
REMARK    1  A    between atoms: N_2  and  C_4
REMARK    2  A    between atoms: C_7  and  C_8
REMARK                            x       y       z     vdW  Elec       q    Type
REMARK                         _______ _______ _______ _____ _____    ______ ____
ROOT
ATOM      1  C   UNL     1       4.072   5.283 -10.259  0.00  0.00    +0.124 C 
ATOM      2  C   UNL     1       3.114   6.081  -9.043  0.00  0.00    +0.065 C 
ATOM      3  C   UNL     1       1.670   5.816  -9.730  0.00  0.00    +0.237 C 
ATOM      4  C   UNL     1       0.762   5.124  -8.838  0.00  0.00    +0.207 C 
ATOM      5  C   UNL     1       0.811   4.973  -7.548  0.00  0.00    +0.057 C 
ATOM      6  C   UNL     1       2.207   5.575  -6.952  0.00  0.00    +0.060 C 
ATOM      7  C   UNL     1       2.329   4.378  -5.807  0.00  0.00    +0.149 C 
ATOM      8  O   UNL     1       1.973   3.222  -6.402  0.00  0.00    -0.221 OA
ATOM      9  C   UNL     1       3.728   4.440  -5.287  0.00  0.00    +0.038 C 
ATOM     10  C   UNL     1       1.346   4.926  -4.815  0.00  0.00    +0.012 A 
ATOM     11  C   UNL     1       0.074   5.337  -5.208  0.00  0.00    +0.076 A 
ATOM     12  C   UNL     1      -0.698   6.186  -4.417  0.00  0.00    +0.198 A 
ATOM     13  C   UNL     1      -0.093   6.891  -3.381  0.00  0.00    +0.042 A 
ATOM     14  C   UNL     1       1.282   6.798  -3.257  0.00  0.00    +0.003 A 
ATOM     15  O   UNL     1      -1.877   6.730  -4.938  0.00  0.00    -0.286 OA
ATOM     16  C   UNL     1       1.904   5.681  -3.787  0.00  0.00    -0.002 A 
ATOM     17  C   UNL     1      -0.291   5.087  -6.616  0.00  0.00    +0.197 C 
ATOM     18  O   UNL     1      -1.414   5.421  -7.066  0.00  0.00    -0.287 OA
ATOM     19  O   UNL     1      -0.531   5.022  -9.366  0.00  0.00    -0.289 OA
ATOM     20  O   UNL     1       1.195   7.145  -9.743  0.00  0.00    -0.210 OA
ATOM     21  C   UNL     1       1.792   5.325 -11.073  0.00  0.00    +0.215 C 
ATOM     22  O   UNL     1       0.827   4.702 -11.552  0.00  0.00    -0.288 OA
ATOM     23  C   UNL     1       2.667   6.074 -11.989  0.00  0.00    +0.130 C 
ATOM     24  C   UNL     1       3.064   4.730  -8.104  0.00  0.00    +0.012 C 
ATOM     25  C   UNL     1       3.783   6.457 -11.358  0.00  0.00    +0.195 C 
ATOM     26  O   UNL     1       4.870   6.719 -12.202  0.00  0.00    -0.290 OA
ENDROOT
BRANCH   1  28
ATOM     27  C   UNL     1       6.330   5.643 -10.821  0.00  0.00    +0.090 C 
ATOM     28  N   UNL     1       5.407   5.993  -9.766  0.00  0.00    -0.265 NA
ATOM     29  C   UNL     1       5.822   5.320  -8.585  0.00  0.00    +0.090 C 
ENDBRANCH   1  28
BRANCH  23  30
ATOM     30  C   UNL     1       2.421   6.231 -13.404  0.00  0.00    +0.290 C 
ATOM     31  O   UNL     1       2.693   5.261 -14.162  0.00  0.00    -0.266 OA
ATOM     32  N   UNL     1       1.313   7.057 -13.782  0.00  0.00    -0.084 NA
ENDBRANCH  23  30
TORSDOF 2
ENDMDL
MODEL 2
REMARK VINA RESULT:      -8.9      2.967      7.613
REMARK  Name = 
REMARK  2 active torsions:
REMARK  status: ('A' for Active; 'I' for Inactive)
REMARK    1  A    between atoms: N_2  and  C_4
REMARK    2  A    between atoms: C_7  and  C_8
REMARK                            x       y       z     vdW  Elec       q    Type
REMARK                         _______ _______ _______ _____ _____    ______ ____
ROOT
ATOM      1  C   UNL     1       0.158   5.381  -4.924  0.00  0.00    +0.124 C 
ATOM      2  C   UNL     1       1.234   6.143  -6.061  0.00  0.00    +0.065 C 
ATOM      3  C   UNL     1       2.609   5.848  -5.254  0.00  0.00    +0.237 C 
ATOM      4  C   UNL     1       3.570   5.124  -6.062  0.00  0.00    +0.207 C 
ATOM      5  C   UNL     1       3.625   4.963  -7.350  0.00  0.00    +0.057 C 
ATOM      6  C   UNL     1       2.300   5.594  -8.065  0.00  0.00    +0.060 C 
ATOM      7  C   UNL     1       2.243   4.390  -9.207  0.00  0.00    +0.149 C 
ATOM      8  O   UNL     1       2.518   3.231  -8.577  0.00  0.00    -0.221 OA
ATOM      9  C   UNL     1       0.894   4.483  -9.844  0.00  0.00    +0.038 C 
ATOM     10  C   UNL     1       3.320   4.904 -10.118  0.00  0.00    +0.012 A 
ATOM     11  C   UNL     1       4.564   5.286  -9.622  0.00  0.00    +0.076 A 
ATOM     12  C   UNL     1       5.422   6.108 -10.352  0.00  0.00    +0.198 A 
ATOM     13  C   UNL     1       4.923   6.818 -11.441  0.00  0.00    +0.042 A 
ATOM     14  C   UNL     1       3.562   6.758 -11.679  0.00  0.00    +0.003 A 
ATOM     15  O   UNL     1       6.567   6.626  -9.738  0.00  0.00    -0.286 OA
ATOM     16  C   UNL     1       2.869   5.664 -11.195  0.00  0.00    -0.002 A 
ATOM     17  C   UNL     1       4.804   5.040  -8.187  0.00  0.00    +0.197 C 
ATOM     18  O   UNL     1       5.893   5.350  -7.647  0.00  0.00    -0.287 OA
ATOM     19  O   UNL     1       4.812   4.995  -5.427  0.00  0.00    -0.289 OA
ATOM     20  O   UNL     1       3.116   7.165  -5.210  0.00  0.00    -0.210 OA
ATOM     21  C   UNL     1       2.363   5.372  -3.922  0.00  0.00    +0.215 C 
ATOM     22  O   UNL     1       3.268   4.730  -3.360  0.00  0.00    -0.288 OA
ATOM     23  C   UNL     1       1.434   6.152  -3.088  0.00  0.00    +0.130 C 
ATOM     24  C   UNL     1       1.328   4.782  -6.983  0.00  0.00    +0.012 C 
ATOM     25  C   UNL     1       0.384   6.557  -3.813  0.00  0.00    +0.195 C 
ATOM     26  O   UNL     1      -0.762   6.854  -3.064  0.00  0.00    -0.290 OA
ENDROOT
BRANCH   1  28
ATOM     27  C   UNL     1      -2.140   5.765  -4.580  0.00  0.00    +0.090 C 
ATOM     28  N   UNL     1      -1.112   6.120  -5.532  0.00  0.00    -0.265 NA
ATOM     29  C   UNL     1      -1.418   5.473  -6.760  0.00  0.00    +0.090 C 
ENDBRANCH   1  28
BRANCH  23  30
ATOM     30  C   UNL     1       1.565   6.316  -1.659  0.00  0.00    +0.290 C 
ATOM     31  O   UNL     1       1.301   5.326  -0.923  0.00  0.00    -0.266 OA
ATOM     32  N   UNL     1       2.586   7.209  -1.199  0.00  0.00    -0.084 NA
ENDBRANCH  23  30
TORSDOF 2
ENDMDL
MODEL 3
REMARK VINA RESULT:      -8.6      3.743      8.133
REMARK  Name = 
REMARK  2 active torsions:
REMARK  status: ('A' for Active; 'I' for Inactive)
REMARK    1  A    between atoms: N_2  and  C_4
REMARK    2  A    between atoms: C_7  and  C_8
REMARK                            x       y       z     vdW  Elec       q    Type
REMARK                         _______ _______ _______ _____ _____    ______ ____
ROOT
ATOM      1  C   UNL     1       1.079   5.813  -2.087  0.00  0.00    +0.124 C 
ATOM      2  C   UNL     1       1.463   6.500  -3.640  0.00  0.00    +0.065 C 
ATOM      3  C   UNL     1       3.059   6.224  -3.585  0.00  0.00    +0.237 C 
ATOM      4  C   UNL     1       3.517   5.446  -4.719  0.00  0.00    +0.207 C 
ATOM      5  C   UNL     1       2.943   5.220  -5.862  0.00  0.00    +0.057 C 
ATOM      6  C   UNL     1       1.431   5.836  -5.878  0.00  0.00    +0.060 C 
ATOM      7  C   UNL     1       0.840   4.577  -6.787  0.00  0.00    +0.149 C 
ATOM      8  O   UNL     1       1.398   3.447  -6.310  0.00  0.00    -0.221 OA
ATOM      9  C   UNL     1      -0.648   4.659  -6.695  0.00  0.00    +0.038 C 
ATOM     10  C   UNL     1       1.337   5.028  -8.130  0.00  0.00    +0.012 A 
ATOM     11  C   UNL     1       2.661   5.415  -8.319  0.00  0.00    +0.076 A 
ATOM     12  C   UNL     1       3.050   6.185  -9.414  0.00  0.00    +0.198 A 
ATOM     13  C   UNL     1       2.080   6.848 -10.159  0.00  0.00    +0.042 A 
ATOM     14  C   UNL     1       0.774   6.798  -9.705  0.00  0.00    +0.003 A 
ATOM     15  O   UNL     1       4.344   6.715  -9.458  0.00  0.00    -0.286 OA
ATOM     16  C   UNL     1       0.413   5.740  -8.891  0.00  0.00    -0.002 A 
ATOM     17  C   UNL     1       3.569   5.237  -7.168  0.00  0.00    +0.197 C 
ATOM     18  O   UNL     1       4.780   5.556  -7.239  0.00  0.00    -0.287 OA
ATOM     19  O   UNL     1       4.912   5.329  -4.758  0.00  0.00    -0.289 OA
ATOM     20  O   UNL     1       3.510   7.533  -3.860  0.00  0.00    -0.210 OA
ATOM     21  C   UNL     1       3.494   5.820  -2.278  0.00  0.00    +0.215 C 
ATOM     22  O   UNL     1       4.564   5.192  -2.192  0.00  0.00    -0.288 OA
ATOM     23  C   UNL     1       3.076   6.655  -1.140  0.00  0.00    +0.130 C 
ATOM     24  C   UNL     1       1.112   5.094  -4.421  0.00  0.00    +0.012 C 
ATOM     25  C   UNL     1       1.803   7.039  -1.286  0.00  0.00    +0.195 C 
ATOM     26  O   UNL     1       1.160   7.392  -0.093  0.00  0.00    -0.290 OA
ENDROOT
BRANCH   1  28
ATOM     27  C   UNL     1      -0.820   6.153  -0.737  0.00  0.00    +0.090 C 
ATOM     28  N   UNL     1      -0.333   6.541  -2.041  0.00  0.00    -0.265 NA
ATOM     29  C   UNL     1      -1.155   5.910  -3.014  0.00  0.00    +0.090 C 
ENDBRANCH   1  28
BRANCH  23  30
ATOM     30  C   UNL     1       3.882   6.887   0.037  0.00  0.00    +0.290 C 
ATOM     31  O   UNL     1       4.608   5.944   0.453  0.00  0.00    -0.266 OA
ATOM     32  N   UNL     1       4.374   8.218   0.234  0.00  0.00    -0.084 NA
ENDBRANCH  23  30
TORSDOF 2
ENDMDL
MODEL 4
REMARK VINA RESULT:      -8.5      2.597      4.548
REMARK  Name = 
REMARK  2 active torsions:
REMARK  status: ('A' for Active; 'I' for Inactive)
REMARK    1  A    between atoms: N_2  and  C_4
REMARK    2  A    between atoms: C_7  and  C_8
REMARK                            x       y       z     vdW  Elec       q    Type
REMARK                         _______ _______ _______ _____ _____    ______ ____
ROOT
ATOM      1  C   UNL     1       2.538   5.305  -6.249  0.00  0.00    +0.124 C 
ATOM      2  C   UNL     1       1.938   6.412  -5.046  0.00  0.00    +0.065 C 
ATOM      3  C   UNL     1       0.366   6.258  -5.408  0.00  0.00    +0.237 C 
ATOM      4  C   UNL     1      -0.420   5.851  -4.260  0.00  0.00    +0.207 C 
ATOM      5  C   UNL     1      -0.133   5.896  -2.994  0.00  0.00    +0.057 C 
ATOM      6  C   UNL     1       1.413   6.372  -2.771  0.00  0.00    +0.060 C 
ATOM      7  C   UNL     1       1.623   5.361  -1.470  0.00  0.00    +0.149 C 
ATOM      8  O   UNL     1       1.026   4.192  -1.776  0.00  0.00    -0.221 OA
ATOM      9  C   UNL     1       3.095   5.298  -1.225  0.00  0.00    +0.038 C 
ATOM     10  C   UNL     1       0.925   6.194  -0.435  0.00  0.00    +0.012 A 
ATOM     11  C   UNL     1      -0.344   6.720  -0.664  0.00  0.00    +0.076 A 
ATOM     12  C   UNL     1      -0.841   7.784   0.086  0.00  0.00    +0.198 A 
ATOM     13  C   UNL     1       0.034   8.545   0.855  0.00  0.00    +0.042 A 
ATOM     14  C   UNL     1       1.387   8.272   0.749  0.00  0.00    +0.003 A 
ATOM     15  O   UNL     1      -2.031   8.407  -0.307  0.00  0.00    -0.286 OA
ATOM     16  C   UNL     1       1.759   7.009   0.327  0.00  0.00    -0.002 A 
ATOM     17  C   UNL     1      -1.008   6.312  -1.917  0.00  0.00    +0.197 C 
ATOM     18  O   UNL     1      -2.152   6.733  -2.214  0.00  0.00    -0.287 OA
ATOM     19  O   UNL     1      -1.796   5.860  -4.524  0.00  0.00    -0.289 OA
ATOM     20  O   UNL     1       0.052   7.624  -5.575  0.00  0.00    -0.210 OA
ATOM     21  C   UNL     1       0.161   5.553  -6.642  0.00  0.00    +0.215 C 
ATOM     22  O   UNL     1      -0.944   5.011  -6.823  0.00  0.00    -0.288 OA
ATOM     23  C   UNL     1       0.916   6.016  -7.817  0.00  0.00    +0.130 C 
ATOM     24  C   UNL     1       1.922   5.244  -3.886  0.00  0.00    +0.012 C 
ATOM     25  C   UNL     1       2.172   6.324  -7.473  0.00  0.00    +0.195 C 
ATOM     26  O   UNL     1       3.091   6.291  -8.528  0.00  0.00    -0.290 OA
ENDROOT
BRANCH   1  28
ATOM     27  C   UNL     1       4.651   5.283  -7.288  0.00  0.00    +0.090 C 
ATOM     28  N   UNL     1       4.015   5.880  -6.135  0.00  0.00    -0.265 NA
ATOM     29  C   UNL     1       4.596   5.302  -4.974  0.00  0.00    +0.090 C 
ENDBRANCH   1  28
BRANCH  23  30
ATOM     30  C   UNL     1       0.413   5.987  -9.171  0.00  0.00    +0.290 C 
ATOM     31  O   UNL     1       0.484   7.046  -9.852  0.00  0.00    -0.266 OA
ATOM     32  N   UNL     1       0.538   4.750  -9.883  0.00  0.00    -0.084 NA
ENDBRANCH  23  30
TORSDOF 2
ENDMDL
MODEL 5
REMARK VINA RESULT:      -8.3      1.722      2.554
REMARK  Name = 
REMARK  2 active torsions:
REMARK  status: ('A' for Active; 'I' for Inactive)
REMARK    1  A    between atoms: N_2  and  C_4
REMARK    2  A    between atoms: C_7  and  C_8
REMARK                            x       y       z     vdW  Elec       q    Type
REMARK                         _______ _______ _______ _____ _____    ______ ____
ROOT
ATOM      1  C   UNL     1       3.549   5.488 -12.886  0.00  0.00    +0.124 C 
ATOM      2  C   UNL     1       3.134   6.281 -11.392  0.00  0.00    +0.065 C 
ATOM      3  C   UNL     1       1.567   5.866 -11.380  0.00  0.00    +0.237 C 
ATOM      4  C   UNL     1       1.200   5.160 -10.169  0.00  0.00    +0.207 C 
ATOM      5  C   UNL     1       1.813   5.090  -9.025  0.00  0.00    +0.057 C 
ATOM      6  C   UNL     1       3.265   5.832  -9.104  0.00  0.00    +0.060 C 
ATOM      7  C   UNL     1       3.980   4.718  -8.101  0.00  0.00    +0.149 C 
ATOM      8  O   UNL     1       3.514   3.505  -8.459  0.00  0.00    -0.221 OA
ATOM      9  C   UNL     1       5.454   4.918  -8.239  0.00  0.00    +0.038 C 
ATOM     10  C   UNL     1       3.470   5.247  -6.792  0.00  0.00    +0.012 A 
ATOM     11  C   UNL     1       2.121   5.535  -6.605  0.00  0.00    +0.076 A 
ATOM     12  C   UNL     1       1.686   6.368  -5.574  0.00  0.00    +0.198 A 
ATOM     13  C   UNL     1       2.608   7.178  -4.917  0.00  0.00    +0.042 A 
ATOM     14  C   UNL     1       3.905   7.198  -5.399  0.00  0.00    +0.003 A 
ATOM     15  O   UNL     1       0.352   6.787  -5.545  0.00  0.00    -0.286 OA
ATOM     16  C   UNL     1       4.342   6.103  -6.123  0.00  0.00    -0.002 A 
ATOM     17  C   UNL     1       1.212   5.175  -7.710  0.00  0.00    +0.197 C 
ATOM     18  O   UNL     1      -0.021   5.394  -7.636  0.00  0.00    -0.287 OA
ATOM     19  O   UNL     1      -0.178   4.928 -10.083  0.00  0.00    -0.289 OA
ATOM     20  O   UNL     1       1.009   7.151 -11.214  0.00  0.00    -0.210 OA
ATOM     21  C   UNL     1       1.146   5.306 -12.633  0.00  0.00    +0.215 C 
ATOM     22  O   UNL     1       0.134   4.584 -12.634  0.00  0.00    -0.288 OA
ATOM     23  C   UNL     1       1.469   6.065 -13.853  0.00  0.00    +0.130 C 
ATOM     24  C   UNL     1       3.621   4.988 -10.496  0.00  0.00    +0.012 C 
ATOM     25  C   UNL     1       2.706   6.568 -13.776  0.00  0.00    +0.195 C 
ATOM     26  O   UNL     1       3.294   6.862 -15.012  0.00  0.00    -0.290 OA
ENDROOT
BRANCH   1  28
ATOM     27  C   UNL     1       5.444   5.779 -14.252  0.00  0.00    +0.090 C 
ATOM     28  N   UNL     1       4.891   6.326 -13.034  0.00  0.00    -0.265 NA
ATOM     29  C   UNL     1       5.740   5.941 -11.961  0.00  0.00    +0.090 C 
ENDBRANCH   1  28
BRANCH  23  30
ATOM     30  C   UNL     1       0.625   6.117 -15.024  0.00  0.00    +0.290 C 
ATOM     31  O   UNL     1       0.073   5.049 -15.404  0.00  0.00    -0.266 OA
ATOM     32  N   UNL     1      -0.097   7.334 -15.250  0.00  0.00    -0.084 NA
ENDBRANCH  23  30
TORSDOF 2
ENDMDL
MODEL 6
REMARK VINA RESULT:      -7.9      3.863      8.566
REMARK  Name = 
REMARK  2 active torsions:
REMARK  status: ('A' for Active; 'I' for Inactive)
REMARK    1  A    between atoms: N_2  and  C_4
REMARK    2  A    between atoms: C_7  and  C_8
REMARK                            x       y       z     vdW  Elec       q    Type
REMARK                         _______ _______ _______ _____ _____    ______ ____
ROOT
ATOM      1  C   UNL     1      -1.009   6.363  -2.341  0.00  0.00    +0.124 C 
ATOM      2  C   UNL     1       0.145   6.852  -3.550  0.00  0.00    +0.065 C 
ATOM      3  C   UNL     1       1.467   6.306  -2.788  0.00  0.00    +0.237 C 
ATOM      4  C   UNL     1       2.222   5.376  -3.604  0.00  0.00    +0.207 C 
ATOM      5  C   UNL     1       2.180   5.168  -4.887  0.00  0.00    +0.057 C 
ATOM      6  C   UNL     1       0.980   6.035  -5.572  0.00  0.00    +0.060 C 
ATOM      7  C   UNL     1       0.624   4.834  -6.662  0.00  0.00    +0.149 C 
ATOM      8  O   UNL     1       0.687   3.663  -5.998  0.00  0.00    -0.221 OA
ATOM      9  C   UNL     1      -0.706   5.182  -7.247  0.00  0.00    +0.038 C 
ATOM     10  C   UNL     1       1.738   5.088  -7.635  0.00  0.00    +0.012 A 
ATOM     11  C   UNL     1       3.056   5.221  -7.206  0.00  0.00    +0.076 A 
ATOM     12  C   UNL     1       4.028   5.826  -8.002  0.00  0.00    +0.198 A 
ATOM     13  C   UNL     1       3.633   6.590  -9.097  0.00  0.00    +0.042 A 
ATOM     14  C   UNL     1       2.278   6.804  -9.277  0.00  0.00    +0.003 A 
ATOM     15  O   UNL     1       5.283   6.117  -7.456  0.00  0.00    -0.286 OA
ATOM     16  C   UNL     1       1.401   5.890  -8.722  0.00  0.00    -0.002 A 
ATOM     17  C   UNL     1       3.309   4.975  -5.773  0.00  0.00    +0.197 C 
ATOM     18  O   UNL     1       4.463   5.071  -5.290  0.00  0.00    -0.287 OA
ATOM     19  O   UNL     1       3.439   5.014  -3.015  0.00  0.00    -0.289 OA
ATOM     20  O   UNL     1       2.233   7.492  -2.817  0.00  0.00    -0.210 OA
ATOM     21  C   UNL     1       1.193   5.932  -1.429  0.00  0.00    +0.215 C 
ATOM     22  O   UNL     1       1.974   5.135  -0.879  0.00  0.00    -0.288 OA
ATOM     23  C   UNL     1       0.484   6.912  -0.590  0.00  0.00    +0.130 C 
ATOM     24  C   UNL     1      -0.085   5.474  -4.420  0.00  0.00    +0.012 C 
ATOM     25  C   UNL     1      -0.495   7.501  -1.287  0.00  0.00    +0.195 C 
ATOM     26  O   UNL     1      -1.519   8.050  -0.506  0.00  0.00    -0.290 OA
ENDROOT
BRANCH   1  28
ATOM     27  C   UNL     1      -3.307   6.864  -2.230  0.00  0.00    +0.090 C 
ATOM     28  N   UNL     1      -2.128   7.328  -2.926  0.00  0.00    -0.265 NA
ATOM     29  C   UNL     1      -2.281   7.000  -4.300  0.00  0.00    +0.090 C 
ENDBRANCH   1  28
BRANCH  23  30
ATOM     30  C   UNL     1       0.714   7.088   0.825  0.00  0.00    +0.290 C 
ATOM     31  O   UNL     1       0.079   6.348   1.625  0.00  0.00    -0.266 OA
ATOM     32  N   UNL     1       2.029   7.492   1.223  0.00  0.00    -0.084 NA
ENDBRANCH  23  30
TORSDOF 2
ENDMDL
MODEL 7
REMARK VINA RESULT:      -7.0      3.937      6.775
REMARK  Name = 
REMARK  2 active torsions:
REMARK  status: ('A' for Active; 'I' for Inactive)
REMARK    1  A    between atoms: N_2  and  C_4
REMARK    2  A    between atoms: C_7  and  C_8
REMARK                            x       y       z     vdW  Elec       q    Type
REMARK                         _______ _______ _______ _____ _____    ______ ____
ROOT
ATOM      1  C   UNL     1       0.751   4.905  -5.039  0.00  0.00    +0.124 C 
ATOM      2  C   UNL     1       1.031   6.293  -4.027  0.00  0.00    +0.065 C 
ATOM      3  C   UNL     1      -0.450   6.355  -3.370  0.00  0.00    +0.237 C 
ATOM      4  C   UNL     1      -0.406   6.301  -1.922  0.00  0.00    +0.207 C 
ATOM      5  C   UNL     1       0.584   6.516  -1.108  0.00  0.00    +0.057 C 
ATOM      6  C   UNL     1       1.970   6.747  -1.937  0.00  0.00    +0.060 C 
ATOM      7  C   UNL     1       2.881   5.959  -0.793  0.00  0.00    +0.149 C 
ATOM      8  O   UNL     1       2.179   4.877  -0.403  0.00  0.00    -0.221 OA
ATOM      9  C   UNL     1       4.204   5.684  -1.431  0.00  0.00    +0.038 C 
ATOM     10  C   UNL     1       2.973   7.069   0.212  0.00  0.00    +0.012 A 
ATOM     11  C   UNL     1       1.838   7.761   0.631  0.00  0.00    +0.076 A 
ATOM     12  C   UNL     1       1.927   9.011   1.243  0.00  0.00    +0.198 A 
ATOM     13  C   UNL     1       3.116   9.730   1.155  0.00  0.00    +0.042 A 
ATOM     14  C   UNL     1       4.125   9.211   0.363  0.00  0.00    +0.003 A 
ATOM     15  O   UNL     1       0.762   9.753   1.465  0.00  0.00    -0.286 OA
ATOM     16  C   UNL     1       4.125   7.848   0.129  0.00  0.00    -0.002 A 
ATOM     17  C   UNL     1       0.542   7.261   0.133  0.00  0.00    +0.197 C 
ATOM     18  O   UNL     1      -0.536   7.817   0.454  0.00  0.00    -0.287 OA
ATOM     19  O   UNL     1      -1.665   6.502  -1.342  0.00  0.00    -0.289 OA
ATOM     20  O   UNL     1      -0.752   7.704  -3.656  0.00  0.00    -0.210 OA
ATOM     21  C   UNL     1      -1.377   5.491  -4.044  0.00  0.00    +0.215 C 
ATOM     22  O   UNL     1      -2.389   5.128  -3.418  0.00  0.00    -0.288 OA
ATOM     23  C   UNL     1      -1.459   5.602  -5.509  0.00  0.00    +0.130 C 
ATOM     24  C   UNL     1       1.670   5.369  -2.825  0.00  0.00    +0.012 C 
ATOM     25  C   UNL     1      -0.238   5.741  -6.036  0.00  0.00    +0.195 C 
ATOM     26  O   UNL     1      -0.135   5.363  -7.380  0.00  0.00    -0.290 OA
ENDROOT
BRANCH   1  28
ATOM     27  C   UNL     1       2.108   4.035  -6.756  0.00  0.00    +0.090 C 
ATOM     28  N   UNL     1       2.022   5.224  -5.939  0.00  0.00    -0.265 NA
ATOM     29  C   UNL     1       3.150   5.236  -5.073  0.00  0.00    +0.090 C 
ENDBRANCH   1  28
BRANCH  23  30
ATOM     30  C   UNL     1      -2.674   5.423  -6.271  0.00  0.00    +0.290 C 
ATOM     31  O   UNL     1      -3.405   4.434  -5.996  0.00  0.00    -0.266 OA
ATOM     32  N   UNL     1      -3.335   6.610  -6.725  0.00  0.00    -0.084 NA
ENDBRANCH  23  30
TORSDOF 2
ENDMDL
MODEL 8
REMARK VINA RESULT:      -7.0      2.767      8.162
REMARK  Name = 
REMARK  2 active torsions:
REMARK  status: ('A' for Active; 'I' for Inactive)
REMARK    1  A    between atoms: N_2  and  C_4
REMARK    2  A    between atoms: C_7  and  C_8
REMARK                            x       y       z     vdW  Elec       q    Type
REMARK                         _______ _______ _______ _____ _____    ______ ____
ROOT
ATOM      1  C   UNL     1       1.725   5.485  -9.442  0.00  0.00    +0.124 C 
ATOM      2  C   UNL     1       2.447   6.525 -10.636  0.00  0.00    +0.065 C 
ATOM      3  C   UNL     1       3.986   6.094 -10.365  0.00  0.00    +0.237 C 
ATOM      4  C   UNL     1       4.636   5.611 -11.566  0.00  0.00    +0.207 C 
ATOM      5  C   UNL     1       4.302   5.757 -12.813  0.00  0.00    +0.057 C 
ATOM      6  C   UNL     1       2.851   6.496 -12.936  0.00  0.00    +0.060 C 
ATOM      7  C   UNL     1       2.411   5.592 -14.258  0.00  0.00    +0.149 C 
ATOM      8  O   UNL     1       2.814   4.327 -14.026  0.00  0.00    -0.221 OA
ATOM      9  C   UNL     1       0.940   5.788 -14.427  0.00  0.00    +0.038 C 
ATOM     10  C   UNL     1       3.191   6.338 -15.300  0.00  0.00    +0.012 A 
ATOM     11  C   UNL     1       4.541   6.634 -15.121  0.00  0.00    +0.076 A 
ATOM     12  C   UNL     1       5.177   7.630 -15.860  0.00  0.00    +0.198 A 
ATOM     13  C   UNL     1       4.408   8.560 -16.555  0.00  0.00    +0.042 A 
ATOM     14  C   UNL     1       3.035   8.514 -16.386  0.00  0.00    +0.003 A 
ATOM     15  O   UNL     1       6.472   8.027 -15.509  0.00  0.00    -0.286 OA
ATOM     16  C   UNL     1       2.473   7.314 -15.988  0.00  0.00    -0.002 A 
ATOM     17  C   UNL     1       5.183   6.066 -13.920  0.00  0.00    +0.197 C 
ATOM     18  O   UNL     1       6.395   6.275 -13.670  0.00  0.00    -0.287 OA
ATOM     19  O   UNL     1       6.004   5.376 -11.376  0.00  0.00    -0.289 OA
ATOM     20  O   UNL     1       4.535   7.380 -10.168  0.00  0.00    -0.210 OA
ATOM     21  C   UNL     1       4.125   5.312  -9.169  0.00  0.00    +0.215 C 
ATOM     22  O   UNL     1       5.129   4.585  -9.066  0.00  0.00    -0.288 OA
ATOM     23  C   UNL     1       3.515   5.845  -7.940  0.00  0.00    +0.130 C 
ATOM     24  C   UNL     1       2.210   5.422 -11.835  0.00  0.00    +0.012 C 
ATOM     25  C   UNL     1       2.316   6.374  -8.206  0.00  0.00    +0.195 C 
ATOM     26  O   UNL     1       1.454   6.451  -7.104  0.00  0.00    -0.290 OA
ENDROOT
BRANCH   1  28
ATOM     27  C   UNL     1      -0.443   5.550  -8.525  0.00  0.00    +0.090 C 
ATOM     28  N   UNL     1       0.363   6.305  -9.457  0.00  0.00    -0.265 NA
ATOM     29  C   UNL     1      -0.205   6.141 -10.750  0.00  0.00    +0.090 C 
ENDBRANCH   1  28
BRANCH  23  30
ATOM     30  C   UNL     1       4.069   5.673  -6.616  0.00  0.00    +0.290 C 
ATOM     31  O   UNL     1       4.469   6.701  -6.004  0.00  0.00    -0.266 OA
ATOM     32  N   UNL     1       3.526   4.615  -5.818  0.00  0.00    -0.084 NA
ENDBRANCH  23  30
TORSDOF 2
ENDMDL
MODEL 9
REMARK VINA RESULT:      -6.5      4.971      9.379
REMARK  Name = 
REMARK  2 active torsions:
REMARK  status: ('A' for Active; 'I' for Inactive)
REMARK    1  A    between atoms: N_2  and  C_4
REMARK    2  A    between atoms: C_7  and  C_8
REMARK                            x       y       z     vdW  Elec       q    Type
REMARK                         _______ _______ _______ _____ _____    ______ ____
ROOT
ATOM      1  C   UNL     1       1.645   7.215   0.141  0.00  0.00    +0.124 C 
ATOM      2  C   UNL     1       2.132   7.517  -1.503  0.00  0.00    +0.065 C 
ATOM      3  C   UNL     1       3.551   6.735  -1.432  0.00  0.00    +0.237 C 
ATOM      4  C   UNL     1       3.655   5.703  -2.443  0.00  0.00    +0.207 C 
ATOM      5  C   UNL     1       2.966   5.527  -3.531  0.00  0.00    +0.057 C 
ATOM      6  C   UNL     1       1.741   6.603  -3.616  0.00  0.00    +0.060 C 
ATOM      7  C   UNL     1       0.714   5.502  -4.317  0.00  0.00    +0.149 C 
ATOM      8  O   UNL     1       0.901   4.326  -3.685  0.00  0.00    -0.221 OA
ATOM      9  C   UNL     1      -0.656   6.087  -4.216  0.00  0.00    +0.038 C 
ATOM     10  C   UNL     1       1.244   5.574  -5.719  0.00  0.00    +0.012 A 
ATOM     11  C   UNL     1       2.607   5.469  -5.984  0.00  0.00    +0.076 A 
ATOM     12  C   UNL     1       3.155   5.909  -7.188  0.00  0.00    +0.198 A 
ATOM     13  C   UNL     1       2.410   6.750  -8.010  0.00  0.00    +0.042 A 
ATOM     14  C   UNL     1       1.191   7.199  -7.533  0.00  0.00    +0.003 A 
ATOM     15  O   UNL     1       4.546   5.967  -7.331  0.00  0.00    -0.286 OA
ATOM     16  C   UNL     1       0.557   6.443  -6.565  0.00  0.00    -0.002 A 
ATOM     17  C   UNL     1       3.478   5.157  -4.835  0.00  0.00    +0.197 C 
ATOM     18  O   UNL     1       4.720   5.042  -4.971  0.00  0.00    -0.287 OA
ATOM     19  O   UNL     1       4.929   5.124  -2.486  0.00  0.00    -0.289 OA
ATOM     20  O   UNL     1       4.386   7.769  -1.906  0.00  0.00    -0.210 OA
ATOM     21  C   UNL     1       3.912   6.391  -0.086  0.00  0.00    +0.215 C 
ATOM     22  O   UNL     1       4.721   5.461   0.077  0.00  0.00    -0.288 OA
ATOM     23  C   UNL     1       3.864   7.464   0.921  0.00  0.00    +0.130 C 
ATOM     24  C   UNL     1       1.292   6.215  -2.059  0.00  0.00    +0.012 C 
ATOM     25  C   UNL     1       2.780   8.227   0.739  0.00  0.00    +0.195 C 
ATOM     26  O   UNL     1       2.365   8.932   1.875  0.00  0.00    -0.290 OA
ENDROOT
BRANCH   1  28
ATOM     27  C   UNL     1       0.338   8.619   1.506  0.00  0.00    +0.090 C 
ATOM     28  N   UNL     1       0.555   8.370   0.099  0.00  0.00    -0.265 NA
ATOM     29  C   UNL     1      -0.635   7.797  -0.427  0.00  0.00    +0.090 C 
ENDBRANCH   1  28
BRANCH  23  30
ATOM     30  C   UNL     1       4.775   7.573   2.037  0.00  0.00    +0.290 C 
ATOM     31  O   UNL     1       4.605   6.798   3.017  0.00  0.00    -0.266 OA
ATOM     32  N   UNL     1       6.124   7.953   1.739  0.00  0.00    -0.084 NA
ENDBRANCH  23  30
TORSDOF 2
ENDMDL
