MODEL 1
REMARK VINA RESULT:      -7.8      0.000      0.000
REMARK  Name = 
REMARK  10 active torsions:
REMARK  status: ('A' for Active; 'I' for Inactive)
REMARK    1  A    between atoms: O_2  and  C_3
REMARK    2  A    between atoms: C_3  and  C_4
REMARK    3  A    between atoms: C_4  and  O_5
REMARK    4  A    between atoms: O_5  and  C_6
REMARK    5  A    between atoms: C_6  and  C_8
REMARK    6  A    between atoms: C_14  and  C_15
REMARK    7  A    between atoms: C_15  and  O_17
REMARK    8  A    between atoms: O_17  and  C_18
REMARK    9  A    between atoms: C_21  and  C_22
REMARK   10  A    between atoms: C_26  and  N_27
REMARK                            x       y       z     vdW  Elec       q    Type
REMARK                         _______ _______ _______ _____ _____    ______ ____
ROOT
ATOM      1  C   UNL     1       2.575   5.322  -7.259  0.00  0.00    +0.073 C 
ATOM      2  C   UNL     1       2.239   4.600  -5.860  0.00  0.00    +0.082 C 
ATOM      3  C   UNL     1       3.107   5.541  -4.885  0.00  0.00    +0.073 C 
ATOM      4  C   UNL     1       3.020   6.826  -5.011  0.00  0.00    +0.051 C 
ATOM      5  C   UNL     1       3.582   7.663  -3.898  0.00  0.00    +0.049 C 
ATOM      6  N   UNL     1       3.203   7.278  -6.362  0.00  0.00    -0.221 NA
ATOM      7  C   UNL     1       3.509   6.227  -7.294  0.00  0.00    +0.051 C 
ATOM      8  C   UNL     1       4.176   6.512  -8.605  0.00  0.00    +0.049 C 
ENDROOT
BRANCH   2   9
ATOM      9  C   UNL     1       0.878   5.450  -5.650  0.00  0.00    -0.008 A 
ATOM     10  C   UNL     1       0.402   5.432  -4.340  0.00  0.00    +0.072 A 
ATOM     11  C   UNL     1      -0.942   5.708  -4.112  0.00  0.00    +0.290 A 
ATOM     12  C   UNL     1      -1.780   5.826  -5.213  0.00  0.00    +0.075 A 
ATOM     13  C   UNL     1      -1.388   5.337  -6.448  0.00  0.00    +0.006 A 
ATOM     14  C   UNL     1      -0.058   4.952  -6.553  0.00  0.00    -0.003 A 
BRANCH  11  15
ATOM     15  N   UNL     1      -1.549   5.523  -2.828  0.00  0.00    +0.081 N 
ATOM     16  O   UNL     1      -2.669   4.713  -2.809  0.00  0.00    -0.576 OA
ATOM     17  O   UNL     1      -1.610   6.529  -2.075  0.00  0.00    +0.041 OA
ENDBRANCH  11  15
ENDBRANCH   2   9
BRANCH   1  18
ATOM     18  C   UNL     1       2.108   4.584  -8.444  0.00  0.00    +0.339 C 
ATOM     19  O   UNL     1       2.311   3.332  -8.518  0.00  0.00    -0.245 OA
BRANCH  18  20
ATOM     20  O   UNL     1       0.972   4.969  -9.167  0.00  0.00    -0.443 OA
BRANCH  20  21
ATOM     21  C   UNL     1       0.936   4.978 -10.584  0.00  0.00    +0.241 C 
BRANCH  21  22
ATOM     22  C   UNL     1       1.280   6.293 -11.199  0.00  0.00    +0.190 C 
BRANCH  22  24
ATOM     23  C   UNL     1      -0.616   7.561 -11.582  0.00  0.00    +0.174 C 
ATOM     24  O   UNL     1       0.384   7.235 -10.666  0.00  0.00    -0.347 OA
ENDBRANCH  22  24
ENDBRANCH  21  22
ENDBRANCH  20  21
ENDBRANCH  18  20
ENDBRANCH   1  18
BRANCH   3  25
ATOM     25  C   UNL     1       3.961   4.826  -3.934  0.00  0.00    +0.339 C 
ATOM     26  O   UNL     1       5.212   4.952  -4.100  0.00  0.00    -0.245 OA
BRANCH  25  27
ATOM     27  O   UNL     1       3.535   4.358  -2.713  0.00  0.00    -0.449 OA
BRANCH  27  28
ATOM     28  C   UNL     1       3.121   5.310  -1.735  0.00  0.00    +0.169 C 
ATOM     29  C   UNL     1       4.214   5.608  -0.741  0.00  0.00    +0.047 C 
ATOM     30  C   UNL     1       1.868   4.841  -1.032  0.00  0.00    +0.047 C 
ENDBRANCH  27  28
ENDBRANCH  25  27
ENDBRANCH   3  25
TORSDOF 10
ENDMDL
MODEL 2
REMARK VINA RESULT:      -7.2      2.932      8.204
REMARK  Name = 
REMARK  10 active torsions:
REMARK  status: ('A' for Active; 'I' for Inactive)
REMARK    1  A    between atoms: O_2  and  C_3
REMARK    2  A    between atoms: C_3  and  C_4
REMARK    3  A    between atoms: C_4  and  O_5
REMARK    4  A    between atoms: O_5  and  C_6
REMARK    5  A    between atoms: C_6  and  C_8
REMARK    6  A    between atoms: C_14  and  C_15
REMARK    7  A    between atoms: C_15  and  O_17
REMARK    8  A    between atoms: O_17  and  C_18
REMARK    9  A    between atoms: C_21  and  C_22
REMARK   10  A    between atoms: C_26  and  N_27
REMARK                            x       y       z     vdW  Elec       q    Type
REMARK                         _______ _______ _______ _____ _____    ______ ____
ROOT
ATOM      1  C   UNL     1       1.861   5.214  -7.874  0.00  0.00    +0.073 C 
ATOM      2  C   UNL     1       2.184   4.431  -9.244  0.00  0.00    +0.082 C 
ATOM      3  C   UNL     1       1.255   5.288 -10.240  0.00  0.00    +0.073 C 
ATOM      4  C   UNL     1       1.299   6.580 -10.184  0.00  0.00    +0.051 C 
ATOM      5  C   UNL     1       0.676   7.336 -11.322  0.00  0.00    +0.049 C 
ATOM      6  N   UNL     1       1.138   7.097  -8.854  0.00  0.00    -0.221 NA
ATOM      7  C   UNL     1       0.897   6.087  -7.859  0.00  0.00    +0.051 C 
ATOM      8  C   UNL     1       0.257   6.418  -6.545  0.00  0.00    +0.049 C 
ENDROOT
BRANCH   2   9
ATOM      9  C   UNL     1       3.506   5.315  -9.538  0.00  0.00    -0.008 A 
ATOM     10  C   UNL     1       3.952   5.236 -10.857  0.00  0.00    +0.072 A 
ATOM     11  C   UNL     1       5.278   5.546 -11.136  0.00  0.00    +0.290 A 
ATOM     12  C   UNL     1       6.138   5.759 -10.066  0.00  0.00    +0.075 A 
ATOM     13  C   UNL     1       5.794   5.331  -8.795  0.00  0.00    +0.006 A 
ATOM     14  C   UNL     1       4.481   4.905  -8.633  0.00  0.00    -0.003 A 
BRANCH  11  15
ATOM     15  N   UNL     1       5.861   5.307 -12.423  0.00  0.00    +0.081 N 
ATOM     16  O   UNL     1       5.048   4.657 -13.333  0.00  0.00    -0.576 OA
ATOM     17  O   UNL     1       7.068   4.958 -12.447  0.00  0.00    +0.041 OA
ENDBRANCH  11  15
ENDBRANCH   2   9
BRANCH   1  18
ATOM     18  C   UNL     1       2.388   4.557  -6.667  0.00  0.00    +0.339 C 
ATOM     19  O   UNL     1       2.328   3.291  -6.571  0.00  0.00    -0.245 OA
BRANCH  18  20
ATOM     20  O   UNL     1       3.459   5.083  -5.933  0.00  0.00    -0.443 OA
BRANCH  20  21
ATOM     21  C   UNL     1       3.334   5.477  -4.578  0.00  0.00    +0.241 C 
BRANCH  21  22
ATOM     22  C   UNL     1       3.066   6.931  -4.383  0.00  0.00    +0.190 C 
BRANCH  22  24
ATOM     23  C   UNL     1       5.214   7.775  -4.222  0.00  0.00    +0.174 C 
ATOM     24  O   UNL     1       4.095   7.625  -5.042  0.00  0.00    -0.347 OA
ENDBRANCH  22  24
ENDBRANCH  21  22
ENDBRANCH  20  21
ENDBRANCH  18  20
ENDBRANCH   1  18
BRANCH   3  25
ATOM     25  C   UNL     1       0.401   4.495 -11.126  0.00  0.00    +0.339 C 
ATOM     26  O   UNL     1      -0.372   3.663 -10.562  0.00  0.00    -0.245 OA
BRANCH  25  27
ATOM     27  O   UNL     1       0.118   4.829 -12.430  0.00  0.00    -0.449 OA
BRANCH  27  28
ATOM     28  C   UNL     1       0.983   4.340 -13.452  0.00  0.00    +0.169 C 
ATOM     29  C   UNL     1       1.754   5.451 -14.117  0.00  0.00    +0.047 C 
ATOM     30  C   UNL     1       0.206   3.540 -14.471  0.00  0.00    +0.047 C 
ENDBRANCH  27  28
ENDBRANCH  25  27
ENDBRANCH   3  25
TORSDOF 10
ENDMDL
MODEL 3
REMARK VINA RESULT:      -7.0      2.437      5.723
REMARK  Name = 
REMARK  10 active torsions:
REMARK  status: ('A' for Active; 'I' for Inactive)
REMARK    1  A    between atoms: O_2  and  C_3
REMARK    2  A    between atoms: C_3  and  C_4
REMARK    3  A    between atoms: C_4  and  O_5
REMARK    4  A    between atoms: O_5  and  C_6
REMARK    5  A    between atoms: C_6  and  C_8
REMARK    6  A    between atoms: C_14  and  C_15
REMARK    7  A    between atoms: C_15  and  O_17
REMARK    8  A    between atoms: O_17  and  C_18
REMARK    9  A    between atoms: C_21  and  C_22
REMARK   10  A    between atoms: C_26  and  N_27
REMARK                            x       y       z     vdW  Elec       q    Type
REMARK                         _______ _______ _______ _____ _____    ______ ____
ROOT
ATOM      1  C   UNL     1       1.001   6.211  -4.207  0.00  0.00    +0.073 C 
ATOM      2  C   UNL     1       2.053   7.177  -4.953  0.00  0.00    +0.082 C 
ATOM      3  C   UNL     1       3.400   6.673  -4.231  0.00  0.00    +0.073 C 
ATOM      4  C   UNL     1       3.619   5.402  -4.126  0.00  0.00    +0.051 C 
ATOM      5  C   UNL     1       5.007   4.976  -3.745  0.00  0.00    +0.049 C 
ATOM      6  N   UNL     1       2.509   4.678  -3.573  0.00  0.00    -0.221 NA
ATOM      7  C   UNL     1       1.401   5.511  -3.188  0.00  0.00    +0.051 C 
ATOM      8  C   UNL     1       0.377   5.043  -2.198  0.00  0.00    +0.049 C 
ENDROOT
BRANCH   2   9
ATOM      9  C   UNL     1       2.217   6.170  -6.208  0.00  0.00    -0.008 A 
ATOM     10  C   UNL     1       3.452   6.269  -6.849  0.00  0.00    +0.072 A 
ATOM     11  C   UNL     1       3.561   5.830  -8.164  0.00  0.00    +0.290 A 
ATOM     12  C   UNL     1       2.398   5.467  -8.830  0.00  0.00    +0.075 A 
ATOM     13  C   UNL     1       1.161   5.863  -8.347  0.00  0.00    +0.006 A 
ATOM     14  C   UNL     1       1.158   6.421  -7.075  0.00  0.00    -0.003 A 
BRANCH  11  15
ATOM     15  N   UNL     1       4.734   6.072  -8.951  0.00  0.00    +0.081 N 
ATOM     16  O   UNL     1       4.506   6.383 -10.279  0.00  0.00    -0.576 OA
ATOM     17  O   UNL     1       5.724   5.326  -8.744  0.00  0.00    +0.041 OA
ENDBRANCH  11  15
ENDBRANCH   2   9
BRANCH   1  18
ATOM     18  C   UNL     1      -0.409   6.544  -4.468  0.00  0.00    +0.339 C 
ATOM     19  O   UNL     1      -0.733   7.751  -4.694  0.00  0.00    -0.245 OA
BRANCH  18  20
ATOM     20  O   UNL     1      -1.289   5.646  -5.087  0.00  0.00    -0.443 OA
BRANCH  20  21
ATOM     21  C   UNL     1      -2.687   5.667  -4.855  0.00  0.00    +0.241 C 
BRANCH  21  22
ATOM     22  C   UNL     1      -3.090   5.237  -3.485  0.00  0.00    +0.190 C 
BRANCH  22  24
ATOM     23  C   UNL     1      -2.893   6.807  -1.798  0.00  0.00    +0.174 C 
ATOM     24  O   UNL     1      -3.671   6.355  -2.864  0.00  0.00    -0.347 OA
ENDBRANCH  22  24
ENDBRANCH  21  22
ENDBRANCH  20  21
ENDBRANCH  18  20
ENDBRANCH   1  18
BRANCH   3  25
ATOM     25  C   UNL     1       4.265   7.739  -3.722  0.00  0.00    +0.339 C 
ATOM     26  O   UNL     1       5.128   8.195  -4.531  0.00  0.00    -0.245 OA
BRANCH  25  27
ATOM     27  O   UNL     1       3.980   8.503  -2.614  0.00  0.00    -0.449 OA
BRANCH  27  28
ATOM     28  C   UNL     1       3.636   7.832  -1.405  0.00  0.00    +0.169 C 
ATOM     29  C   UNL     1       3.085   8.779  -0.370  0.00  0.00    +0.047 C 
ATOM     30  C   UNL     1       4.825   7.073  -0.860  0.00  0.00    +0.047 C 
ENDBRANCH  27  28
ENDBRANCH  25  27
ENDBRANCH   3  25
TORSDOF 10
ENDMDL
MODEL 4
REMARK VINA RESULT:      -6.8      2.470      4.977
REMARK  Name = 
REMARK  10 active torsions:
REMARK  status: ('A' for Active; 'I' for Inactive)
REMARK    1  A    between atoms: O_2  and  C_3
REMARK    2  A    between atoms: C_3  and  C_4
REMARK    3  A    between atoms: C_4  and  O_5
REMARK    4  A    between atoms: O_5  and  C_6
REMARK    5  A    between atoms: C_6  and  C_8
REMARK    6  A    between atoms: C_14  and  C_15
REMARK    7  A    between atoms: C_15  and  O_17
REMARK    8  A    between atoms: O_17  and  C_18
REMARK    9  A    between atoms: C_21  and  C_22
REMARK   10  A    between atoms: C_26  and  N_27
REMARK                            x       y       z     vdW  Elec       q    Type
REMARK                         _______ _______ _______ _____ _____    ______ ____
ROOT
ATOM      1  C   UNL     1       0.898   6.608  -6.966  0.00  0.00    +0.073 C 
ATOM      2  C   UNL     1       0.691   7.352  -5.552  0.00  0.00    +0.082 C 
ATOM      3  C   UNL     1      -0.723   6.704  -5.140  0.00  0.00    +0.073 C 
ATOM      4  C   UNL     1      -0.884   5.425  -5.251  0.00  0.00    +0.051 C 
ATOM      5  C   UNL     1      -2.079   4.823  -4.569  0.00  0.00    +0.049 C 
ATOM      6  N   UNL     1      -0.508   4.914  -6.540  0.00  0.00    -0.221 NA
ATOM      7  C   UNL     1      -0.087   5.927  -7.470  0.00  0.00    +0.051 C 
ATOM      8  C   UNL     1      -0.104   5.687  -8.949  0.00  0.00    +0.049 C 
ENDROOT
BRANCH   2   9
ATOM      9  C   UNL     1       1.557   6.248  -4.747  0.00  0.00    -0.008 A 
ATOM     10  C   UNL     1       1.171   6.094  -3.416  0.00  0.00    +0.072 A 
ATOM     11  C   UNL     1       2.080   5.554  -2.513  0.00  0.00    +0.290 A 
ATOM     12  C   UNL     1       3.384   5.347  -2.944  0.00  0.00    +0.075 A 
ATOM     13  C   UNL     1       3.853   5.977  -4.084  0.00  0.00    +0.006 A 
ATOM     14  C   UNL     1       2.895   6.614  -4.863  0.00  0.00    -0.003 A 
BRANCH  11  15
ATOM     15  N   UNL     1       1.833   5.540  -1.102  0.00  0.00    +0.081 N 
ATOM     16  O   UNL     1       2.538   6.473  -0.364  0.00  0.00    -0.576 OA
ATOM     17  O   UNL     1       1.710   4.415  -0.555  0.00  0.00    +0.041 OA
ENDBRANCH  11  15
ENDBRANCH   2   9
BRANCH   1  18
ATOM     18  C   UNL     1       2.024   7.129  -7.760  0.00  0.00    +0.339 C 
ATOM     19  O   UNL     1       2.241   8.380  -7.786  0.00  0.00    -0.245 OA
BRANCH  18  20
ATOM     20  O   UNL     1       3.198   6.394  -7.966  0.00  0.00    -0.443 OA
BRANCH  20  21
ATOM     21  C   UNL     1       3.514   5.797  -9.212  0.00  0.00    +0.241 C 
BRANCH  21  22
ATOM     22  C   UNL     1       4.842   6.193  -9.765  0.00  0.00    +0.190 C 
BRANCH  22  24
ATOM     23  C   UNL     1       7.096   5.757  -9.485  0.00  0.00    +0.174 C 
ATOM     24  O   UNL     1       5.816   5.579  -8.959  0.00  0.00    -0.347 OA
ENDBRANCH  22  24
ENDBRANCH  21  22
ENDBRANCH  20  21
ENDBRANCH  18  20
ENDBRANCH   1  18
BRANCH   3  25
ATOM     25  C   UNL     1      -1.735   7.662  -4.690  0.00  0.00    +0.339 C 
ATOM     26  O   UNL     1      -2.745   7.806  -5.442  0.00  0.00    -0.245 OA
BRANCH  25  27
ATOM     27  O   UNL     1      -1.847   8.115  -3.396  0.00  0.00    -0.449 OA
BRANCH  27  28
ATOM     28  C   UNL     1      -2.060   7.156  -2.363  0.00  0.00    +0.169 C 
ATOM     29  C   UNL     1      -3.500   6.721  -2.285  0.00  0.00    +0.047 C 
ATOM     30  C   UNL     1      -1.587   7.692  -1.032  0.00  0.00    +0.047 C 
ENDBRANCH  27  28
ENDBRANCH  25  27
ENDBRANCH   3  25
TORSDOF 10
ENDMDL
MODEL 5
REMARK VINA RESULT:      -6.8      2.370      6.920
REMARK  Name = 
REMARK  10 active torsions:
REMARK  status: ('A' for Active; 'I' for Inactive)
REMARK    1  A    between atoms: O_2  and  C_3
REMARK    2  A    between atoms: C_3  and  C_4
REMARK    3  A    between atoms: C_4  and  O_5
REMARK    4  A    between atoms: O_5  and  C_6
REMARK    5  A    between atoms: C_6  and  C_8
REMARK    6  A    between atoms: C_14  and  C_15
REMARK    7  A    between atoms: C_15  and  O_17
REMARK    8  A    between atoms: O_17  and  C_18
REMARK    9  A    between atoms: C_21  and  C_22
REMARK   10  A    between atoms: C_26  and  N_27
REMARK                            x       y       z     vdW  Elec       q    Type
REMARK                         _______ _______ _______ _____ _____    ______ ____
ROOT
ATOM      1  C   UNL     1      -1.439   6.169  -4.050  0.00  0.00    +0.073 C 
ATOM      2  C   UNL     1      -0.301   5.033  -4.140  0.00  0.00    +0.082 C 
ATOM      3  C   UNL     1       0.545   5.632  -5.371  0.00  0.00    +0.073 C 
ATOM      4  C   UNL     1       0.855   6.888  -5.367  0.00  0.00    +0.051 C 
ATOM      5  C   UNL     1       1.898   7.339  -6.349  0.00  0.00    +0.049 C 
ATOM      6  N   UNL     1      -0.269   7.750  -5.126  0.00  0.00    -0.221 NA
ATOM      7  C   UNL     1      -1.521   7.055  -4.997  0.00  0.00    +0.051 C 
ATOM      8  C   UNL     1      -2.830   7.755  -5.206  0.00  0.00    +0.049 C 
ENDROOT
BRANCH   2   9
ATOM      9  C   UNL     1       0.620   5.746  -3.016  0.00  0.00    -0.008 A 
ATOM     10  C   UNL     1       1.987   5.541  -3.199  0.00  0.00    +0.072 A 
ATOM     11  C   UNL     1       2.837   5.686  -2.108  0.00  0.00    +0.290 A 
ATOM     12  C   UNL     1       2.267   5.864  -0.854  0.00  0.00    +0.075 A 
ATOM     13  C   UNL     1       0.935   5.552  -0.640  0.00  0.00    +0.006 A 
ATOM     14  C   UNL     1       0.184   5.284  -1.777  0.00  0.00    -0.003 A 
BRANCH  11  15
ATOM     15  N   UNL     1       4.219   5.309  -2.166  0.00  0.00    +0.081 N 
ATOM     16  O   UNL     1       4.687   4.949  -3.416  0.00  0.00    -0.576 OA
ATOM     17  O   UNL     1       4.661   4.615  -1.215  0.00  0.00    +0.041 OA
ENDBRANCH  11  15
ENDBRANCH   2   9
BRANCH   1  18
ATOM     18  C   UNL     1      -2.550   5.836  -3.142  0.00  0.00    +0.339 C 
ATOM     19  O   UNL     1      -2.785   4.619  -2.867  0.00  0.00    -0.245 OA
BRANCH  18  20
ATOM     20  O   UNL     1      -2.953   6.690  -2.107  0.00  0.00    -0.443 OA
BRANCH  20  21
ATOM     21  C   UNL     1      -2.084   7.646  -1.526  0.00  0.00    +0.241 C 
BRANCH  21  22
ATOM     22  C   UNL     1      -2.044   7.615  -0.035  0.00  0.00    +0.190 C 
BRANCH  22  24
ATOM     23  C   UNL     1      -1.943   9.198   1.648  0.00  0.00    +0.174 C 
ATOM     24  O   UNL     1      -1.485   8.835   0.381  0.00  0.00    -0.347 OA
ENDBRANCH  22  24
ENDBRANCH  21  22
ENDBRANCH  20  21
ENDBRANCH  18  20
ENDBRANCH   1  18
BRANCH   3  25
ATOM     25  C   UNL     1       0.871   4.669  -6.424  0.00  0.00    +0.339 C 
ATOM     26  O   UNL     1       1.442   3.600  -6.050  0.00  0.00    -0.245 OA
BRANCH  25  27
ATOM     27  O   UNL     1       0.299   4.668  -7.675  0.00  0.00    -0.449 OA
BRANCH  27  28
ATOM     28  C   UNL     1       1.049   5.216  -8.757  0.00  0.00    +0.169 C 
ATOM     29  C   UNL     1       0.209   5.382  -9.997  0.00  0.00    +0.047 C 
ATOM     30  C   UNL     1       2.268   4.370  -9.043  0.00  0.00    +0.047 C 
ENDBRANCH  27  28
ENDBRANCH  25  27
ENDBRANCH   3  25
TORSDOF 10
ENDMDL
MODEL 6
REMARK VINA RESULT:      -6.7      3.651      6.807
REMARK  Name = 
REMARK  10 active torsions:
REMARK  status: ('A' for Active; 'I' for Inactive)
REMARK    1  A    between atoms: O_2  and  C_3
REMARK    2  A    between atoms: C_3  and  C_4
REMARK    3  A    between atoms: C_4  and  O_5
REMARK    4  A    between atoms: O_5  and  C_6
REMARK    5  A    between atoms: C_6  and  C_8
REMARK    6  A    between atoms: C_14  and  C_15
REMARK    7  A    between atoms: C_15  and  O_17
REMARK    8  A    between atoms: O_17  and  C_18
REMARK    9  A    between atoms: C_21  and  C_22
REMARK   10  A    between atoms: C_26  and  N_27
REMARK                            x       y       z     vdW  Elec       q    Type
REMARK                         _______ _______ _______ _____ _____    ______ ____
ROOT
ATOM      1  C   UNL     1       1.458   5.809 -10.982  0.00  0.00    +0.073 C 
ATOM      2  C   UNL     1       2.470   6.690 -10.090  0.00  0.00    +0.082 C 
ATOM      3  C   UNL     1       2.337   5.884  -8.703  0.00  0.00    +0.073 C 
ATOM      4  C   UNL     1       2.412   4.592  -8.718  0.00  0.00    +0.051 C 
ATOM      5  C   UNL     1       2.604   3.903  -7.398  0.00  0.00    +0.049 C 
ATOM      6  N   UNL     1       1.540   3.983  -9.683  0.00  0.00    -0.221 NA
ATOM      7  C   UNL     1       0.713   4.919 -10.397  0.00  0.00    +0.051 C 
ATOM      8  C   UNL     1      -0.549   4.486 -11.079  0.00  0.00    +0.049 C 
ENDROOT
BRANCH   2   9
ATOM      9  C   UNL     1       3.765   5.854 -10.580  0.00  0.00    -0.008 A 
ATOM     10  C   UNL     1       4.885   6.027  -9.767  0.00  0.00    +0.072 A 
ATOM     11  C   UNL     1       6.144   5.763 -10.296  0.00  0.00    +0.290 A 
ATOM     12  C   UNL     1       6.238   5.497 -11.656  0.00  0.00    +0.075 A 
ATOM     13  C   UNL     1       5.201   5.835 -12.509  0.00  0.00    +0.006 A 
ATOM     14  C   UNL     1       4.015   6.223 -11.899  0.00  0.00    -0.003 A 
BRANCH  11  15
ATOM     15  N   UNL     1       7.348   6.097  -9.595  0.00  0.00    +0.081 N 
ATOM     16  O   UNL     1       7.968   7.265  -9.999  0.00  0.00    -0.576 OA
ATOM     17  O   UNL     1       8.128   5.151  -9.318  0.00  0.00    +0.041 OA
ENDBRANCH  11  15
ENDBRANCH   2   9
BRANCH   1  18
ATOM     18  C   UNL     1       1.153   6.393 -12.298  0.00  0.00    +0.339 C 
ATOM     19  O   UNL     1       0.963   7.645 -12.394  0.00  0.00    -0.245 OA
BRANCH  18  20
ATOM     20  O   UNL     1       1.645   5.849 -13.492  0.00  0.00    -0.443 OA
BRANCH  20  21
ATOM     21  C   UNL     1       0.800   5.498 -14.574  0.00  0.00    +0.241 C 
BRANCH  21  22
ATOM     22  C   UNL     1       0.249   6.661 -15.328  0.00  0.00    +0.190 C 
BRANCH  22  24
ATOM     23  C   UNL     1       1.848   8.023 -16.296  0.00  0.00    +0.174 C 
ATOM     24  O   UNL     1       1.089   6.861 -16.436  0.00  0.00    -0.347 OA
ENDBRANCH  22  24
ENDBRANCH  21  22
ENDBRANCH  20  21
ENDBRANCH  18  20
ENDBRANCH   1  18
BRANCH   3  25
ATOM     25  C   UNL     1       2.110   6.719  -7.522  0.00  0.00    +0.339 C 
ATOM     26  O   UNL     1       3.105   7.387  -7.109  0.00  0.00    -0.245 OA
BRANCH  25  27
ATOM     27  O   UNL     1       0.867   7.103  -7.074  0.00  0.00    -0.449 OA
BRANCH  27  28
ATOM     28  C   UNL     1       0.163   6.219  -6.205  0.00  0.00    +0.169 C 
ATOM     29  C   UNL     1      -0.885   5.423  -6.938  0.00  0.00    +0.047 C 
ATOM     30  C   UNL     1      -0.448   6.980  -5.052  0.00  0.00    +0.047 C 
ENDBRANCH  27  28
ENDBRANCH  25  27
ENDBRANCH   3  25
TORSDOF 10
ENDMDL
MODEL 7
REMARK VINA RESULT:      -6.7      2.289      6.402
REMARK  Name = 
REMARK  10 active torsions:
REMARK  status: ('A' for Active; 'I' for Inactive)
REMARK    1  A    between atoms: O_2  and  C_3
REMARK    2  A    between atoms: C_3  and  C_4
REMARK    3  A    between atoms: C_4  and  O_5
REMARK    4  A    between atoms: O_5  and  C_6
REMARK    5  A    between atoms: C_6  and  C_8
REMARK    6  A    between atoms: C_14  and  C_15
REMARK    7  A    between atoms: C_15  and  O_17
REMARK    8  A    between atoms: O_17  and  C_18
REMARK    9  A    between atoms: C_21  and  C_22
REMARK   10  A    between atoms: C_26  and  N_27
REMARK                            x       y       z     vdW  Elec       q    Type
REMARK                         _______ _______ _______ _____ _____    ______ ____
ROOT
ATOM      1  C   UNL     1       3.292   6.136  -4.194  0.00  0.00    +0.073 C 
ATOM      2  C   UNL     1       2.304   6.960  -5.164  0.00  0.00    +0.082 C 
ATOM      3  C   UNL     1       2.490   6.085  -6.502  0.00  0.00    +0.073 C 
ATOM      4  C   UNL     1       2.426   4.796  -6.423  0.00  0.00    +0.051 C 
ATOM      5  C   UNL     1       2.284   4.037  -7.711  0.00  0.00    +0.049 C 
ATOM      6  N   UNL     1       3.270   4.246  -5.399  0.00  0.00    -0.221 NA
ATOM      7  C   UNL     1       4.064   5.225  -4.708  0.00  0.00    +0.051 C 
ATOM      8  C   UNL     1       5.306   4.841  -3.962  0.00  0.00    +0.049 C 
ENDROOT
BRANCH   2   9
ATOM      9  C   UNL     1       1.000   6.137  -4.675  0.00  0.00    -0.008 A 
ATOM     10  C   UNL     1      -0.135   6.372  -5.451  0.00  0.00    +0.072 A 
ATOM     11  C   UNL     1      -1.387   6.117  -4.902  0.00  0.00    +0.290 A 
ATOM     12  C   UNL     1      -1.455   5.799  -3.551  0.00  0.00    +0.075 A 
ATOM     13  C   UNL     1      -0.389   6.076  -2.712  0.00  0.00    +0.006 A 
ATOM     14  C   UNL     1       0.791   6.458  -3.337  0.00  0.00    -0.003 A 
BRANCH  11  15
ATOM     15  N   UNL     1      -2.599   6.509  -5.557  0.00  0.00    +0.081 N 
ATOM     16  O   UNL     1      -2.817   5.938  -6.798  0.00  0.00    -0.576 OA
ATOM     17  O   UNL     1      -2.932   7.717  -5.465  0.00  0.00    +0.041 OA
ENDBRANCH  11  15
ENDBRANCH   2   9
BRANCH   1  18
ATOM     18  C   UNL     1       3.548   6.791  -2.901  0.00  0.00    +0.339 C 
ATOM     19  O   UNL     1       3.587   8.059  -2.841  0.00  0.00    -0.245 OA
BRANCH  18  20
ATOM     20  O   UNL     1       3.146   6.226  -1.682  0.00  0.00    -0.443 OA
BRANCH  20  21
ATOM     21  C   UNL     1       3.487   6.795  -0.431  0.00  0.00    +0.241 C 
BRANCH  21  22
ATOM     22  C   UNL     1       2.355   7.475   0.265  0.00  0.00    +0.190 C 
BRANCH  22  24
ATOM     23  C   UNL     1       0.159   7.111   0.892  0.00  0.00    +0.174 C 
ATOM     24  O   UNL     1       1.304   6.544   0.332  0.00  0.00    -0.347 OA
ENDBRANCH  22  24
ENDBRANCH  21  22
ENDBRANCH  20  21
ENDBRANCH  18  20
ENDBRANCH   1  18
BRANCH   3  25
ATOM     25  C   UNL     1       2.750   6.860  -7.716  0.00  0.00    +0.339 C 
ATOM     26  O   UNL     1       2.205   8.004  -7.779  0.00  0.00    -0.245 OA
BRANCH  25  27
ATOM     27  O   UNL     1       3.788   6.613  -8.585  0.00  0.00    -0.449 OA
BRANCH  27  28
ATOM     28  C   UNL     1       3.619   6.971  -9.954  0.00  0.00    +0.169 C 
ATOM     29  C   UNL     1       2.746   5.988 -10.690  0.00  0.00    +0.047 C 
ATOM     30  C   UNL     1       4.959   7.116 -10.636  0.00  0.00    +0.047 C 
ENDBRANCH  27  28
ENDBRANCH  25  27
ENDBRANCH   3  25
TORSDOF 10
ENDMDL
MODEL 8
REMARK VINA RESULT:      -6.6      2.030      3.177
REMARK  Name = 
REMARK  10 active torsions:
REMARK  status: ('A' for Active; 'I' for Inactive)
REMARK    1  A    between atoms: O_2  and  C_3
REMARK    2  A    between atoms: C_3  and  C_4
REMARK    3  A    between atoms: C_4  and  O_5
REMARK    4  A    between atoms: O_5  and  C_6
REMARK    5  A    between atoms: C_6  and  C_8
REMARK    6  A    between atoms: C_14  and  C_15
REMARK    7  A    between atoms: C_15  and  O_17
REMARK    8  A    between atoms: O_17  and  C_18
REMARK    9  A    between atoms: C_21  and  C_22
REMARK   10  A    between atoms: C_26  and  N_27
REMARK                            x       y       z     vdW  Elec       q    Type
REMARK                         _______ _______ _______ _____ _____    ______ ____
ROOT
ATOM      1  C   UNL     1       1.082   6.017  -8.430  0.00  0.00    +0.073 C 
ATOM      2  C   UNL     1       1.166   5.007  -7.178  0.00  0.00    +0.082 C 
ATOM      3  C   UNL     1       2.381   5.702  -6.385  0.00  0.00    +0.073 C 
ATOM      4  C   UNL     1       2.364   6.984  -6.208  0.00  0.00    +0.051 C 
ATOM      5  C   UNL     1       3.328   7.549  -5.205  0.00  0.00    +0.049 C 
ATOM      6  N   UNL     1       2.130   7.721  -7.418  0.00  0.00    -0.221 NA
ATOM      7  C   UNL     1       2.024   6.898  -8.593  0.00  0.00    +0.051 C 
ATOM      8  C   UNL     1       2.244   7.460  -9.965  0.00  0.00    +0.049 C 
ENDROOT
BRANCH   2   9
ATOM      9  C   UNL     1       0.025   5.802  -6.351  0.00  0.00    -0.008 A 
ATOM     10  C   UNL     1       0.040   5.540  -4.981  0.00  0.00    +0.072 A 
ATOM     11  C   UNL     1      -1.116   5.768  -4.243  0.00  0.00    +0.290 A 
ATOM     12  C   UNL     1      -2.278   6.088  -4.932  0.00  0.00    +0.075 A 
ATOM     13  C   UNL     1      -2.379   5.837  -6.290  0.00  0.00    +0.006 A 
ATOM     14  C   UNL     1      -1.199   5.479  -6.930  0.00  0.00    -0.003 A 
BRANCH  11  15
ATOM     15  N   UNL     1      -1.242   5.347  -2.879  0.00  0.00    +0.081 N 
ATOM     16  O   UNL     1      -0.101   4.811  -2.313  0.00  0.00    -0.576 OA
ATOM     17  O   UNL     1      -2.313   4.774  -2.556  0.00  0.00    +0.041 OA
ENDBRANCH  11  15
ENDBRANCH   2   9
BRANCH   1  18
ATOM     18  C   UNL     1       0.192   5.562  -9.511  0.00  0.00    +0.339 C 
ATOM     19  O   UNL     1      -0.617   6.387 -10.039  0.00  0.00    -0.245 OA
BRANCH  18  20
ATOM     20  O   UNL     1       0.557   4.547 -10.405  0.00  0.00    -0.443 OA
BRANCH  20  21
ATOM     21  C   UNL     1       0.238   4.597 -11.784  0.00  0.00    +0.241 C 
BRANCH  21  22
ATOM     22  C   UNL     1       1.307   5.183 -12.642  0.00  0.00    +0.190 C 
BRANCH  22  24
ATOM     23  C   UNL     1       0.662   7.316 -13.264  0.00  0.00    +0.174 C 
ATOM     24  O   UNL     1       0.663   5.965 -13.616  0.00  0.00    -0.347 OA
ENDBRANCH  22  24
ENDBRANCH  21  22
ENDBRANCH  20  21
ENDBRANCH  18  20
ENDBRANCH   1  18
BRANCH   3  25
ATOM     25  C   UNL     1       3.438   4.788  -5.947  0.00  0.00    +0.339 C 
ATOM     26  O   UNL     1       3.126   3.967  -5.032  0.00  0.00    -0.245 OA
BRANCH  25  27
ATOM     27  O   UNL     1       4.573   4.513  -6.674  0.00  0.00    -0.449 OA
BRANCH  27  28
ATOM     28  C   UNL     1       4.660   5.024  -8.003  0.00  0.00    +0.169 C 
ATOM     29  C   UNL     1       4.069   4.074  -9.012  0.00  0.00    +0.047 C 
ATOM     30  C   UNL     1       6.092   5.358  -8.352  0.00  0.00    +0.047 C 
ENDBRANCH  27  28
ENDBRANCH  25  27
ENDBRANCH   3  25
TORSDOF 10
ENDMDL
MODEL 9
REMARK VINA RESULT:      -6.4      2.645      5.437
REMARK  Name = 
REMARK  10 active torsions:
REMARK  status: ('A' for Active; 'I' for Inactive)
REMARK    1  A    between atoms: O_2  and  C_3
REMARK    2  A    between atoms: C_3  and  C_4
REMARK    3  A    between atoms: C_4  and  O_5
REMARK    4  A    between atoms: O_5  and  C_6
REMARK    5  A    between atoms: C_6  and  C_8
REMARK    6  A    between atoms: C_14  and  C_15
REMARK    7  A    between atoms: C_15  and  O_17
REMARK    8  A    between atoms: O_17  and  C_18
REMARK    9  A    between atoms: C_21  and  C_22
REMARK   10  A    between atoms: C_26  and  N_27
REMARK                            x       y       z     vdW  Elec       q    Type
REMARK                         _______ _______ _______ _____ _____    ______ ____
ROOT
ATOM      1  C   UNL     1       1.944   6.048  -6.938  0.00  0.00    +0.073 C 
ATOM      2  C   UNL     1       3.335   6.855  -6.847  0.00  0.00    +0.082 C 
ATOM      3  C   UNL     1       3.907   6.205  -5.491  0.00  0.00    +0.073 C 
ATOM      4  C   UNL     1       3.870   4.919  -5.347  0.00  0.00    +0.051 C 
ATOM      5  C   UNL     1       4.689   4.332  -4.233  0.00  0.00    +0.049 C 
ATOM      6  N   UNL     1       2.577   4.354  -5.612  0.00  0.00    -0.221 NA
ATOM      7  C   UNL     1       1.565   5.328  -5.923  0.00  0.00    +0.051 C 
ATOM      8  C   UNL     1       0.107   5.017  -5.774  0.00  0.00    +0.049 C 
ENDROOT
BRANCH   2   9
ATOM      9  C   UNL     1       4.105   5.804  -7.807  0.00  0.00    -0.008 A 
ATOM     10  C   UNL     1       5.475   6.044  -7.916  0.00  0.00    +0.072 A 
ATOM     11  C   UNL     1       6.157   5.542  -9.018  0.00  0.00    +0.290 A 
ATOM     12  C   UNL     1       5.412   4.968 -10.041  0.00  0.00    +0.075 A 
ATOM     13  C   UNL     1       4.051   5.206 -10.136  0.00  0.00    +0.006 A 
ATOM     14  C   UNL     1       3.469   5.839  -9.045  0.00  0.00    -0.003 A 
BRANCH  11  15
ATOM     15  N   UNL     1       7.514   5.903  -9.302  0.00  0.00    +0.081 N 
ATOM     16  O   UNL     1       7.679   7.040 -10.072  0.00  0.00    -0.576 OA
ATOM     17  O   UNL     1       8.311   4.967  -9.562  0.00  0.00    +0.041 OA
ENDBRANCH  11  15
ENDBRANCH   2   9
BRANCH   1  18
ATOM     18  C   UNL     1       1.025   6.548  -7.973  0.00  0.00    +0.339 C 
ATOM     19  O   UNL     1       1.233   7.689  -8.492  0.00  0.00    -0.245 OA
BRANCH  18  20
ATOM     20  O   UNL     1       0.352   5.692  -8.855  0.00  0.00    -0.443 OA
BRANCH  20  21
ATOM     21  C   UNL     1      -0.014   6.084 -10.166  0.00  0.00    +0.241 C 
BRANCH  21  22
ATOM     22  C   UNL     1      -0.007   4.975 -11.164  0.00  0.00    +0.190 C 
BRANCH  22  24
ATOM     23  C   UNL     1       0.790   4.675 -13.314  0.00  0.00    +0.174 C 
ATOM     24  O   UNL     1       1.035   5.249 -12.066  0.00  0.00    -0.347 OA
ENDBRANCH  22  24
ENDBRANCH  21  22
ENDBRANCH  20  21
ENDBRANCH  18  20
ENDBRANCH   1  18
BRANCH   3  25
ATOM     25  C   UNL     1       4.406   7.166  -4.507  0.00  0.00    +0.339 C 
ATOM     26  O   UNL     1       5.537   7.685  -4.753  0.00  0.00    -0.245 OA
BRANCH  25  27
ATOM     27  O   UNL     1       3.617   7.798  -3.574  0.00  0.00    -0.449 OA
BRANCH  27  28
ATOM     28  C   UNL     1       3.537   7.234  -2.267  0.00  0.00    +0.169 C 
ATOM     29  C   UNL     1       2.274   6.436  -2.073  0.00  0.00    +0.047 C 
ATOM     30  C   UNL     1       3.661   8.311  -1.213  0.00  0.00    +0.047 C 
ENDBRANCH  27  28
ENDBRANCH  25  27
ENDBRANCH   3  25
TORSDOF 10
ENDMDL
