MODEL 1
REMARK VINA RESULT:      -9.0      0.000      0.000
REMARK  Name = 
REMARK  9 active torsions:
REMARK  status: ('A' for Active; 'I' for Inactive)
REMARK    1  A    between atoms: C_4  and  C_5
REMARK    2  A    between atoms: C_5  and  C_6
REMARK    3  A    between atoms: N_8  and  C_9
REMARK    4  A    between atoms: C_12  and  C_13
REMARK    5  A    between atoms: C_13  and  C_14
REMARK    6  A    between atoms: C_14  and  N_15
REMARK    7  A    between atoms: N_15  and  C_16
REMARK    8  A    between atoms: C_16  and  C_17
REMARK    9  A    between atoms: C_17  and  C_19
REMARK                            x       y       z     vdW  Elec       q    Type
REMARK                         _______ _______ _______ _____ _____    ______ ____
ROOT
ATOM      1  C   UNL     1      -1.820   6.693  -4.741  0.00  0.00    +0.073 A 
ATOM      2  C   UNL     1      -0.483   6.975  -4.774  0.00  0.00    +0.016 A 
ATOM      3  C   UNL     1       0.211   6.548  -5.901  0.00  0.00    -0.003 A 
ATOM      4  C   UNL     1      -0.329   5.559  -6.714  0.00  0.00    -0.021 A 
ATOM      5  C   UNL     1      -1.710   5.460  -6.775  0.00  0.00    -0.003 A 
ATOM      6  C   UNL     1      -2.462   6.199  -5.870  0.00  0.00    +0.016 A 
ENDROOT
BRANCH   1   8
ATOM      7  C   UNL     1      -2.280   5.920  -2.515  0.00  0.00    +0.252 C 
ATOM      8  N   UNL     1      -2.640   6.818  -3.576  0.00  0.00    -0.179 NA
ATOM      9  O   UNL     1      -2.518   4.714  -2.834  0.00  0.00    -0.273 OA
BRANCH   7  10
ATOM     10  C   UNL     1      -2.710   6.366  -1.150  0.00  0.00    +0.133 C 
BRANCH  10  15
ATOM     11  N   UNL     1      -0.551   9.696   1.444  0.00  0.00    -0.100 NA
ATOM     12  C   UNL     1      -0.572   8.671   0.691  0.00  0.00    +0.200 A 
ATOM     13  S   UNL     1       0.566   7.392   0.557  0.00  0.00    -0.048 S 
ATOM     14  C   UNL     1      -0.295   6.419  -0.570  0.00  0.00    +0.053 A 
ATOM     15  C   UNL     1      -1.527   7.072  -0.547  0.00  0.00    +0.077 A 
ATOM     16  N   UNL     1      -1.378   8.382  -0.359  0.00  0.00    -0.225 NA
ENDBRANCH  10  15
ENDBRANCH   7  10
ENDBRANCH   1   8
BRANCH   4  17
ATOM     17  C   UNL     1       0.412   5.311  -7.992  0.00  0.00    +0.045 C 
BRANCH  17  18
ATOM     18  C   UNL     1       1.821   4.897  -7.584  0.00  0.00    +0.093 C 
BRANCH  18  19
ATOM     19  N   UNL     1       2.386   4.207  -8.736  0.00  0.00    -0.215 NA
BRANCH  19  20
ATOM     20  C   UNL     1       3.765   4.617  -8.978  0.00  0.00    +0.126 C 
BRANCH  20  21
ATOM     21  C   UNL     1       3.583   6.177  -9.517  0.00  0.00    +0.192 C 
ATOM     22  O   UNL     1       2.904   5.702 -10.801  0.00  0.00    -0.217 OA
BRANCH  21  23
ATOM     23  C   UNL     1       5.050   6.153 -10.223  0.00  0.00    +0.009 A 
ATOM     24  C   UNL     1       5.370   7.338 -10.860  0.00  0.00    -0.002 A 
ATOM     25  C   UNL     1       6.698   7.520 -11.231  0.00  0.00    -0.000 A 
ATOM     26  C   UNL     1       7.637   6.957 -10.376  0.00  0.00    -0.000 A 
ATOM     27  C   UNL     1       7.294   5.919  -9.518  0.00  0.00    -0.000 A 
ATOM     28  C   UNL     1       5.957   5.593  -9.329  0.00  0.00    -0.002 A 
ENDBRANCH  21  23
ENDBRANCH  20  21
ENDBRANCH  19  20
ENDBRANCH  18  19
ENDBRANCH  17  18
ENDBRANCH   4  17
TORSDOF 9
ENDMDL
MODEL 2
REMARK VINA RESULT:      -8.8      1.284      1.989
REMARK  Name = 
REMARK  9 active torsions:
REMARK  status: ('A' for Active; 'I' for Inactive)
REMARK    1  A    between atoms: C_4  and  C_5
REMARK    2  A    between atoms: C_5  and  C_6
REMARK    3  A    between atoms: N_8  and  C_9
REMARK    4  A    between atoms: C_12  and  C_13
REMARK    5  A    between atoms: C_13  and  C_14
REMARK    6  A    between atoms: C_14  and  N_15
REMARK    7  A    between atoms: N_15  and  C_16
REMARK    8  A    between atoms: C_16  and  C_17
REMARK    9  A    between atoms: C_17  and  C_19
REMARK                            x       y       z     vdW  Elec       q    Type
REMARK                         _______ _______ _______ _____ _____    ______ ____
ROOT
ATOM      1  C   UNL     1      -1.775   5.979  -4.962  0.00  0.00    +0.073 A 
ATOM      2  C   UNL     1      -2.229   5.570  -6.184  0.00  0.00    +0.016 A 
ATOM      3  C   UNL     1      -1.261   5.318  -7.151  0.00  0.00    -0.003 A 
ATOM      4  C   UNL     1       0.017   5.844  -7.005  0.00  0.00    -0.021 A 
ATOM      5  C   UNL     1       0.482   6.053  -5.717  0.00  0.00    -0.003 A 
ATOM      6  C   UNL     1      -0.418   5.933  -4.665  0.00  0.00    +0.016 A 
ENDROOT
BRANCH   1   8
ATOM      7  C   UNL     1      -2.392   5.940  -2.642  0.00  0.00    +0.252 C 
ATOM      8  N   UNL     1      -2.608   6.525  -3.936  0.00  0.00    -0.179 NA
ATOM      9  O   UNL     1      -2.766   4.727  -2.618  0.00  0.00    -0.273 OA
BRANCH   7  10
ATOM     10  C   UNL     1      -2.804   6.808  -1.491  0.00  0.00    +0.133 C 
BRANCH  10  15
ATOM     11  N   UNL     1       1.740   6.162  -0.304  0.00  0.00    -0.100 NA
ATOM     12  C   UNL     1       0.570   6.628  -0.128  0.00  0.00    +0.200 A 
ATOM     13  S   UNL     1       0.070   8.027   0.733  0.00  0.00    -0.048 S 
ATOM     14  C   UNL     1      -1.607   7.958   0.356  0.00  0.00    +0.053 A 
ATOM     15  C   UNL     1      -1.582   6.973  -0.631  0.00  0.00    +0.077 A 
ATOM     16  N   UNL     1      -0.635   6.068  -0.390  0.00  0.00    -0.225 NA
ENDBRANCH  10  15
ENDBRANCH   7  10
ENDBRANCH   1   8
BRANCH   4  17
ATOM     17  C   UNL     1       1.022   5.358  -8.004  0.00  0.00    +0.045 C 
BRANCH  17  18
ATOM     18  C   UNL     1       0.473   5.747  -9.372  0.00  0.00    +0.093 C 
BRANCH  18  19
ATOM     19  N   UNL     1       1.590   5.630 -10.300  0.00  0.00    -0.215 NA
BRANCH  19  20
ATOM     20  C   UNL     1       2.836   6.085  -9.693  0.00  0.00    +0.126 C 
BRANCH  20  21
ATOM     21  C   UNL     1       3.965   5.121 -10.435  0.00  0.00    +0.192 C 
ATOM     22  O   UNL     1       4.169   4.301  -9.161  0.00  0.00    -0.217 OA
BRANCH  21  23
ATOM     23  C   UNL     1       5.169   6.141 -10.031  0.00  0.00    +0.009 A 
ATOM     24  C   UNL     1       6.304   5.495  -9.578  0.00  0.00    -0.002 A 
ATOM     25  C   UNL     1       7.470   6.248  -9.493  0.00  0.00    -0.000 A 
ATOM     26  C   UNL     1       7.615   7.233 -10.462  0.00  0.00    -0.000 A 
ATOM     27  C   UNL     1       6.513   7.739 -11.140  0.00  0.00    -0.000 A 
ATOM     28  C   UNL     1       5.284   7.100 -11.032  0.00  0.00    -0.002 A 
ENDBRANCH  21  23
ENDBRANCH  20  21
ENDBRANCH  19  20
ENDBRANCH  18  19
ENDBRANCH  17  18
ENDBRANCH   4  17
TORSDOF 9
ENDMDL
MODEL 3
REMARK VINA RESULT:      -8.6      2.379      3.300
REMARK  Name = 
REMARK  9 active torsions:
REMARK  status: ('A' for Active; 'I' for Inactive)
REMARK    1  A    between atoms: C_4  and  C_5
REMARK    2  A    between atoms: C_5  and  C_6
REMARK    3  A    between atoms: N_8  and  C_9
REMARK    4  A    between atoms: C_12  and  C_13
REMARK    5  A    between atoms: C_13  and  C_14
REMARK    6  A    between atoms: C_14  and  N_15
REMARK    7  A    between atoms: N_15  and  C_16
REMARK    8  A    between atoms: C_16  and  C_17
REMARK    9  A    between atoms: C_17  and  C_19
REMARK                            x       y       z     vdW  Elec       q    Type
REMARK                         _______ _______ _______ _____ _____    ______ ____
ROOT
ATOM      1  C   UNL     1      -1.773   6.816  -4.054  0.00  0.00    +0.073 A 
ATOM      2  C   UNL     1      -0.423   6.745  -4.253  0.00  0.00    +0.016 A 
ATOM      3  C   UNL     1      -0.004   6.346  -5.518  0.00  0.00    -0.003 A 
ATOM      4  C   UNL     1      -0.885   5.678  -6.361  0.00  0.00    -0.021 A 
ATOM      5  C   UNL     1      -2.236   5.950  -6.223  0.00  0.00    -0.003 A 
ATOM      6  C   UNL     1      -2.649   6.697  -5.127  0.00  0.00    +0.016 A 
ENDROOT
BRANCH   1   8
ATOM      7  C   UNL     1      -2.021   5.928  -1.837  0.00  0.00    +0.252 C 
ATOM      8  N   UNL     1      -2.391   6.953  -2.772  0.00  0.00    -0.179 NA
ATOM      9  O   UNL     1      -2.479   4.797  -2.192  0.00  0.00    -0.273 OA
BRANCH   7  10
ATOM     10  C   UNL     1      -2.181   6.312  -0.398  0.00  0.00    +0.133 C 
BRANCH  10  15
ATOM     11  N   UNL     1      -0.023  10.054   1.555  0.00  0.00    -0.100 NA
ATOM     12  C   UNL     1      -0.051   8.976   0.881  0.00  0.00    +0.200 A 
ATOM     13  S   UNL     1       1.193   7.821   0.619  0.00  0.00    -0.048 S 
ATOM     14  C   UNL     1       0.273   6.673  -0.271  0.00  0.00    +0.053 A 
ATOM     15  C   UNL     1      -1.005   7.188  -0.064  0.00  0.00    +0.077 A 
ATOM     16  N   UNL     1      -0.986   8.518   0.016  0.00  0.00    -0.225 NA
ENDBRANCH  10  15
ENDBRANCH   7  10
ENDBRANCH   1   8
BRANCH   4  17
ATOM     17  C   UNL     1      -0.389   5.462  -7.757  0.00  0.00    +0.045 C 
BRANCH  17  18
ATOM     18  C   UNL     1       1.067   5.912  -7.758  0.00  0.00    +0.093 C 
BRANCH  18  19
ATOM     19  N   UNL     1       1.860   4.707  -7.966  0.00  0.00    -0.215 NA
BRANCH  19  20
ATOM     20  C   UNL     1       2.911   4.582  -6.962  0.00  0.00    +0.126 C 
BRANCH  20  21
ATOM     21  C   UNL     1       3.596   6.094  -6.975  0.00  0.00    +0.192 C 
ATOM     22  O   UNL     1       4.848   5.570  -7.680  0.00  0.00    -0.217 OA
BRANCH  21  23
ATOM     23  C   UNL     1       4.261   5.856  -5.507  0.00  0.00    +0.009 A 
ATOM     24  C   UNL     1       4.828   6.997  -4.972  0.00  0.00    -0.002 A 
ATOM     25  C   UNL     1       5.151   6.970  -3.620  0.00  0.00    -0.000 A 
ATOM     26  C   UNL     1       4.299   6.219  -2.819  0.00  0.00    -0.000 A 
ATOM     27  C   UNL     1       3.505   5.217  -3.361  0.00  0.00    -0.000 A 
ATOM     28  C   UNL     1       3.371   5.111  -4.740  0.00  0.00    -0.002 A 
ENDBRANCH  21  23
ENDBRANCH  20  21
ENDBRANCH  19  20
ENDBRANCH  18  19
ENDBRANCH  17  18
ENDBRANCH   4  17
TORSDOF 9
ENDMDL
MODEL 4
REMARK VINA RESULT:      -8.5      4.180      8.957
REMARK  Name = 
REMARK  9 active torsions:
REMARK  status: ('A' for Active; 'I' for Inactive)
REMARK    1  A    between atoms: C_4  and  C_5
REMARK    2  A    between atoms: C_5  and  C_6
REMARK    3  A    between atoms: N_8  and  C_9
REMARK    4  A    between atoms: C_12  and  C_13
REMARK    5  A    between atoms: C_13  and  C_14
REMARK    6  A    between atoms: C_14  and  N_15
REMARK    7  A    between atoms: N_15  and  C_16
REMARK    8  A    between atoms: C_16  and  C_17
REMARK    9  A    between atoms: C_17  and  C_19
REMARK                            x       y       z     vdW  Elec       q    Type
REMARK                         _______ _______ _______ _____ _____    ______ ____
ROOT
ATOM      1  C   UNL     1       2.378   5.590  -8.163  0.00  0.00    +0.073 A 
ATOM      2  C   UNL     1       2.570   6.870  -7.723  0.00  0.00    +0.016 A 
ATOM      3  C   UNL     1       2.155   7.146  -6.425  0.00  0.00    -0.003 A 
ATOM      4  C   UNL     1       1.246   6.304  -5.794  0.00  0.00    -0.021 A 
ATOM      5  C   UNL     1       1.244   4.969  -6.163  0.00  0.00    -0.003 A 
ATOM      6  C   UNL     1       1.986   4.594  -7.277  0.00  0.00    +0.016 A 
ENDROOT
BRANCH   1   8
ATOM      7  C   UNL     1       2.327   6.253 -10.470  0.00  0.00    +0.252 C 
ATOM      8  N   UNL     1       2.499   5.182  -9.528  0.00  0.00    -0.179 NA
ATOM      9  O   UNL     1       1.132   6.682 -10.465  0.00  0.00    -0.273 OA
BRANCH   7  10
ATOM     10  C   UNL     1       2.964   6.013 -11.805  0.00  0.00    +0.133 C 
BRANCH  10  15
ATOM     11  N   UNL     1       7.497   4.843 -12.555  0.00  0.00    -0.100 NA
ATOM     12  C   UNL     1       6.566   5.495 -11.985  0.00  0.00    +0.200 A 
ATOM     13  S   UNL     1       6.614   7.045 -11.246  0.00  0.00    -0.048 S 
ATOM     14  C   UNL     1       4.943   7.182 -10.863  0.00  0.00    +0.053 A 
ATOM     15  C   UNL     1       4.449   6.095 -11.583  0.00  0.00    +0.077 A 
ATOM     16  N   UNL     1       5.327   5.094 -11.613  0.00  0.00    -0.225 NA
ENDBRANCH  10  15
ENDBRANCH   7  10
ENDBRANCH   1   8
BRANCH   4  17
ATOM     17  C   UNL     1       1.014   6.594  -4.343  0.00  0.00    +0.045 C 
BRANCH  17  18
ATOM     18  C   UNL     1       0.272   5.383  -3.788  0.00  0.00    +0.093 C 
BRANCH  18  19
ATOM     19  N   UNL     1       0.636   5.300  -2.380  0.00  0.00    -0.215 NA
BRANCH  19  20
ATOM     20  C   UNL     1       1.812   6.112  -2.086  0.00  0.00    +0.126 C 
BRANCH  20  21
ATOM     21  C   UNL     1       2.835   5.013  -1.379  0.00  0.00    +0.192 C 
ATOM     22  O   UNL     1       3.241   6.016  -0.299  0.00  0.00    -0.217 OA
BRANCH  21  23
ATOM     23  C   UNL     1       4.067   5.471  -2.340  0.00  0.00    +0.009 A 
ATOM     24  C   UNL     1       4.055   4.854  -3.577  0.00  0.00    -0.002 A 
ATOM     25  C   UNL     1       4.878   5.391  -4.561  0.00  0.00    -0.000 A 
ATOM     26  C   UNL     1       5.040   6.770  -4.515  0.00  0.00    -0.000 A 
ATOM     27  C   UNL     1       4.811   7.479  -3.342  0.00  0.00    -0.000 A 
ATOM     28  C   UNL     1       4.185   6.856  -2.269  0.00  0.00    -0.002 A 
ENDBRANCH  21  23
ENDBRANCH  20  21
ENDBRANCH  19  20
ENDBRANCH  18  19
ENDBRANCH  17  18
ENDBRANCH   4  17
TORSDOF 9
ENDMDL
MODEL 5
REMARK VINA RESULT:      -8.4      3.496      8.826
REMARK  Name = 
REMARK  9 active torsions:
REMARK  status: ('A' for Active; 'I' for Inactive)
REMARK    1  A    between atoms: C_4  and  C_5
REMARK    2  A    between atoms: C_5  and  C_6
REMARK    3  A    between atoms: N_8  and  C_9
REMARK    4  A    between atoms: C_12  and  C_13
REMARK    5  A    between atoms: C_13  and  C_14
REMARK    6  A    between atoms: C_14  and  N_15
REMARK    7  A    between atoms: N_15  and  C_16
REMARK    8  A    between atoms: C_16  and  C_17
REMARK    9  A    between atoms: C_17  and  C_19
REMARK                            x       y       z     vdW  Elec       q    Type
REMARK                         _______ _______ _______ _____ _____    ______ ____
ROOT
ATOM      1  C   UNL     1       4.180   5.726  -5.759  0.00  0.00    +0.073 A 
ATOM      2  C   UNL     1       4.447   4.686  -4.914  0.00  0.00    +0.016 A 
ATOM      3  C   UNL     1       4.182   4.901  -3.566  0.00  0.00    -0.003 A 
ATOM      4  C   UNL     1       4.057   6.198  -3.083  0.00  0.00    -0.021 A 
ATOM      5  C   UNL     1       3.594   7.167  -3.957  0.00  0.00    -0.003 A 
ATOM      6  C   UNL     1       3.487   6.841  -5.304  0.00  0.00    +0.016 A 
ENDROOT
BRANCH   1   8
ATOM      7  C   UNL     1       3.580   5.528  -8.076  0.00  0.00    +0.252 C 
ATOM      8  N   UNL     1       4.618   5.791  -7.119  0.00  0.00    -0.179 NA
ATOM      9  O   UNL     1       3.195   4.319  -8.016  0.00  0.00    -0.273 OA
BRANCH   7  10
ATOM     10  C   UNL     1       3.829   6.103  -9.437  0.00  0.00    +0.133 C 
BRANCH  10  15
ATOM     11  N   UNL     1       0.651   4.788 -12.699  0.00  0.00    -0.100 NA
ATOM     12  C   UNL     1       1.045   5.467 -11.699  0.00  0.00    +0.200 A 
ATOM     13  S   UNL     1       0.128   6.177 -10.433  0.00  0.00    -0.048 S 
ATOM     14  C   UNL     1       1.438   6.771  -9.489  0.00  0.00    +0.053 A 
ATOM     15  C   UNL     1       2.496   6.131 -10.132  0.00  0.00    +0.077 A 
ATOM     16  N   UNL     1       2.262   5.999 -11.437  0.00  0.00    -0.225 NA
ENDBRANCH  10  15
ENDBRANCH   7  10
ENDBRANCH   1   8
BRANCH   4  17
ATOM     17  C   UNL     1       3.591   6.305  -1.663  0.00  0.00    +0.045 C 
BRANCH  17  18
ATOM     18  C   UNL     1       2.136   6.754  -1.732  0.00  0.00    +0.093 C 
BRANCH  18  19
ATOM     19  N   UNL     1       1.338   5.581  -1.404  0.00  0.00    -0.215 NA
BRANCH  19  20
ATOM     20  C   UNL     1       0.595   5.101  -2.565  0.00  0.00    +0.126 C 
BRANCH  20  21
ATOM     21  C   UNL     1      -0.664   6.179  -2.652  0.00  0.00    +0.192 C 
ATOM     22  O   UNL     1      -1.690   5.047  -2.704  0.00  0.00    -0.217 OA
BRANCH  21  23
ATOM     23  C   UNL     1      -0.566   6.233  -4.277  0.00  0.00    +0.009 A 
ATOM     24  C   UNL     1       0.264   5.263  -4.807  0.00  0.00    -0.002 A 
ATOM     25  C   UNL     1       0.182   5.039  -6.178  0.00  0.00    -0.000 A 
ATOM     26  C   UNL     1      -1.081   5.202  -6.733  0.00  0.00    -0.000 A 
ATOM     27  C   UNL     1      -2.049   5.970  -6.098  0.00  0.00    -0.000 A 
ATOM     28  C   UNL     1      -1.851   6.386  -4.787  0.00  0.00    -0.002 A 
ENDBRANCH  21  23
ENDBRANCH  20  21
ENDBRANCH  19  20
ENDBRANCH  18  19
ENDBRANCH  17  18
ENDBRANCH   4  17
TORSDOF 9
ENDMDL
MODEL 6
REMARK VINA RESULT:      -8.4      3.241      5.606
REMARK  Name = 
REMARK  9 active torsions:
REMARK  status: ('A' for Active; 'I' for Inactive)
REMARK    1  A    between atoms: C_4  and  C_5
REMARK    2  A    between atoms: C_5  and  C_6
REMARK    3  A    between atoms: N_8  and  C_9
REMARK    4  A    between atoms: C_12  and  C_13
REMARK    5  A    between atoms: C_13  and  C_14
REMARK    6  A    between atoms: C_14  and  N_15
REMARK    7  A    between atoms: N_15  and  C_16
REMARK    8  A    between atoms: C_16  and  C_17
REMARK    9  A    between atoms: C_17  and  C_19
REMARK                            x       y       z     vdW  Elec       q    Type
REMARK                         _______ _______ _______ _____ _____    ______ ____
ROOT
ATOM      1  C   UNL     1       2.212   5.197  -7.319  0.00  0.00    +0.073 A 
ATOM      2  C   UNL     1       2.065   6.515  -7.647  0.00  0.00    +0.016 A 
ATOM      3  C   UNL     1       2.601   6.912  -8.868  0.00  0.00    -0.003 A 
ATOM      4  C   UNL     1       3.563   6.125  -9.490  0.00  0.00    -0.021 A 
ATOM      5  C   UNL     1       3.527   4.761  -9.255  0.00  0.00    -0.003 A 
ATOM      6  C   UNL     1       2.683   4.287  -8.258  0.00  0.00    +0.016 A 
ENDROOT
BRANCH   1   8
ATOM      7  C   UNL     1       2.073   5.624  -4.960  0.00  0.00    +0.252 C 
ATOM      8  N   UNL     1       1.962   4.659  -6.018  0.00  0.00    -0.179 NA
ATOM      9  O   UNL     1       3.273   6.016  -4.820  0.00  0.00    -0.273 OA
BRANCH   7  10
ATOM     10  C   UNL     1       1.315   5.273  -3.716  0.00  0.00    +0.133 C 
BRANCH  10  15
ATOM     11  N   UNL     1      -2.467   5.973  -6.487  0.00  0.00    -0.100 NA
ATOM     12  C   UNL     1      -1.872   5.901  -5.366  0.00  0.00    +0.200 A 
ATOM     13  S   UNL     1      -2.508   5.532  -3.814  0.00  0.00    -0.048 S 
ATOM     14  C   UNL     1      -1.028   5.538  -2.938  0.00  0.00    +0.053 A 
ATOM     15  C   UNL     1      -0.128   5.581  -4.001  0.00  0.00    +0.077 A 
ATOM     16  N   UNL     1      -0.618   6.282  -5.023  0.00  0.00    -0.225 NA
ENDBRANCH  10  15
ENDBRANCH   7  10
ENDBRANCH   1   8
BRANCH   4  17
ATOM     17  C   UNL     1       3.931   6.552 -10.878  0.00  0.00    +0.045 C 
BRANCH  17  18
ATOM     18  C   UNL     1       4.678   5.375 -11.494  0.00  0.00    +0.093 C 
BRANCH  18  19
ATOM     19  N   UNL     1       4.274   5.331 -12.892  0.00  0.00    -0.215 NA
BRANCH  19  20
ATOM     20  C   UNL     1       3.053   6.098 -13.118  0.00  0.00    +0.126 C 
BRANCH  20  21
ATOM     21  C   UNL     1       2.084   5.002 -13.903  0.00  0.00    +0.192 C 
ATOM     22  O   UNL     1       1.705   6.032 -14.968  0.00  0.00    -0.217 OA
BRANCH  21  23
ATOM     23  C   UNL     1       0.803   5.406 -12.983  0.00  0.00    +0.009 A 
ATOM     24  C   UNL     1       0.774   4.750 -11.766  0.00  0.00    -0.002 A 
ATOM     25  C   UNL     1      -0.102   5.240 -10.803  0.00  0.00    -0.000 A 
ATOM     26  C   UNL     1      -0.290   6.616 -10.814  0.00  0.00    -0.000 A 
ATOM     27  C   UNL     1      -0.024   7.367 -11.952  0.00  0.00    -0.000 A 
ATOM     28  C   UNL     1       0.660   6.790 -13.016  0.00  0.00    -0.002 A 
ENDBRANCH  21  23
ENDBRANCH  20  21
ENDBRANCH  19  20
ENDBRANCH  18  19
ENDBRANCH  17  18
ENDBRANCH   4  17
TORSDOF 9
ENDMDL
MODEL 7
REMARK VINA RESULT:      -8.3      2.558      3.694
REMARK  Name = 
REMARK  9 active torsions:
REMARK  status: ('A' for Active; 'I' for Inactive)
REMARK    1  A    between atoms: C_4  and  C_5
REMARK    2  A    between atoms: C_5  and  C_6
REMARK    3  A    between atoms: N_8  and  C_9
REMARK    4  A    between atoms: C_12  and  C_13
REMARK    5  A    between atoms: C_13  and  C_14
REMARK    6  A    between atoms: C_14  and  N_15
REMARK    7  A    between atoms: N_15  and  C_16
REMARK    8  A    between atoms: C_16  and  C_17
REMARK    9  A    between atoms: C_17  and  C_19
REMARK                            x       y       z     vdW  Elec       q    Type
REMARK                         _______ _______ _______ _____ _____    ______ ____
ROOT
ATOM      1  C   UNL     1       1.571   5.922  -6.729  0.00  0.00    +0.073 A 
ATOM      2  C   UNL     1       2.430   6.680  -7.474  0.00  0.00    +0.016 A 
ATOM      3  C   UNL     1       2.024   6.983  -8.769  0.00  0.00    -0.003 A 
ATOM      4  C   UNL     1       1.030   6.225  -9.378  0.00  0.00    -0.021 A 
ATOM      5  C   UNL     1       0.077   5.640  -8.561  0.00  0.00    -0.003 A 
ATOM      6  C   UNL     1       0.285   5.662  -7.188  0.00  0.00    +0.016 A 
ENDROOT
BRANCH   1   8
ATOM      7  C   UNL     1       1.654   6.119  -4.337  0.00  0.00    +0.252 C 
ATOM      8  N   UNL     1       1.915   5.300  -5.488  0.00  0.00    -0.179 NA
ATOM      9  O   UNL     1       2.423   7.130  -4.309  0.00  0.00    -0.273 OA
BRANCH   7  10
ATOM     10  C   UNL     1       1.474   5.357  -3.060  0.00  0.00    +0.133 C 
BRANCH  10  15
ATOM     11  N   UNL     1      -3.250   5.002  -3.226  0.00  0.00    -0.100 NA
ATOM     12  C   UNL     1      -2.154   5.422  -2.738  0.00  0.00    +0.200 A 
ATOM     13  S   UNL     1      -1.793   5.915  -1.133  0.00  0.00    -0.048 S 
ATOM     14  C   UNL     1      -0.109   6.197  -1.340  0.00  0.00    +0.053 A 
ATOM     15  C   UNL     1       0.069   5.631  -2.601  0.00  0.00    +0.077 A 
ATOM     16  N   UNL     1      -1.012   5.795  -3.363  0.00  0.00    -0.225 NA
ENDBRANCH  10  15
ENDBRANCH   7  10
ENDBRANCH   1   8
BRANCH   4  17
ATOM     17  C   UNL     1       0.547   6.752 -10.694  0.00  0.00    +0.045 C 
BRANCH  17  18
ATOM     18  C   UNL     1       1.021   5.755 -11.745  0.00  0.00    +0.093 C 
BRANCH  18  19
ATOM     19  N   UNL     1       2.262   6.297 -12.281  0.00  0.00    -0.215 NA
BRANCH  19  20
ATOM     20  C   UNL     1       3.408   5.478 -11.900  0.00  0.00    +0.126 C 
BRANCH  20  21
ATOM     21  C   UNL     1       4.660   6.230 -12.690  0.00  0.00    +0.192 C 
ATOM     22  O   UNL     1       5.410   4.908 -12.855  0.00  0.00    -0.217 OA
BRANCH  21  23
ATOM     23  C   UNL     1       5.420   6.543 -11.284  0.00  0.00    +0.009 A 
ATOM     24  C   UNL     1       5.186   5.590 -10.311  0.00  0.00    -0.002 A 
ATOM     25  C   UNL     1       6.013   5.609  -9.193  0.00  0.00    -0.000 A 
ATOM     26  C   UNL     1       7.324   6.000  -9.429  0.00  0.00    -0.000 A 
ATOM     27  C   UNL     1       7.657   6.754 -10.548  0.00  0.00    -0.000 A 
ATOM     28  C   UNL     1       6.728   6.921 -11.569  0.00  0.00    -0.002 A 
ENDBRANCH  21  23
ENDBRANCH  20  21
ENDBRANCH  19  20
ENDBRANCH  18  19
ENDBRANCH  17  18
ENDBRANCH   4  17
TORSDOF 9
ENDMDL
MODEL 8
REMARK VINA RESULT:      -8.2      2.037      2.772
REMARK  Name = 
REMARK  9 active torsions:
REMARK  status: ('A' for Active; 'I' for Inactive)
REMARK    1  A    between atoms: C_4  and  C_5
REMARK    2  A    between atoms: C_5  and  C_6
REMARK    3  A    between atoms: N_8  and  C_9
REMARK    4  A    between atoms: C_12  and  C_13
REMARK    5  A    between atoms: C_13  and  C_14
REMARK    6  A    between atoms: C_14  and  N_15
REMARK    7  A    between atoms: N_15  and  C_16
REMARK    8  A    between atoms: C_16  and  C_17
REMARK    9  A    between atoms: C_17  and  C_19
REMARK                            x       y       z     vdW  Elec       q    Type
REMARK                         _______ _______ _______ _____ _____    ______ ____
ROOT
ATOM      1  C   UNL     1      -1.344   5.850  -4.944  0.00  0.00    +0.073 A 
ATOM      2  C   UNL     1      -2.134   5.868  -6.059  0.00  0.00    +0.016 A 
ATOM      3  C   UNL     1      -1.521   5.510  -7.256  0.00  0.00    -0.003 A 
ATOM      4  C   UNL     1      -0.136   5.544  -7.362  0.00  0.00    -0.021 A 
ATOM      5  C   UNL     1       0.602   5.326  -6.210  0.00  0.00    -0.003 A 
ATOM      6  C   UNL     1      -0.069   5.301  -4.994  0.00  0.00    +0.016 A 
ENDROOT
BRANCH   1   8
ATOM      7  C   UNL     1      -1.852   5.461  -2.629  0.00  0.00    +0.252 C 
ATOM      8  N   UNL     1      -1.715   6.423  -3.687  0.00  0.00    -0.179 NA
ATOM      9  O   UNL     1      -2.843   4.693  -2.832  0.00  0.00    -0.273 OA
BRANCH   7  10
ATOM     10  C   UNL     1      -1.693   6.026  -1.250  0.00  0.00    +0.133 C 
BRANCH  10  15
ATOM     11  N   UNL     1       2.887   5.356  -2.276  0.00  0.00    -0.100 NA
ATOM     12  C   UNL     1       1.928   5.741  -1.534  0.00  0.00    +0.200 A 
ATOM     13  S   UNL     1       1.908   6.952  -0.317  0.00  0.00    -0.048 S 
ATOM     14  C   UNL     1       0.232   6.886   0.063  0.00  0.00    +0.053 A 
ATOM     15  C   UNL     1      -0.213   6.087  -0.989  0.00  0.00    +0.077 A 
ATOM     16  N   UNL     1       0.707   5.189  -1.340  0.00  0.00    -0.225 NA
ENDBRANCH  10  15
ENDBRANCH   7  10
ENDBRANCH   1   8
BRANCH   4  17
ATOM     17  C   UNL     1       0.419   4.965  -8.627  0.00  0.00    +0.045 C 
BRANCH  17  18
ATOM     18  C   UNL     1      -0.117   5.837  -9.757  0.00  0.00    +0.093 C 
BRANCH  18  19
ATOM     19  N   UNL     1       0.885   5.788 -10.812  0.00  0.00    -0.215 NA
BRANCH  19  20
ATOM     20  C   UNL     1       2.166   5.302 -10.307  0.00  0.00    +0.126 C 
BRANCH  20  21
ATOM     21  C   UNL     1       3.230   6.433 -10.892  0.00  0.00    +0.192 C 
ATOM     22  O   UNL     1       4.178   5.346 -11.399  0.00  0.00    -0.217 OA
BRANCH  21  23
ATOM     23  C   UNL     1       4.004   6.513  -9.461  0.00  0.00    +0.009 A 
ATOM     24  C   UNL     1       3.190   6.922  -8.421  0.00  0.00    -0.002 A 
ATOM     25  C   UNL     1       3.672   6.738  -7.130  0.00  0.00    -0.000 A 
ATOM     26  C   UNL     1       4.462   5.611  -6.944  0.00  0.00    -0.000 A 
ATOM     27  C   UNL     1       5.103   5.000  -8.015  0.00  0.00    -0.000 A 
ATOM     28  C   UNL     1       4.772   5.362  -9.315  0.00  0.00    -0.002 A 
ENDBRANCH  21  23
ENDBRANCH  20  21
ENDBRANCH  19  20
ENDBRANCH  18  19
ENDBRANCH  17  18
ENDBRANCH   4  17
TORSDOF 9
ENDMDL
MODEL 9
REMARK VINA RESULT:      -8.2      2.493      3.194
REMARK  Name = 
REMARK  9 active torsions:
REMARK  status: ('A' for Active; 'I' for Inactive)
REMARK    1  A    between atoms: C_4  and  C_5
REMARK    2  A    between atoms: C_5  and  C_6
REMARK    3  A    between atoms: N_8  and  C_9
REMARK    4  A    between atoms: C_12  and  C_13
REMARK    5  A    between atoms: C_13  and  C_14
REMARK    6  A    between atoms: C_14  and  N_15
REMARK    7  A    between atoms: N_15  and  C_16
REMARK    8  A    between atoms: C_16  and  C_17
REMARK    9  A    between atoms: C_17  and  C_19
REMARK                            x       y       z     vdW  Elec       q    Type
REMARK                         _______ _______ _______ _____ _____    ______ ____
ROOT
ATOM      1  C   UNL     1      -0.093   5.800  -4.685  0.00  0.00    +0.073 A 
ATOM      2  C   UNL     1      -1.115   6.196  -5.500  0.00  0.00    +0.016 A 
ATOM      3  C   UNL     1      -1.021   5.821  -6.837  0.00  0.00    -0.003 A 
ATOM      4  C   UNL     1       0.209   5.446  -7.365  0.00  0.00    -0.021 A 
ATOM      5  C   UNL     1       1.130   4.872  -6.505  0.00  0.00    -0.003 A 
ATOM      6  C   UNL     1       0.863   4.899  -5.142  0.00  0.00    +0.016 A 
ENDROOT
BRANCH   1   8
ATOM      7  C   UNL     1       0.023   5.288  -2.342  0.00  0.00    +0.252 C 
ATOM      8  N   UNL     1       0.118   6.296  -3.360  0.00  0.00    -0.179 NA
ATOM      9  O   UNL     1      -1.166   4.853  -2.236  0.00  0.00    -0.273 OA
BRANCH   7  10
ATOM     10  C   UNL     1       0.748   5.617  -1.072  0.00  0.00    +0.133 C 
BRANCH  10  15
ATOM     11  N   UNL     1       4.670   5.012  -3.666  0.00  0.00    -0.100 NA
ATOM     12  C   UNL     1       3.996   5.531  -2.721  0.00  0.00    +0.200 A 
ATOM     13  S   UNL     1       4.196   7.049  -1.943  0.00  0.00    -0.048 S 
ATOM     14  C   UNL     1       2.821   6.976  -0.912  0.00  0.00    +0.053 A 
ATOM     15  C   UNL     1       2.180   5.865  -1.458  0.00  0.00    +0.077 A 
ATOM     16  N   UNL     1       3.059   4.974  -1.917  0.00  0.00    -0.225 NA
ENDBRANCH  10  15
ENDBRANCH   7  10
ENDBRANCH   1   8
BRANCH   4  17
ATOM     17  C   UNL     1       0.159   4.889  -8.755  0.00  0.00    +0.045 C 
BRANCH  17  18
ATOM     18  C   UNL     1       0.331   6.081  -9.690  0.00  0.00    +0.093 C 
BRANCH  18  19
ATOM     19  N   UNL     1       1.689   6.563  -9.481  0.00  0.00    -0.215 NA
BRANCH  19  20
ATOM     20  C   UNL     1       2.661   5.741 -10.195  0.00  0.00    +0.126 C 
BRANCH  20  21
ATOM     21  C   UNL     1       3.796   5.434  -9.024  0.00  0.00    +0.192 C 
ATOM     22  O   UNL     1       3.688   6.859  -8.481  0.00  0.00    -0.217 OA
BRANCH  21  23
ATOM     23  C   UNL     1       5.010   5.853 -10.026  0.00  0.00    +0.009 A 
ATOM     24  C   UNL     1       4.855   7.111 -10.577  0.00  0.00    -0.002 A 
ATOM     25  C   UNL     1       5.965   7.672 -11.199  0.00  0.00    -0.000 A 
ATOM     26  C   UNL     1       7.192   7.347 -10.635  0.00  0.00    -0.000 A 
ATOM     27  C   UNL     1       7.340   6.211  -9.847  0.00  0.00    -0.000 A 
ATOM     28  C   UNL     1       6.215   5.519  -9.416  0.00  0.00    -0.002 A 
ENDBRANCH  21  23
ENDBRANCH  20  21
ENDBRANCH  19  20
ENDBRANCH  18  19
ENDBRANCH  17  18
ENDBRANCH   4  17
TORSDOF 9
ENDMDL
