MODEL 1
REMARK VINA RESULT:      -8.7      0.000      0.000
REMARK  Name = 
REMARK  5 active torsions:
REMARK  status: ('A' for Active; 'I' for Inactive)
REMARK    1  A    between atoms: C_2  and  C_3
REMARK    2  A    between atoms: C_3  and  O_5
REMARK    3  A    between atoms: O_5  and  C_6
REMARK    4  A    between atoms: C_6  and  C_7
REMARK    5  A    between atoms: C_7  and  C_9
REMARK                            x       y       z     vdW  Elec       q    Type
REMARK                         _______ _______ _______ _____ _____    ______ ____
ROOT
ATOM      1  C   UNL     1       2.927   5.785  -4.506  0.00  0.00    +0.187 C 
ATOM      2  C   UNL     1       2.336   5.351  -5.745  0.00  0.00    +0.043 C 
ATOM      3  C   UNL     1       3.338   6.263  -6.633  0.00  0.00    +0.007 C 
ATOM      4  C   UNL     1       3.030   5.460  -8.091  0.00  0.00    +0.036 C 
ATOM      5  C   UNL     1       1.558   6.083  -8.295  0.00  0.00    +0.168 C 
ATOM      6  C   UNL     1       0.632   5.027  -7.449  0.00  0.00    +0.182 C 
ATOM      7  O   UNL     1      -0.617   5.861  -7.656  0.00  0.00    -0.220 OA
ATOM      8  F   UNL     1       1.457   7.294  -7.788  0.00  0.00    -0.237 F 
ATOM      9  C   UNL     1       1.256   5.986  -9.724  0.00  0.00    +0.066 C 
ATOM     10  C   UNL     1       2.294   5.808 -10.688  0.00  0.00    -0.003 C 
ATOM     11  C   UNL     1       1.992   5.588 -11.948  0.00  0.00    +0.036 C 
ATOM     12  C   UNL     1       0.654   6.002 -12.406  0.00  0.00    +0.195 C 
ATOM     13  C   UNL     1       0.043   6.995 -11.506  0.00  0.00    +0.038 C 
ATOM     14  O   UNL     1       0.566   6.114 -13.669  0.00  0.00    -0.287 OA
ATOM     15  C   UNL     1       3.862   5.738 -10.327  0.00  0.00    +0.180 C 
ATOM     16  F   UNL     1       4.172   6.964 -11.156  0.00  0.00    -0.233 F 
ATOM     17  C   UNL     1       0.241   4.855  -9.914  0.00  0.00    +0.011 C 
ATOM     18  C   UNL     1       0.494   7.174 -10.261  0.00  0.00    -0.017 C 
ATOM     19  C   UNL     1       3.695   6.657  -8.963  0.00  0.00    +0.042 C 
ATOM     20  C   UNL     1       4.524   5.237  -6.258  0.00  0.00    +0.004 C 
ATOM     21  C   UNL     1       2.502   3.941  -6.198  0.00  0.00    +0.004 C 
ATOM     22  C   UNL     1       0.952   5.763  -6.004  0.00  0.00    +0.039 C 
ATOM     23  C   UNL     1       4.508   5.436  -4.639  0.00  0.00    +0.044 C 
ATOM     24  C   UNL     1       4.350   3.835  -4.363  0.00  0.00    +0.004 C 
ENDROOT
BRANCH   1  25
ATOM     25  C   UNL     1       2.421   5.454  -3.214  0.00  0.00    +0.203 C 
ATOM     26  O   UNL     1       3.149   4.961  -2.343  0.00  0.00    -0.291 OA
BRANCH  25  27
ATOM     27  C   UNL     1       0.995   5.274  -2.780  0.00  0.00    +0.163 C 
ATOM     28 CL   UNL     1       1.019   4.962  -1.046  0.00  0.00    -0.105 Cl
ENDBRANCH  25  27
ENDBRANCH   1  25
BRANCH   1  29
ATOM     29  O   UNL     1       3.075   7.219  -4.542  0.00  0.00    -0.449 OA
BRANCH  29  30
ATOM     30  C   UNL     1       4.014   7.841  -3.717  0.00  0.00    +0.317 C 
ATOM     31  O   UNL     1       4.967   8.412  -4.331  0.00  0.00    -0.250 OA
BRANCH  30  33
ATOM     32  C   UNL     1       3.990   8.408  -1.921  0.00  0.00    +0.012 C 
ATOM     33  C   UNL     1       3.689   8.407  -2.374  0.00  0.00    +0.110 C 
ENDBRANCH  30  33
ENDBRANCH  29  30
ENDBRANCH   1  29
TORSDOF 5
ENDMDL
MODEL 2
REMARK VINA RESULT:      -7.6      2.788      4.178
REMARK  Name = 
REMARK  5 active torsions:
REMARK  status: ('A' for Active; 'I' for Inactive)
REMARK    1  A    between atoms: C_2  and  C_3
REMARK    2  A    between atoms: C_3  and  O_5
REMARK    3  A    between atoms: O_5  and  C_6
REMARK    4  A    between atoms: C_6  and  C_7
REMARK    5  A    between atoms: C_7  and  C_9
REMARK                            x       y       z     vdW  Elec       q    Type
REMARK                         _______ _______ _______ _____ _____    ______ ____
ROOT
ATOM      1  C   UNL     1       1.672   5.634  -7.059  0.00  0.00    +0.187 C 
ATOM      2  C   UNL     1       2.353   5.357  -8.298  0.00  0.00    +0.043 C 
ATOM      3  C   UNL     1       3.786   5.826  -7.705  0.00  0.00    +0.007 C 
ATOM      4  C   UNL     1       4.706   5.095  -8.923  0.00  0.00    +0.036 C 
ATOM      5  C   UNL     1       4.320   6.167 -10.063  0.00  0.00    +0.168 C 
ATOM      6  C   UNL     1       2.928   5.534 -10.654  0.00  0.00    +0.182 C 
ATOM      7  O   UNL     1       2.696   6.728 -11.559  0.00  0.00    -0.220 OA
ATOM      8  F   UNL     1       4.107   7.366  -9.566  0.00  0.00    -0.237 F 
ATOM      9  C   UNL     1       5.374   6.098 -11.077  0.00  0.00    +0.066 C 
ATOM     10  C   UNL     1       6.648   5.527 -10.780  0.00  0.00    -0.003 C 
ATOM     11  C   UNL     1       7.531   5.353 -11.738  0.00  0.00    +0.036 C 
ATOM     12  C   UNL     1       7.379   6.168 -12.956  0.00  0.00    +0.195 C 
ATOM     13  C   UNL     1       6.542   7.357 -12.725  0.00  0.00    +0.038 C 
ATOM     14  O   UNL     1       8.440   6.233 -13.654  0.00  0.00    -0.287 OA
ATOM     15  C   UNL     1       7.068   4.952  -9.335  0.00  0.00    +0.180 C 
ATOM     16  F   UNL     1       8.192   5.953  -9.193  0.00  0.00    -0.233 F 
ATOM     17  C   UNL     1       4.806   5.368 -12.297  0.00  0.00    +0.011 C 
ATOM     18  C   UNL     1       5.733   7.442 -11.664  0.00  0.00    -0.017 C 
ATOM     19  C   UNL     1       6.028   5.947  -8.522  0.00  0.00    +0.042 C 
ATOM     20  C   UNL     1       3.802   4.483  -6.814  0.00  0.00    +0.004 C 
ATOM     21  C   UNL     1       2.507   3.951  -8.767  0.00  0.00    +0.004 C 
ATOM     22  C   UNL     1       2.009   6.198  -9.450  0.00  0.00    +0.039 C 
ATOM     23  C   UNL     1       2.458   4.765  -5.934  0.00  0.00    +0.044 C 
ATOM     24  C   UNL     1       1.795   3.330  -6.338  0.00  0.00    +0.004 C 
ENDROOT
BRANCH   1  25
ATOM     25  C   UNL     1       0.258   5.565  -6.886  0.00  0.00    +0.203 C 
ATOM     26  O   UNL     1      -0.503   5.409  -7.849  0.00  0.00    -0.291 OA
BRANCH  25  27
ATOM     27  C   UNL     1      -0.568   6.003  -5.711  0.00  0.00    +0.163 C 
ATOM     28 CL   UNL     1      -2.259   5.805  -6.167  0.00  0.00    -0.105 Cl
ENDBRANCH  25  27
ENDBRANCH   1  25
BRANCH   1  29
ATOM     29  O   UNL     1       2.089   6.929  -6.583  0.00  0.00    -0.449 OA
BRANCH  29  30
ATOM     30  C   UNL     1       2.770   7.035  -5.368  0.00  0.00    +0.317 C 
ATOM     31  O   UNL     1       3.842   7.713  -5.416  0.00  0.00    -0.250 OA
BRANCH  30  33
ATOM     32  C   UNL     1       2.317   7.026  -3.539  0.00  0.00    +0.012 C 
ATOM     33  C   UNL     1       2.095   7.001  -4.036  0.00  0.00    +0.110 C 
ENDBRANCH  30  33
ENDBRANCH  29  30
ENDBRANCH   1  29
TORSDOF 5
ENDMDL
MODEL 3
REMARK VINA RESULT:      -7.6      2.926      7.612
REMARK  Name = 
REMARK  5 active torsions:
REMARK  status: ('A' for Active; 'I' for Inactive)
REMARK    1  A    between atoms: C_2  and  C_3
REMARK    2  A    between atoms: C_3  and  O_5
REMARK    3  A    between atoms: O_5  and  C_6
REMARK    4  A    between atoms: C_6  and  C_7
REMARK    5  A    between atoms: C_7  and  C_9
REMARK                            x       y       z     vdW  Elec       q    Type
REMARK                         _______ _______ _______ _____ _____    ______ ____
ROOT
ATOM      1  C   UNL     1       1.399   5.651 -10.994  0.00  0.00    +0.187 C 
ATOM      2  C   UNL     1       2.053   5.309  -9.758  0.00  0.00    +0.043 C 
ATOM      3  C   UNL     1       1.025   6.199  -8.877  0.00  0.00    +0.007 C 
ATOM      4  C   UNL     1       1.427   5.483  -7.397  0.00  0.00    +0.036 C 
ATOM      5  C   UNL     1       2.864   6.202  -7.270  0.00  0.00    +0.168 C 
ATOM      6  C   UNL     1       3.826   5.166  -8.099  0.00  0.00    +0.182 C 
ATOM      7  O   UNL     1       5.028   6.082  -7.971  0.00  0.00    -0.220 OA
ATOM      8  F   UNL     1       2.875   7.392  -7.832  0.00  0.00    -0.237 F 
ATOM      9  C   UNL     1       3.216   6.188  -5.849  0.00  0.00    +0.066 C 
ATOM     10  C   UNL     1       2.221   5.992  -4.844  0.00  0.00    -0.003 C 
ATOM     11  C   UNL     1       2.575   5.849  -3.586  0.00  0.00    +0.036 C 
ATOM     12  C   UNL     1       3.898   6.362  -3.192  0.00  0.00    +0.195 C 
ATOM     13  C   UNL     1       4.419   7.348  -4.154  0.00  0.00    +0.038 C 
ATOM     14  O   UNL     1       4.018   6.536  -1.938  0.00  0.00    -0.287 OA
ATOM     15  C   UNL     1       0.649   5.812  -5.149  0.00  0.00    +0.180 C 
ATOM     16  F   UNL     1       0.291   7.054  -4.363  0.00  0.00    -0.233 F 
ATOM     17  C   UNL     1       4.303   5.130  -5.644  0.00  0.00    +0.011 C 
ATOM     18  C   UNL     1       3.919   7.443  -5.390  0.00  0.00    -0.017 C 
ATOM     19  C   UNL     1       0.717   6.677  -6.556  0.00  0.00    +0.042 C 
ATOM     20  C   UNL     1      -0.107   5.088  -9.167  0.00  0.00    +0.004 C 
ATOM     21  C   UNL     1       1.988   3.913  -9.238  0.00  0.00    +0.004 C 
ATOM     22  C   UNL     1       3.417   5.815  -9.564  0.00  0.00    +0.039 C 
ATOM     23  C   UNL     1      -0.153   5.213 -10.792  0.00  0.00    +0.044 C 
ATOM     24  C   UNL     1       0.094   3.614 -11.004  0.00  0.00    +0.004 C 
ENDROOT
BRANCH   1  25
ATOM     25  C   UNL     1       1.884   5.292 -12.287  0.00  0.00    +0.203 C 
ATOM     26  O   UNL     1       1.195   4.631 -13.073  0.00  0.00    -0.291 OA
BRANCH  25  27
ATOM     27  C   UNL     1       3.298   5.283 -12.792  0.00  0.00    +0.163 C 
ATOM     28 CL   UNL     1       3.254   5.858 -14.457  0.00  0.00    -0.105 Cl
ENDBRANCH  25  27
ENDBRANCH   1  25
BRANCH   1  29
ATOM     29  O   UNL     1       1.164   7.073 -11.015  0.00  0.00    -0.449 OA
BRANCH  29  30
ATOM     30  C   UNL     1       0.263   7.614 -11.935  0.00  0.00    +0.317 C 
ATOM     31  O   UNL     1      -0.717   8.233 -11.418  0.00  0.00    -0.250 OA
BRANCH  30  33
ATOM     32  C   UNL     1       0.349   8.069 -13.760  0.00  0.00    +0.012 C 
ATOM     33  C   UNL     1       0.649   8.060 -13.306  0.00  0.00    +0.110 C 
ENDBRANCH  30  33
ENDBRANCH  29  30
ENDBRANCH   1  29
TORSDOF 5
ENDMDL
MODEL 4
REMARK VINA RESULT:      -7.5      2.007      2.852
REMARK  Name = 
REMARK  5 active torsions:
REMARK  status: ('A' for Active; 'I' for Inactive)
REMARK    1  A    between atoms: C_2  and  C_3
REMARK    2  A    between atoms: C_3  and  O_5
REMARK    3  A    between atoms: O_5  and  C_6
REMARK    4  A    between atoms: C_6  and  C_7
REMARK    5  A    between atoms: C_7  and  C_9
REMARK                            x       y       z     vdW  Elec       q    Type
REMARK                         _______ _______ _______ _____ _____    ______ ____
ROOT
ATOM      1  C   UNL     1       2.629   6.514  -1.900  0.00  0.00    +0.187 C 
ATOM      2  C   UNL     1       2.175   6.017  -3.173  0.00  0.00    +0.043 C 
ATOM      3  C   UNL     1       3.584   6.360  -3.897  0.00  0.00    +0.007 C 
ATOM      4  C   UNL     1       3.305   5.387  -5.253  0.00  0.00    +0.036 C 
ATOM      5  C   UNL     1       2.211   6.368  -5.915  0.00  0.00    +0.168 C 
ATOM      6  C   UNL     1       0.830   5.859  -5.193  0.00  0.00    +0.182 C 
ATOM      7  O   UNL     1       0.014   6.966  -5.831  0.00  0.00    -0.220 OA
ATOM      8  F   UNL     1       2.441   7.632  -5.631  0.00  0.00    -0.237 F 
ATOM      9  C   UNL     1       2.176   6.053  -7.345  0.00  0.00    +0.066 C 
ATOM     10  C   UNL     1       3.253   5.359  -7.974  0.00  0.00    -0.003 C 
ATOM     11  C   UNL     1       3.144   4.968  -9.224  0.00  0.00    +0.036 C 
ATOM     12  C   UNL     1       2.150   5.657 -10.065  0.00  0.00    +0.195 C 
ATOM     13  C   UNL     1       1.761   6.962  -9.505  0.00  0.00    +0.038 C 
ATOM     14  O   UNL     1       2.353   5.508 -11.311  0.00  0.00    -0.287 OA
ATOM     15  C   UNL     1       4.598   4.896  -7.216  0.00  0.00    +0.180 C 
ATOM     16  F   UNL     1       5.469   5.754  -8.106  0.00  0.00    -0.233 F 
ATOM     17  C   UNL     1       0.889   5.272  -7.623  0.00  0.00    +0.011 C 
ATOM     18  C   UNL     1       1.996   7.267  -8.225  0.00  0.00    -0.017 C 
ATOM     19  C   UNL     1       4.500   6.100  -6.088  0.00  0.00    +0.042 C 
ATOM     20  C   UNL     1       4.242   5.131  -3.085  0.00  0.00    +0.004 C 
ATOM     21  C   UNL     1       1.925   4.560  -3.360  0.00  0.00    +0.004 C 
ATOM     22  C   UNL     1       1.099   6.764  -3.835  0.00  0.00    +0.039 C 
ATOM     23  C   UNL     1       3.983   5.679  -1.571  0.00  0.00    +0.044 C 
ATOM     24  C   UNL     1       3.228   4.306  -1.117  0.00  0.00    +0.004 C 
ENDROOT
BRANCH   1  25
ATOM     25  C   UNL     1       1.799   6.647  -0.747  0.00  0.00    +0.203 C 
ATOM     26  O   UNL     1       2.260   6.540   0.395  0.00  0.00    -0.291 OA
BRANCH  25  27
ATOM     27  C   UNL     1       0.303   6.565  -0.651  0.00  0.00    +0.163 C 
ATOM     28 CL   UNL     1      -0.226   7.930   0.330  0.00  0.00    -0.105 Cl
ENDBRANCH  25  27
ENDBRANCH   1  25
BRANCH   1  29
ATOM     29  O   UNL     1       3.270   7.789  -2.103  0.00  0.00    -0.449 OA
BRANCH  29  30
ATOM     30  C   UNL     1       3.838   8.461  -1.019  0.00  0.00    +0.317 C 
ATOM     31  O   UNL     1       4.983   8.037  -0.670  0.00  0.00    -0.250 OA
BRANCH  30  33
ATOM     32  C   UNL     1       3.191  10.101  -0.355  0.00  0.00    +0.012 C 
ATOM     33  C   UNL     1       3.561   9.892  -0.696  0.00  0.00    +0.110 C 
ENDBRANCH  30  33
ENDBRANCH  29  30
ENDBRANCH   1  29
TORSDOF 5
ENDMDL
MODEL 5
REMARK VINA RESULT:      -7.2      3.264      6.434
REMARK  Name = 
REMARK  5 active torsions:
REMARK  status: ('A' for Active; 'I' for Inactive)
REMARK    1  A    between atoms: C_2  and  C_3
REMARK    2  A    between atoms: C_3  and  O_5
REMARK    3  A    between atoms: O_5  and  C_6
REMARK    4  A    between atoms: C_6  and  C_7
REMARK    5  A    between atoms: C_7  and  C_9
REMARK                            x       y       z     vdW  Elec       q    Type
REMARK                         _______ _______ _______ _____ _____    ______ ____
ROOT
ATOM      1  C   UNL     1       3.297   5.425  -7.884  0.00  0.00    +0.187 C 
ATOM      2  C   UNL     1       2.430   5.230  -6.750  0.00  0.00    +0.043 C 
ATOM      3  C   UNL     1       1.131   5.775  -7.551  0.00  0.00    +0.007 C 
ATOM      4  C   UNL     1       0.000   5.143  -6.463  0.00  0.00    +0.036 C 
ATOM      5  C   UNL     1       0.295   6.220  -5.301  0.00  0.00    +0.168 C 
ATOM      6  C   UNL     1       1.542   5.514  -4.505  0.00  0.00    +0.182 C 
ATOM      7  O   UNL     1       1.726   6.717  -3.599  0.00  0.00    -0.220 OA
ATOM      8  F   UNL     1       0.659   7.388  -5.786  0.00  0.00    -0.237 F 
ATOM      9  C   UNL     1      -0.894   6.251  -4.446  0.00  0.00    +0.066 C 
ATOM     10  C   UNL     1      -2.151   5.757  -4.911  0.00  0.00    -0.003 C 
ATOM     11  C   UNL     1      -3.170   5.670  -4.086  0.00  0.00    +0.036 C 
ATOM     12  C   UNL     1      -3.135   6.509  -2.876  0.00  0.00    +0.195 C 
ATOM     13  C   UNL     1      -2.193   7.632  -3.007  0.00  0.00    +0.038 C 
ATOM     14  O   UNL     1      -4.276   6.664  -2.337  0.00  0.00    -0.287 OA
ATOM     15  C   UNL     1      -2.400   5.168  -6.390  0.00  0.00    +0.180 C 
ATOM     16  F   UNL     1      -3.421   6.237  -6.710  0.00  0.00    -0.233 F 
ATOM     17  C   UNL     1      -0.556   5.521  -3.144  0.00  0.00    +0.011 C 
ATOM     18  C   UNL     1      -1.239   7.633  -3.943  0.00  0.00    -0.017 C 
ATOM     19  C   UNL     1      -1.190   6.068  -7.066  0.00  0.00    +0.042 C 
ATOM     20  C   UNL     1       1.148   4.410  -8.408  0.00  0.00    +0.004 C 
ATOM     21  C   UNL     1       2.114   3.852  -6.280  0.00  0.00    +0.004 C 
ATOM     22  C   UNL     1       2.666   6.080  -5.577  0.00  0.00    +0.039 C 
ATOM     23  C   UNL     1       2.619   4.577  -9.092  0.00  0.00    +0.044 C 
ATOM     24  C   UNL     1       3.117   3.113  -8.570  0.00  0.00    +0.004 C 
ENDROOT
BRANCH   1  25
ATOM     25  C   UNL     1       4.713   5.258  -7.852  0.00  0.00    +0.203 C 
ATOM     26  O   UNL     1       5.425   5.931  -7.097  0.00  0.00    -0.291 OA
BRANCH  25  27
ATOM     27  C   UNL     1       5.606   4.601  -8.865  0.00  0.00    +0.163 C 
ATOM     28 CL   UNL     1       7.071   5.574  -8.968  0.00  0.00    -0.105 Cl
ENDBRANCH  25  27
ENDBRANCH   1  25
BRANCH   1  29
ATOM     29  O   UNL     1       3.042   6.730  -8.441  0.00  0.00    -0.449 OA
BRANCH  29  30
ATOM     30  C   UNL     1       3.181   6.937  -9.815  0.00  0.00    +0.317 C 
ATOM     31  O   UNL     1       2.100   7.204 -10.425  0.00  0.00    -0.250 OA
BRANCH  30  33
ATOM     32  C   UNL     1       4.688   7.293 -10.888  0.00  0.00    +0.012 C 
ATOM     33  C   UNL     1       4.422   7.475 -10.448  0.00  0.00    +0.110 C 
ENDBRANCH  30  33
ENDBRANCH  29  30
ENDBRANCH   1  29
TORSDOF 5
ENDMDL
MODEL 6
REMARK VINA RESULT:      -7.2      2.164      3.105
REMARK  Name = 
REMARK  5 active torsions:
REMARK  status: ('A' for Active; 'I' for Inactive)
REMARK    1  A    between atoms: C_2  and  C_3
REMARK    2  A    between atoms: C_3  and  O_5
REMARK    3  A    between atoms: O_5  and  C_6
REMARK    4  A    between atoms: C_6  and  C_7
REMARK    5  A    between atoms: C_7  and  C_9
REMARK                            x       y       z     vdW  Elec       q    Type
REMARK                         _______ _______ _______ _____ _____    ______ ____
ROOT
ATOM      1  C   UNL     1       0.382   6.347  -4.432  0.00  0.00    +0.187 C 
ATOM      2  C   UNL     1       0.705   5.690  -5.673  0.00  0.00    +0.043 C 
ATOM      3  C   UNL     1       1.504   6.981  -6.239  0.00  0.00    +0.007 C 
ATOM      4  C   UNL     1       2.305   6.142  -7.471  0.00  0.00    +0.036 C 
ATOM      5  C   UNL     1       1.004   5.975  -8.407  0.00  0.00    +0.168 C 
ATOM      6  C   UNL     1       0.346   4.595  -7.814  0.00  0.00    +0.182 C 
ATOM      7  O   UNL     1      -0.874   4.720  -8.707  0.00  0.00    -0.220 OA
ATOM      8  F   UNL     1       0.165   6.980  -8.275  0.00  0.00    -0.237 F 
ATOM      9  C   UNL     1       1.493   5.755  -9.769  0.00  0.00    +0.066 C 
ATOM     10  C   UNL     1       2.824   6.110 -10.142  0.00  0.00    -0.003 C 
ATOM     11  C   UNL     1       3.286   5.783 -11.328  0.00  0.00    +0.036 C 
ATOM     12  C   UNL     1       2.299   5.499 -12.385  0.00  0.00    +0.195 C 
ATOM     13  C   UNL     1       0.976   6.064 -12.072  0.00  0.00    +0.038 C 
ATOM     14  O   UNL     1       2.784   5.565 -13.558  0.00  0.00    -0.287 OA
ATOM     15  C   UNL     1       3.887   6.807  -9.151  0.00  0.00    +0.180 C 
ATOM     16  F   UNL     1       3.991   8.036 -10.026  0.00  0.00    -0.233 F 
ATOM     17  C   UNL     1       1.291   4.275 -10.108  0.00  0.00    +0.011 C 
ATOM     18  C   UNL     1       0.653   6.429 -10.827  0.00  0.00    -0.017 C 
ATOM     19  C   UNL     1       2.715   7.518  -8.227  0.00  0.00    +0.042 C 
ATOM     20  C   UNL     1       2.677   6.656  -5.182  0.00  0.00    +0.004 C 
ATOM     21  C   UNL     1       1.654   4.542  -5.686  0.00  0.00    +0.004 C 
ATOM     22  C   UNL     1      -0.413   5.382  -6.574  0.00  0.00    +0.039 C 
ATOM     23  C   UNL     1       1.810   6.809  -3.809  0.00  0.00    +0.044 C 
ATOM     24  C   UNL     1       2.246   5.331  -3.273  0.00  0.00    +0.004 C 
ENDROOT
BRANCH   1  25
ATOM     25  C   UNL     1      -0.477   5.801  -3.433  0.00  0.00    +0.203 C 
ATOM     26  O   UNL     1      -1.340   4.961  -3.714  0.00  0.00    -0.291 OA
BRANCH  25  27
ATOM     27  C   UNL     1      -0.776   6.328  -2.060  0.00  0.00    +0.163 C 
ATOM     28 CL   UNL     1      -2.477   5.999  -1.740  0.00  0.00    -0.105 Cl
ENDBRANCH  25  27
ENDBRANCH   1  25
BRANCH   1  29
ATOM     29  O   UNL     1      -0.103   7.672  -4.724  0.00  0.00    -0.449 OA
BRANCH  29  30
ATOM     30  C   UNL     1      -1.460   7.964  -4.567  0.00  0.00    +0.317 C 
ATOM     31  O   UNL     1      -1.703   9.085  -4.021  0.00  0.00    -0.250 OA
BRANCH  30  33
ATOM     32  C   UNL     1      -3.068   7.479  -5.418  0.00  0.00    +0.012 C 
ATOM     33  C   UNL     1      -2.527   7.452  -5.476  0.00  0.00    +0.110 C 
ENDBRANCH  30  33
ENDBRANCH  29  30
ENDBRANCH   1  29
TORSDOF 5
ENDMDL
MODEL 7
REMARK VINA RESULT:      -6.7      1.793      2.999
REMARK  Name = 
REMARK  5 active torsions:
REMARK  status: ('A' for Active; 'I' for Inactive)
REMARK    1  A    between atoms: C_2  and  C_3
REMARK    2  A    between atoms: C_3  and  O_5
REMARK    3  A    between atoms: O_5  and  C_6
REMARK    4  A    between atoms: C_6  and  C_7
REMARK    5  A    between atoms: C_7  and  C_9
REMARK                            x       y       z     vdW  Elec       q    Type
REMARK                         _______ _______ _______ _____ _____    ______ ____
ROOT
ATOM      1  C   UNL     1       3.455   6.265  -2.830  0.00  0.00    +0.187 C 
ATOM      2  C   UNL     1       3.452   5.666  -4.140  0.00  0.00    +0.043 C 
ATOM      3  C   UNL     1       2.819   6.990  -4.829  0.00  0.00    +0.007 C 
ATOM      4  C   UNL     1       3.220   6.548  -6.413  0.00  0.00    +0.036 C 
ATOM      5  C   UNL     1       2.097   5.399  -6.535  0.00  0.00    +0.168 C 
ATOM      6  C   UNL     1       2.882   4.102  -5.912  0.00  0.00    +0.182 C 
ATOM      7  O   UNL     1       1.641   3.234  -5.995  0.00  0.00    -0.220 OA
ATOM      8  F   UNL     1       1.025   5.675  -5.823  0.00  0.00    -0.237 F 
ATOM      9  C   UNL     1       1.853   5.202  -7.965  0.00  0.00    +0.066 C 
ATOM     10  C   UNL     1       2.227   6.193  -8.922  0.00  0.00    -0.003 C 
ATOM     11  C   UNL     1       2.123   5.940 -10.207  0.00  0.00    +0.036 C 
ATOM     12  C   UNL     1       1.199   4.867 -10.614  0.00  0.00    +0.195 C 
ATOM     13  C   UNL     1       0.213   4.559  -9.565  0.00  0.00    +0.038 C 
ATOM     14  O   UNL     1       0.864   4.928 -11.839  0.00  0.00    -0.287 OA
ATOM     15  C   UNL     1       2.898   7.608  -8.544  0.00  0.00    +0.180 C 
ATOM     16  F   UNL     1       1.743   8.385  -9.134  0.00  0.00    -0.233 F 
ATOM     17  C   UNL     1       2.511   3.882  -8.376  0.00  0.00    +0.011 C 
ATOM     18  C   UNL     1       0.403   4.939  -8.298  0.00  0.00    -0.017 C 
ATOM     19  C   UNL     1       2.209   7.652  -7.042  0.00  0.00    +0.042 C 
ATOM     20  C   UNL     1       4.242   7.719  -4.616  0.00  0.00    +0.004 C 
ATOM     21  C   UNL     1       4.739   5.378  -4.834  0.00  0.00    +0.004 C 
ATOM     22  C   UNL     1       2.545   4.532  -4.352  0.00  0.00    +0.039 C 
ATOM     23  C   UNL     1       4.310   7.637  -2.989  0.00  0.00    +0.044 C 
ATOM     24  C   UNL     1       5.776   6.921  -3.006  0.00  0.00    +0.004 C 
ENDROOT
BRANCH   1  25
ATOM     25  C   UNL     1       3.790   5.571  -1.630  0.00  0.00    +0.203 C 
ATOM     26  O   UNL     1       4.090   6.179  -0.595  0.00  0.00    -0.291 OA
BRANCH  25  27
ATOM     27  C   UNL     1       4.194   4.135  -1.455  0.00  0.00    +0.163 C 
ATOM     28 CL   UNL     1       2.805   3.289  -0.776  0.00  0.00    -0.105 Cl
ENDBRANCH  25  27
ENDBRANCH   1  25
BRANCH   1  29
ATOM     29  O   UNL     1       2.178   6.895  -2.607  0.00  0.00    -0.449 OA
BRANCH  29  30
ATOM     30  C   UNL     1       1.242   6.288  -1.767  0.00  0.00    +0.317 C 
ATOM     31  O   UNL     1       0.971   6.942  -0.713  0.00  0.00    -0.250 OA
BRANCH  30  33
ATOM     32  C   UNL     1      -0.378   5.419  -2.175  0.00  0.00    +0.012 C 
ATOM     33  C   UNL     1       0.160   5.382  -2.253  0.00  0.00    +0.110 C 
ENDBRANCH  30  33
ENDBRANCH  29  30
ENDBRANCH   1  29
TORSDOF 5
ENDMDL
MODEL 8
REMARK VINA RESULT:      -6.7      3.102      7.267
REMARK  Name = 
REMARK  5 active torsions:
REMARK  status: ('A' for Active; 'I' for Inactive)
REMARK    1  A    between atoms: C_2  and  C_3
REMARK    2  A    between atoms: C_3  and  O_5
REMARK    3  A    between atoms: O_5  and  C_6
REMARK    4  A    between atoms: C_6  and  C_7
REMARK    5  A    between atoms: C_7  and  C_9
REMARK                            x       y       z     vdW  Elec       q    Type
REMARK                         _______ _______ _______ _____ _____    ______ ____
ROOT
ATOM      1  C   UNL     1       1.854   5.540  -8.221  0.00  0.00    +0.187 C 
ATOM      2  C   UNL     1       1.735   5.880  -6.826  0.00  0.00    +0.043 C 
ATOM      3  C   UNL     1       3.334   6.075  -6.657  0.00  0.00    +0.007 C 
ATOM      4  C   UNL     1       3.235   6.923  -5.196  0.00  0.00    +0.036 C 
ATOM      5  C   UNL     1       2.844   5.638  -4.306  0.00  0.00    +0.168 C 
ATOM      6  C   UNL     1       1.213   5.608  -4.467  0.00  0.00    +0.182 C 
ATOM      7  O   UNL     1       1.099   4.301  -3.705  0.00  0.00    -0.220 OA
ATOM      8  F   UNL     1       3.374   4.528  -4.775  0.00  0.00    -0.237 F 
ATOM      9  C   UNL     1       3.207   5.958  -2.924  0.00  0.00    +0.066 C 
ATOM     10  C   UNL     1       4.132   7.005  -2.627  0.00  0.00    -0.003 C 
ATOM     11  C   UNL     1       4.342   7.365  -1.381  0.00  0.00    +0.036 C 
ATOM     12  C   UNL     1       4.001   6.393  -0.329  0.00  0.00    +0.195 C 
ATOM     13  C   UNL     1       3.908   5.020  -0.852  0.00  0.00    +0.038 C 
ATOM     14  O   UNL     1       4.563   6.638   0.785  0.00  0.00    -0.287 OA
ATOM     15  C   UNL     1       4.884   7.891  -3.743  0.00  0.00    +0.180 C 
ATOM     16  F   UNL     1       6.247   7.420  -3.289  0.00  0.00    -0.233 F 
ATOM     17  C   UNL     1       1.915   6.243  -2.152  0.00  0.00    +0.011 C 
ATOM     18  C   UNL     1       3.769   4.783  -2.160  0.00  0.00    -0.017 C 
ATOM     19  C   UNL     1       4.813   6.699  -4.887  0.00  0.00    +0.042 C 
ATOM     20  C   UNL     1       3.209   7.434  -7.516  0.00  0.00    +0.004 C 
ATOM     21  C   UNL     1       1.087   7.159  -6.422  0.00  0.00    +0.004 C 
ATOM     22  C   UNL     1       1.280   4.819  -5.919  0.00  0.00    +0.039 C 
ATOM     23  C   UNL     1       2.639   6.789  -8.901  0.00  0.00    +0.044 C 
ATOM     24  C   UNL     1       1.355   7.796  -8.935  0.00  0.00    +0.004 C 
ENDROOT
BRANCH   1  25
ATOM     25  C   UNL     1       0.771   5.092  -9.035  0.00  0.00    +0.203 C 
ATOM     26  O   UNL     1      -0.386   5.049  -8.602  0.00  0.00    -0.291 OA
BRANCH  25  27
ATOM     27  C   UNL     1       0.818   4.295 -10.307  0.00  0.00    +0.163 C 
ATOM     28 CL   UNL     1       0.413   5.397 -11.620  0.00  0.00    -0.105 Cl
ENDBRANCH  25  27
ENDBRANCH   1  25
BRANCH   1  29
ATOM     29  O   UNL     1       2.918   4.579  -8.373  0.00  0.00    -0.449 OA
BRANCH  29  30
ATOM     30  C   UNL     1       4.062   4.920  -9.097  0.00  0.00    +0.317 C 
ATOM     31  O   UNL     1       5.157   4.566  -8.560  0.00  0.00    -0.250 OA
BRANCH  30  33
ATOM     32  C   UNL     1       4.514   5.164 -10.909  0.00  0.00    +0.012 C 
ATOM     33  C   UNL     1       4.092   5.048 -10.584  0.00  0.00    +0.110 C 
ENDBRANCH  30  33
ENDBRANCH  29  30
ENDBRANCH   1  29
TORSDOF 5
ENDMDL
MODEL 9
REMARK VINA RESULT:      -6.7      2.922      7.627
REMARK  Name = 
REMARK  5 active torsions:
REMARK  status: ('A' for Active; 'I' for Inactive)
REMARK    1  A    between atoms: C_2  and  C_3
REMARK    2  A    between atoms: C_3  and  O_5
REMARK    3  A    between atoms: O_5  and  C_6
REMARK    4  A    between atoms: C_6  and  C_7
REMARK    5  A    between atoms: C_7  and  C_9
REMARK                            x       y       z     vdW  Elec       q    Type
REMARK                         _______ _______ _______ _____ _____    ______ ____
ROOT
ATOM      1  C   UNL     1       2.102   5.879  -7.526  0.00  0.00    +0.187 C 
ATOM      2  C   UNL     1       3.045   5.994  -6.443  0.00  0.00    +0.043 C 
ATOM      3  C   UNL     1       1.955   5.519  -5.341  0.00  0.00    +0.007 C 
ATOM      4  C   UNL     1       3.092   5.175  -4.136  0.00  0.00    +0.036 C 
ATOM      5  C   UNL     1       3.425   6.716  -3.802  0.00  0.00    +0.168 C 
ATOM      6  C   UNL     1       4.599   7.045  -4.898  0.00  0.00    +0.182 C 
ATOM      7  O   UNL     1       4.641   8.509  -4.505  0.00  0.00    -0.220 OA
ATOM      8  F   UNL     1       2.386   7.501  -3.990  0.00  0.00    -0.237 F 
ATOM      9  C   UNL     1       3.979   6.741  -2.447  0.00  0.00    +0.066 C 
ATOM     10  C   UNL     1       3.774   5.654  -1.545  0.00  0.00    -0.003 C 
ATOM     11  C   UNL     1       4.390   5.636  -0.384  0.00  0.00    +0.036 C 
ATOM     12  C   UNL     1       4.876   6.922   0.145  0.00  0.00    +0.195 C 
ATOM     13  C   UNL     1       4.203   8.070  -0.485  0.00  0.00    +0.038 C 
ATOM     14  O   UNL     1       5.108   6.897   1.394  0.00  0.00    -0.287 OA
ATOM     15  C   UNL     1       2.904   4.343  -1.891  0.00  0.00    +0.180 C 
ATOM     16  F   UNL     1       1.922   4.623  -0.777  0.00  0.00    -0.233 F 
ATOM     17  C   UNL     1       5.488   6.976  -2.561  0.00  0.00    +0.011 C 
ATOM     18  C   UNL     1       3.542   7.940  -1.640  0.00  0.00    -0.017 C 
ATOM     19  C   UNL     1       1.950   5.136  -2.983  0.00  0.00    +0.042 C 
ATOM     20  C   UNL     1       2.067   4.029  -5.947  0.00  0.00    +0.004 C 
ATOM     21  C   UNL     1       4.200   5.056  -6.356  0.00  0.00    +0.004 C 
ATOM     22  C   UNL     1       3.513   7.343  -6.108  0.00  0.00    +0.039 C 
ATOM     23  C   UNL     1       1.561   4.349  -7.463  0.00  0.00    +0.044 C 
ATOM     24  C   UNL     1       2.887   3.674  -8.134  0.00  0.00    +0.004 C 
ENDROOT
BRANCH   1  25
ATOM     25  C   UNL     1       2.363   6.292  -8.867  0.00  0.00    +0.203 C 
ATOM     26  O   UNL     1       2.122   7.444  -9.245  0.00  0.00    -0.291 OA
BRANCH  25  27
ATOM     27  C   UNL     1       2.587   5.443 -10.085  0.00  0.00    +0.163 C 
ATOM     28 CL   UNL     1       4.207   5.806 -10.675  0.00  0.00    -0.105 Cl
ENDBRANCH  25  27
ENDBRANCH   1  25
BRANCH   1  29
ATOM     29  O   UNL     1       0.865   6.504  -7.129  0.00  0.00    -0.449 OA
BRANCH  29  30
ATOM     30  C   UNL     1      -0.352   5.975  -7.567  0.00  0.00    +0.317 C 
ATOM     31  O   UNL     1      -0.336   5.512  -8.749  0.00  0.00    -0.250 OA
BRANCH  30  33
ATOM     32  C   UNL     1      -1.855   5.550  -6.515  0.00  0.00    +0.012 C 
ATOM     33  C   UNL     1      -1.363   5.363  -6.655  0.00  0.00    +0.110 C 
ENDBRANCH  30  33
ENDBRANCH  29  30
ENDBRANCH   1  29
TORSDOF 5
ENDMDL
