MODEL 1
REMARK VINA RESULT:      -8.3      0.000      0.000
REMARK  Name = 
REMARK  0 active torsions:
REMARK  status: ('A' for Active; 'I' for Inactive)
REMARK                            x       y       z     vdW  Elec       q    Type
REMARK                         _______ _______ _______ _____ _____    ______ ____
ROOT
ATOM      1  N   UNL     1       2.873   3.741  -8.695  0.00  0.00    -0.069 NA
ATOM      2  C   UNL     1       3.040   5.129  -9.009  0.00  0.00    +0.350 C 
ATOM      3  N   UNL     1       3.284   5.476 -10.362  0.00  0.00    -0.220 N 
ATOM      4  C   UNL     1       2.108   5.660 -11.157  0.00  0.00    +0.062 A 
ATOM      5  C   UNL     1       2.105   5.914 -12.522  0.00  0.00    +0.049 A 
ATOM      6  C   UNL     1       1.098   6.641 -13.123  0.00  0.00    +0.004 A 
ATOM      7  C   UNL     1       0.176   7.293 -12.317  0.00  0.00    +0.000 A 
ATOM      8  C   UNL     1       0.148   7.052 -10.952  0.00  0.00    +0.001 A 
ATOM      9  C   UNL     1       3.107   5.412 -13.467  0.00  0.00    +0.179 C 
ATOM     10  O   UNL     1       2.708   5.419 -14.666  0.00  0.00    -0.291 OA
ATOM     11  C   UNL     1       4.530   5.054 -13.329  0.00  0.00    +0.097 C 
ATOM     12  C   UNL     1       5.116   5.421 -12.028  0.00  0.00    -0.000 A 
ATOM     13  C   UNL     1       6.441   5.786 -12.227  0.00  0.00    -0.003 A 
ATOM     14  C   UNL     1       7.141   6.462 -11.246  0.00  0.00    -0.000 A 
ATOM     15  C   UNL     1       6.709   6.349  -9.937  0.00  0.00    +0.001 A 
ATOM     16  C   UNL     1       5.483   5.750  -9.675  0.00  0.00    +0.015 A 
ATOM     17  C   UNL     1       1.108   6.229 -10.376  0.00  0.00    +0.015 A 
ATOM     18  C   UNL     1       4.661   5.405 -10.738  0.00  0.00    +0.056 A 
ATOM     19  O   UNL     1       2.476   5.993  -8.299  0.00  0.00    -0.248 OA
ENDROOT
TORSDOF 0
ENDMDL
MODEL 2
REMARK VINA RESULT:      -8.3      5.846      7.184
REMARK  Name = 
REMARK  0 active torsions:
REMARK  status: ('A' for Active; 'I' for Inactive)
REMARK                            x       y       z     vdW  Elec       q    Type
REMARK                         _______ _______ _______ _____ _____    ______ ____
ROOT
ATOM      1  N   UNL     1       0.620   4.592  -1.471  0.00  0.00    -0.069 NA
ATOM      2  C   UNL     1       0.527   5.775  -2.273  0.00  0.00    +0.350 C 
ATOM      3  N   UNL     1       1.112   5.746  -3.565  0.00  0.00    -0.220 N 
ATOM      4  C   UNL     1       0.262   5.239  -4.599  0.00  0.00    +0.062 A 
ATOM      5  C   UNL     1       0.651   5.035  -5.916  0.00  0.00    +0.049 A 
ATOM      6  C   UNL     1      -0.247   5.127  -6.960  0.00  0.00    +0.004 A 
ATOM      7  C   UNL     1      -1.518   5.623  -6.703  0.00  0.00    +0.000 A 
ATOM      8  C   UNL     1      -1.937   5.826  -5.398  0.00  0.00    +0.001 A 
ATOM      9  C   UNL     1       2.002   4.657  -6.339  0.00  0.00    +0.179 C 
ATOM     10  O   UNL     1       2.037   4.146  -7.495  0.00  0.00    -0.291 OA
ATOM     11  C   UNL     1       3.339   4.894  -5.766  0.00  0.00    +0.097 C 
ATOM     12  C   UNL     1       3.346   5.832  -4.631  0.00  0.00    -0.000 A 
ATOM     13  C   UNL     1       4.524   6.565  -4.670  0.00  0.00    -0.003 A 
ATOM     14  C   UNL     1       4.665   7.717  -3.920  0.00  0.00    -0.000 A 
ATOM     15  C   UNL     1       3.864   7.871  -2.803  0.00  0.00    +0.001 A 
ATOM     16  C   UNL     1       2.813   6.988  -2.591  0.00  0.00    +0.015 A 
ATOM     17  C   UNL     1      -1.050   5.625  -4.347  0.00  0.00    +0.015 A 
ATOM     18  C   UNL     1       2.506   6.058  -3.575  0.00  0.00    +0.056 A 
ATOM     19  O   UNL     1      -0.439   6.555  -2.111  0.00  0.00    -0.248 OA
ENDROOT
TORSDOF 0
ENDMDL
MODEL 3
REMARK VINA RESULT:      -8.1      6.081      9.327
REMARK  Name = 
REMARK  0 active torsions:
REMARK  status: ('A' for Active; 'I' for Inactive)
REMARK                            x       y       z     vdW  Elec       q    Type
REMARK                         _______ _______ _______ _____ _____    ______ ____
ROOT
ATOM      1  N   UNL     1       1.772   5.432  -7.002  0.00  0.00    -0.069 NA
ATOM      2  C   UNL     1       1.769   6.661  -6.264  0.00  0.00    +0.350 C 
ATOM      3  N   UNL     1       1.655   6.583  -4.853  0.00  0.00    -0.220 N 
ATOM      4  C   UNL     1       2.895   6.420  -4.157  0.00  0.00    +0.062 A 
ATOM      5  C   UNL     1       3.016   6.232  -2.786  0.00  0.00    +0.049 A 
ATOM      6  C   UNL     1       4.131   6.657  -2.092  0.00  0.00    +0.004 A 
ATOM      7  C   UNL     1       5.057   7.457  -2.745  0.00  0.00    +0.000 A 
ATOM      8  C   UNL     1       4.967   7.654  -4.114  0.00  0.00    +0.001 A 
ATOM      9  C   UNL     1       2.036   5.537  -1.949  0.00  0.00    +0.179 C 
ATOM     10  O   UNL     1       2.514   5.137  -0.849  0.00  0.00    -0.291 OA
ATOM     11  C   UNL     1       0.577   5.348  -2.052  0.00  0.00    +0.097 C 
ATOM     12  C   UNL     1      -0.055   6.146  -3.116  0.00  0.00    -0.000 A 
ATOM     13  C   UNL     1      -1.320   6.529  -2.688  0.00  0.00    -0.003 A 
ATOM     14  C   UNL     1      -2.014   7.530  -3.342  0.00  0.00    -0.000 A 
ATOM     15  C   UNL     1      -1.685   7.800  -4.659  0.00  0.00    +0.001 A 
ATOM     16  C   UNL     1      -0.547   7.223  -5.208  0.00  0.00    +0.015 A 
ATOM     17  C   UNL     1       3.892   7.127  -4.820  0.00  0.00    +0.015 A 
ATOM     18  C   UNL     1       0.307   6.502  -4.386  0.00  0.00    +0.056 A 
ATOM     19  O   UNL     1       2.369   7.658  -6.727  0.00  0.00    -0.248 OA
ENDROOT
TORSDOF 0
ENDMDL
MODEL 4
REMARK VINA RESULT:      -7.9      1.373      5.384
REMARK  Name = 
REMARK  0 active torsions:
REMARK  status: ('A' for Active; 'I' for Inactive)
REMARK                            x       y       z     vdW  Elec       q    Type
REMARK                         _______ _______ _______ _____ _____    ______ ____
ROOT
ATOM      1  N   UNL     1       3.247   4.263 -14.344  0.00  0.00    -0.069 NA
ATOM      2  C   UNL     1       3.426   5.530 -13.701  0.00  0.00    +0.350 C 
ATOM      3  N   UNL     1       3.119   5.619 -12.319  0.00  0.00    -0.220 N 
ATOM      4  C   UNL     1       4.192   5.265 -11.441  0.00  0.00    +0.062 A 
ATOM      5  C   UNL     1       4.093   5.192 -10.057  0.00  0.00    +0.049 A 
ATOM      6  C   UNL     1       5.177   5.436  -9.238  0.00  0.00    +0.004 A 
ATOM      7  C   UNL     1       6.335   5.952  -9.803  0.00  0.00    +0.000 A 
ATOM      8  C   UNL     1       6.467   6.027 -11.181  0.00  0.00    +0.001 A 
ATOM      9  C   UNL     1       2.883   4.808  -9.325  0.00  0.00    +0.179 C 
ATOM     10  O   UNL     1       3.116   4.427  -8.143  0.00  0.00    -0.291 OA
ATOM     11  C   UNL     1       1.445   4.925  -9.627  0.00  0.00    +0.097 C 
ATOM     12  C   UNL     1       1.148   5.731 -10.823  0.00  0.00    -0.000 A 
ATOM     13  C   UNL     1      -0.041   6.415 -10.611  0.00  0.00    -0.003 A 
ATOM     14  C   UNL     1      -0.404   7.471 -11.426  0.00  0.00    -0.000 A 
ATOM     15  C   UNL     1       0.142   7.534 -12.697  0.00  0.00    +0.001 A 
ATOM     16  C   UNL     1       1.181   6.676 -13.034  0.00  0.00    +0.015 A 
ATOM     17  C   UNL     1       5.399   5.674 -11.997  0.00  0.00    +0.015 A 
ATOM     18  C   UNL     1       1.739   5.874 -12.049  0.00  0.00    +0.056 A 
ATOM     19  O   UNL     1       4.288   6.326 -14.138  0.00  0.00    -0.248 OA
ENDROOT
TORSDOF 0
ENDMDL
MODEL 5
REMARK VINA RESULT:      -7.7      6.096      8.783
REMARK  Name = 
REMARK  0 active torsions:
REMARK  status: ('A' for Active; 'I' for Inactive)
REMARK                            x       y       z     vdW  Elec       q    Type
REMARK                         _______ _______ _______ _____ _____    ______ ____
ROOT
ATOM      1  N   UNL     1      -2.028   7.433  -2.810  0.00  0.00    -0.069 NA
ATOM      2  C   UNL     1      -1.487   6.147  -3.136  0.00  0.00    +0.350 C 
ATOM      3  N   UNL     1      -0.215   6.104  -3.762  0.00  0.00    -0.220 N 
ATOM      4  C   UNL     1       0.897   6.103  -2.862  0.00  0.00    +0.062 A 
ATOM      5  C   UNL     1       2.230   6.155  -3.250  0.00  0.00    +0.049 A 
ATOM      6  C   UNL     1       3.229   5.581  -2.490  0.00  0.00    +0.004 A 
ATOM      7  C   UNL     1       2.871   4.772  -1.421  0.00  0.00    +0.000 A 
ATOM      8  C   UNL     1       1.551   4.708  -1.006  0.00  0.00    +0.001 A 
ATOM      9  C   UNL     1       2.727   6.848  -4.441  0.00  0.00    +0.179 C 
ATOM     10  O   UNL     1       3.964   7.105  -4.389  0.00  0.00    -0.291 OA
ATOM     11  C   UNL     1       2.123   7.161  -5.749  0.00  0.00    +0.097 C 
ATOM     12  C   UNL     1       0.818   6.516  -5.975  0.00  0.00    -0.000 A 
ATOM     13  C   UNL     1       0.710   6.198  -7.322  0.00  0.00    -0.003 A 
ATOM     14  C   UNL     1      -0.262   5.321  -7.765  0.00  0.00    -0.000 A 
ATOM     15  C   UNL     1      -1.390   5.146  -6.983  0.00  0.00    +0.001 A 
ATOM     16  C   UNL     1      -1.418   5.678  -5.700  0.00  0.00    +0.015 A 
ATOM     17  C   UNL     1       0.567   5.381  -1.721  0.00  0.00    +0.015 A 
ATOM     18  C   UNL     1      -0.265   6.250  -5.183  0.00  0.00    +0.056 A 
ATOM     19  O   UNL     1      -1.811   5.151  -2.450  0.00  0.00    -0.248 OA
ENDROOT
TORSDOF 0
ENDMDL
MODEL 6
REMARK VINA RESULT:      -7.6      6.721      8.428
REMARK  Name = 
REMARK  0 active torsions:
REMARK  status: ('A' for Active; 'I' for Inactive)
REMARK                            x       y       z     vdW  Elec       q    Type
REMARK                         _______ _______ _______ _____ _____    ______ ____
ROOT
ATOM      1  N   UNL     1       2.155   4.102  -0.620  0.00  0.00    -0.069 NA
ATOM      2  C   UNL     1       1.804   5.445  -0.976  0.00  0.00    +0.350 C 
ATOM      3  N   UNL     1       1.477   5.706  -2.331  0.00  0.00    -0.220 N 
ATOM      4  C   UNL     1       0.104   5.486  -2.672  0.00  0.00    +0.062 A 
ATOM      5  C   UNL     1      -0.421   5.590  -3.953  0.00  0.00    +0.049 A 
ATOM      6  C   UNL     1      -1.734   5.957  -4.171  0.00  0.00    +0.004 A 
ATOM      7  C   UNL     1      -2.484   6.416  -3.098  0.00  0.00    +0.000 A 
ATOM      8  C   UNL     1      -1.990   6.316  -1.807  0.00  0.00    +0.001 A 
ATOM      9  C   UNL     1       0.312   5.283  -5.184  0.00  0.00    +0.179 C 
ATOM     10  O   UNL     1      -0.445   5.061  -6.172  0.00  0.00    -0.291 OA
ATOM     11  C   UNL     1       1.740   5.335  -5.545  0.00  0.00    +0.097 C 
ATOM     12  C   UNL     1       2.591   5.974  -4.527  0.00  0.00    -0.000 A 
ATOM     13  C   UNL     1       3.613   6.659  -5.172  0.00  0.00    -0.003 A 
ATOM     14  C   UNL     1       4.373   7.594  -4.495  0.00  0.00    -0.000 A 
ATOM     15  C   UNL     1       4.448   7.502  -3.116  0.00  0.00    +0.001 A 
ATOM     16  C   UNL     1       3.604   6.626  -2.446  0.00  0.00    +0.015 A 
ATOM     17  C   UNL     1      -0.700   5.842  -1.595  0.00  0.00    +0.015 A 
ATOM     18  C   UNL     1       2.612   5.968  -3.159  0.00  0.00    +0.056 A 
ATOM     19  O   UNL     1       1.283   6.193  -0.117  0.00  0.00    -0.248 OA
ENDROOT
TORSDOF 0
ENDMDL
MODEL 7
REMARK VINA RESULT:      -7.4      4.864      7.232
REMARK  Name = 
REMARK  0 active torsions:
REMARK  status: ('A' for Active; 'I' for Inactive)
REMARK                            x       y       z     vdW  Elec       q    Type
REMARK                         _______ _______ _______ _____ _____    ______ ____
ROOT
ATOM      1  N   UNL     1       2.140   8.224  -7.813  0.00  0.00    -0.069 NA
ATOM      2  C   UNL     1       1.966   6.823  -7.569  0.00  0.00    +0.350 C 
ATOM      3  N   UNL     1       1.615   6.419  -6.255  0.00  0.00    -0.220 N 
ATOM      4  C   UNL     1       0.210   6.420  -5.982  0.00  0.00    +0.062 A 
ATOM      5  C   UNL     1      -0.357   6.150  -4.743  0.00  0.00    +0.049 A 
ATOM      6  C   UNL     1      -1.613   5.590  -4.627  0.00  0.00    +0.004 A 
ATOM      7  C   UNL     1      -2.237   5.112  -5.771  0.00  0.00    +0.000 A 
ATOM      8  C   UNL     1      -1.700   5.376  -7.021  0.00  0.00    +0.001 A 
ATOM      9  C   UNL     1       0.265   6.463  -3.454  0.00  0.00    +0.179 C 
ATOM     10  O   UNL     1      -0.563   6.504  -2.499  0.00  0.00    -0.291 OA
ATOM     11  C   UNL     1       1.667   6.583  -3.015  0.00  0.00    +0.097 C 
ATOM     12  C   UNL     1       2.648   6.145  -4.021  0.00  0.00    -0.000 A 
ATOM     13  C   UNL     1       3.724   5.562  -3.365  0.00  0.00    -0.003 A 
ATOM     14  C   UNL     1       4.642   4.794  -4.057  0.00  0.00    -0.000 A 
ATOM     15  C   UNL     1       4.770   4.998  -5.420  0.00  0.00    +0.001 A 
ATOM     16  C   UNL     1       3.843   5.796  -6.078  0.00  0.00    +0.015 A 
ATOM     17  C   UNL     1      -0.483   6.038  -7.125  0.00  0.00    +0.015 A 
ATOM     18  C   UNL     1       2.734   6.255  -5.382  0.00  0.00    +0.056 A 
ATOM     19  O   UNL     1       1.600   6.076  -8.505  0.00  0.00    -0.248 OA
ENDROOT
TORSDOF 0
ENDMDL
MODEL 8
REMARK VINA RESULT:      -7.3      1.907      3.806
REMARK  Name = 
REMARK  0 active torsions:
REMARK  status: ('A' for Active; 'I' for Inactive)
REMARK                            x       y       z     vdW  Elec       q    Type
REMARK                         _______ _______ _______ _____ _____    ______ ____
ROOT
ATOM      1  N   UNL     1       6.070   7.357 -12.455  0.00  0.00    -0.069 NA
ATOM      2  C   UNL     1       5.565   6.062 -12.107  0.00  0.00    +0.350 C 
ATOM      3  N   UNL     1       4.311   5.997 -11.447  0.00  0.00    -0.220 N 
ATOM      4  C   UNL     1       3.175   5.967 -12.317  0.00  0.00    +0.062 A 
ATOM      5  C   UNL     1       1.852   5.995 -11.894  0.00  0.00    +0.049 A 
ATOM      6  C   UNL     1       0.845   5.395 -12.623  0.00  0.00    +0.004 A 
ATOM      7  C   UNL     1       1.192   4.586 -13.697  0.00  0.00    +0.000 A 
ATOM      8  C   UNL     1       2.502   4.547 -14.147  0.00  0.00    +0.001 A 
ATOM      9  C   UNL     1       1.372   6.685 -10.694  0.00  0.00    +0.179 C 
ATOM     10  O   UNL     1       0.130   6.917 -10.715  0.00  0.00    -0.291 OA
ATOM     11  C   UNL     1       2.005   7.020  -9.405  0.00  0.00    +0.097 C 
ATOM     12  C   UNL     1       3.328   6.403  -9.210  0.00  0.00    -0.000 A 
ATOM     13  C   UNL     1       3.479   6.097  -7.864  0.00  0.00    -0.003 A 
ATOM     14  C   UNL     1       4.480   5.242  -7.443  0.00  0.00    -0.000 A 
ATOM     15  C   UNL     1       5.590   5.085  -8.253  0.00  0.00    +0.001 A 
ATOM     16  C   UNL     1       5.573   5.609  -9.539  0.00  0.00    +0.015 A 
ATOM     17  C   UNL     1       3.489   5.245 -13.462  0.00  0.00    +0.015 A 
ATOM     18  C   UNL     1       4.395   6.154 -10.029  0.00  0.00    +0.056 A 
ATOM     19  O   UNL     1       5.891   5.068 -12.796  0.00  0.00    -0.248 OA
ENDROOT
TORSDOF 0
ENDMDL
MODEL 9
REMARK VINA RESULT:      -7.3      6.734      9.472
REMARK  Name = 
REMARK  0 active torsions:
REMARK  status: ('A' for Active; 'I' for Inactive)
REMARK                            x       y       z     vdW  Elec       q    Type
REMARK                         _______ _______ _______ _____ _____    ______ ____
ROOT
ATOM      1  N   UNL     1       1.194   7.430  -0.311  0.00  0.00    -0.069 NA
ATOM      2  C   UNL     1       1.044   6.154  -0.946  0.00  0.00    +0.350 C 
ATOM      3  N   UNL     1       0.838   6.134  -2.349  0.00  0.00    -0.220 N 
ATOM      4  C   UNL     1       2.036   6.142  -3.132  0.00  0.00    +0.062 A 
ATOM      5  C   UNL     1       2.075   6.216  -4.519  0.00  0.00    +0.049 A 
ATOM      6  C   UNL     1       3.102   5.649  -5.246  0.00  0.00    +0.004 A 
ATOM      7  C   UNL     1       4.007   4.826  -4.590  0.00  0.00    +0.000 A 
ATOM      8  C   UNL     1       3.998   4.740  -3.208  0.00  0.00    +0.001 A 
ATOM      9  C   UNL     1       1.095   6.924  -5.346  0.00  0.00    +0.179 C 
ATOM     10  O   UNL     1       1.525   7.199  -6.503  0.00  0.00    -0.291 OA
ATOM     11  C   UNL     1      -0.333   7.241  -5.166  0.00  0.00    +0.097 C 
ATOM     12  C   UNL     1      -0.950   6.580  -4.004  0.00  0.00    -0.000 A 
ATOM     13  C   UNL     1      -2.267   6.271  -4.318  0.00  0.00    -0.003 A 
ATOM     14  C   UNL     1      -2.989   5.384  -3.543  0.00  0.00    -0.000 A 
ATOM     15  C   UNL     1      -2.591   5.187  -2.232  0.00  0.00    +0.001 A 
ATOM     16  C   UNL     1      -1.377   5.708  -1.804  0.00  0.00    +0.015 A 
ATOM     17  C   UNL     1       3.018   5.406  -2.480  0.00  0.00    +0.015 A 
ATOM     18  C   UNL     1      -0.529   6.292  -2.734  0.00  0.00    +0.056 A 
ATOM     19  O   UNL     1       1.595   5.148  -0.443  0.00  0.00    -0.248 OA
ENDROOT
TORSDOF 0
ENDMDL
