MODEL 1
REMARK VINA RESULT:      -8.3      0.000      0.000
REMARK  Name = 
REMARK  10 active torsions:
REMARK  status: ('A' for Active; 'I' for Inactive)
REMARK    1  A    between atoms: C_2  and  N_3
REMARK    2  A    between atoms: N_3  and  C_4
REMARK    3  A    between atoms: N_3  and  C_6
REMARK    4  A    between atoms: C_6  and  C_7
REMARK    5  A    between atoms: C_8  and  C_9
REMARK    6  A    between atoms: C_9  and  O_10
REMARK    7  A    between atoms: O_10  and  C_11
REMARK    8  A    between atoms: C_11  and  C_13
REMARK    9  A    between atoms: C_13  and  C_15
REMARK   10  A    between atoms: C_13  and  C_21
REMARK                            x       y       z     vdW  Elec       q    Type
REMARK                         _______ _______ _______ _____ _____    ______ ____
ROOT
ATOM      1  C   UNL     1       1.583   5.846  -6.161  0.00  0.00    +0.233 C 
ATOM      2  O   UNL     1       1.466   7.025  -6.901  0.00  0.00    -0.210 OA
ENDROOT
BRANCH   1   3
ATOM      3  C   UNL     1       2.704   6.036  -5.218  0.00  0.00    +0.015 A 
ATOM      4  C   UNL     1       3.601   7.050  -5.529  0.00  0.00    -0.001 A 
ATOM      5  C   UNL     1       4.665   7.377  -4.716  0.00  0.00    -0.000 A 
ATOM      6  C   UNL     1       4.781   6.646  -3.541  0.00  0.00    -0.000 A 
ATOM      7  C   UNL     1       3.950   5.564  -3.283  0.00  0.00    -0.000 A 
ATOM      8  C   UNL     1       3.039   5.147  -4.226  0.00  0.00    -0.001 A 
ENDBRANCH   1   3
BRANCH   1   9
ATOM      9  C   UNL     1       0.265   5.619  -5.475  0.00  0.00    +0.043 C 
ATOM     10  C   UNL     1      -0.025   6.637  -4.407  0.00  0.00    +0.003 C 
ATOM     11  C   UNL     1      -1.079   7.633  -4.821  0.00  0.00    +0.000 C 
ATOM     12  C   UNL     1      -2.358   6.967  -5.262  0.00  0.00    +0.000 C 
ATOM     13  C   UNL     1      -2.140   5.595  -5.837  0.00  0.00    +0.000 C 
ATOM     14  C   UNL     1      -0.802   5.619  -6.563  0.00  0.00    +0.003 C 
ENDBRANCH   1   9
BRANCH   1  15
ATOM     15  C   UNL     1       1.832   4.665  -7.036  0.00  0.00    +0.350 C 
ATOM     16  O   UNL     1       2.044   3.525  -6.521  0.00  0.00    -0.247 OA
BRANCH  15  17
ATOM     17  O   UNL     1       2.178   4.783  -8.381  0.00  0.00    -0.432 OA
BRANCH  17  18
ATOM     18  C   UNL     1       3.329   4.055  -8.801  0.00  0.00    +0.284 C 
BRANCH  18  20
ATOM     19  C   UNL     1       5.491   5.478  -9.263  0.00  0.00    -0.069 C 
ATOM     20  C   UNL     1       4.368   5.072  -9.041  0.00  0.00    -0.042 C 
BRANCH  19  21
ATOM     21  C   UNL     1       6.931   5.774  -9.382  0.00  0.00    +0.150 C 
BRANCH  21  22
ATOM     22  N   UNL     1       7.142   6.435 -10.664  0.00  0.00    -0.262 NA
BRANCH  22  23
ATOM     23  C   UNL     1       7.402   5.504 -11.726  0.00  0.00    +0.073 C 
ATOM     24  C   UNL     1       8.857   5.692 -12.140  0.00  0.00    +0.019 C 
ENDBRANCH  22  23
BRANCH  22  26
ATOM     25  C   UNL     1       6.487   8.290 -11.380  0.00  0.00    +0.019 C 
ATOM     26  C   UNL     1       6.112   7.394 -10.966  0.00  0.00    +0.073 C 
ENDBRANCH  22  26
ENDBRANCH  21  22
ENDBRANCH  19  21
ENDBRANCH  18  20
ENDBRANCH  17  18
ENDBRANCH  15  17
ENDBRANCH   1  15
TORSDOF 10
ENDMDL
MODEL 2
REMARK VINA RESULT:      -8.0      0.969      4.153
REMARK  Name = 
REMARK  10 active torsions:
REMARK  status: ('A' for Active; 'I' for Inactive)
REMARK    1  A    between atoms: C_2  and  N_3
REMARK    2  A    between atoms: N_3  and  C_4
REMARK    3  A    between atoms: N_3  and  C_6
REMARK    4  A    between atoms: C_6  and  C_7
REMARK    5  A    between atoms: C_8  and  C_9
REMARK    6  A    between atoms: C_9  and  O_10
REMARK    7  A    between atoms: O_10  and  C_11
REMARK    8  A    between atoms: C_11  and  C_13
REMARK    9  A    between atoms: C_13  and  C_15
REMARK   10  A    between atoms: C_13  and  C_21
REMARK                            x       y       z     vdW  Elec       q    Type
REMARK                         _______ _______ _______ _____ _____    ______ ____
ROOT
ATOM      1  C   UNL     1       1.601   6.222  -6.230  0.00  0.00    +0.233 C 
ATOM      2  O   UNL     1       1.824   4.843  -6.246  0.00  0.00    -0.210 OA
ENDROOT
BRANCH   1   3
ATOM      3  C   UNL     1       0.176   6.426  -5.898  0.00  0.00    +0.015 A 
ATOM      4  C   UNL     1      -0.732   5.627  -6.580  0.00  0.00    -0.001 A 
ATOM      5  C   UNL     1      -2.089   5.670  -6.337  0.00  0.00    -0.000 A 
ATOM      6  C   UNL     1      -2.503   6.547  -5.344  0.00  0.00    -0.000 A 
ATOM      7  C   UNL     1      -1.609   7.421  -4.739  0.00  0.00    -0.000 A 
ATOM      8  C   UNL     1      -0.303   7.485  -5.167  0.00  0.00    -0.001 A 
ENDBRANCH   1   3
BRANCH   1   9
ATOM      9  C   UNL     1       2.536   6.811  -5.211  0.00  0.00    +0.043 C 
ATOM     10  C   UNL     1       2.402   6.178  -3.854  0.00  0.00    +0.003 C 
ATOM     11  C   UNL     1       3.555   5.265  -3.520  0.00  0.00    +0.000 C 
ATOM     12  C   UNL     1       4.890   5.955  -3.640  0.00  0.00    +0.000 C 
ATOM     13  C   UNL     1       4.887   7.072  -4.647  0.00  0.00    +0.000 C 
ATOM     14  C   UNL     1       3.946   6.661  -5.771  0.00  0.00    +0.003 C 
ENDBRANCH   1   9
BRANCH   1  15
ATOM     15  C   UNL     1       1.926   6.852  -7.541  0.00  0.00    +0.350 C 
ATOM     16  O   UNL     1       1.904   8.114  -7.663  0.00  0.00    -0.247 OA
BRANCH  15  17
ATOM     17  O   UNL     1       1.931   6.139  -8.739  0.00  0.00    -0.432 OA
BRANCH  17  18
ATOM     18  C   UNL     1       2.877   6.561  -9.718  0.00  0.00    +0.284 C 
BRANCH  18  20
ATOM     19  C   UNL     1       5.309   5.650  -9.305  0.00  0.00    -0.069 C 
ATOM     20  C   UNL     1       4.110   5.812  -9.417  0.00  0.00    -0.042 C 
BRANCH  19  21
ATOM     21  C   UNL     1       6.782   5.609  -9.376  0.00  0.00    +0.150 C 
BRANCH  21  22
ATOM     22  N   UNL     1       7.176   6.137 -10.676  0.00  0.00    -0.262 NA
BRANCH  22  23
ATOM     23  C   UNL     1       7.500   7.535 -10.627  0.00  0.00    +0.073 C 
ATOM     24  C   UNL     1       6.410   8.274 -11.396  0.00  0.00    +0.019 C 
ENDBRANCH  22  23
BRANCH  22  26
ATOM     25  C   UNL     1       8.091   5.316 -12.371  0.00  0.00    +0.019 C 
ATOM     26  C   UNL     1       8.179   5.327 -11.319  0.00  0.00    +0.073 C 
ENDBRANCH  22  26
ENDBRANCH  21  22
ENDBRANCH  19  21
ENDBRANCH  18  20
ENDBRANCH  17  18
ENDBRANCH  15  17
ENDBRANCH   1  15
TORSDOF 10
ENDMDL
MODEL 3
REMARK VINA RESULT:      -7.7      2.054      4.176
REMARK  Name = 
REMARK  10 active torsions:
REMARK  status: ('A' for Active; 'I' for Inactive)
REMARK    1  A    between atoms: C_2  and  N_3
REMARK    2  A    between atoms: N_3  and  C_4
REMARK    3  A    between atoms: N_3  and  C_6
REMARK    4  A    between atoms: C_6  and  C_7
REMARK    5  A    between atoms: C_8  and  C_9
REMARK    6  A    between atoms: C_9  and  O_10
REMARK    7  A    between atoms: O_10  and  C_11
REMARK    8  A    between atoms: C_11  and  C_13
REMARK    9  A    between atoms: C_13  and  C_15
REMARK   10  A    between atoms: C_13  and  C_21
REMARK                            x       y       z     vdW  Elec       q    Type
REMARK                         _______ _______ _______ _____ _____    ______ ____
ROOT
ATOM      1  C   UNL     1       1.300   6.230  -7.935  0.00  0.00    +0.233 C 
ATOM      2  O   UNL     1       1.608   7.580  -8.120  0.00  0.00    -0.210 OA
ENDROOT
BRANCH   1   3
ATOM      3  C   UNL     1       0.106   6.173  -7.067  0.00  0.00    +0.015 A 
ATOM      4  C   UNL     1       0.163   6.919  -5.897  0.00  0.00    -0.001 A 
ATOM      5  C   UNL     1      -0.895   7.002  -5.017  0.00  0.00    -0.000 A 
ATOM      6  C   UNL     1      -2.045   6.313  -5.378  0.00  0.00    -0.000 A 
ATOM      7  C   UNL     1      -2.065   5.483  -6.491  0.00  0.00    -0.000 A 
ATOM      8  C   UNL     1      -0.917   5.269  -7.219  0.00  0.00    -0.001 A 
ENDBRANCH   1   3
BRANCH   1   9
ATOM      9  C   UNL     1       1.071   5.636  -9.296  0.00  0.00    +0.043 C 
ATOM     10  C   UNL     1      -0.199   6.116  -9.942  0.00  0.00    +0.003 C 
ATOM     11  C   UNL     1       0.049   7.100 -11.058  0.00  0.00    +0.000 C 
ATOM     12  C   UNL     1       0.989   6.556 -12.106  0.00  0.00    +0.000 C 
ATOM     13  C   UNL     1       1.961   5.549 -11.558  0.00  0.00    +0.000 C 
ATOM     14  C   UNL     1       2.297   5.975 -10.135  0.00  0.00    +0.003 C 
ENDBRANCH   1   9
BRANCH   1  15
ATOM     15  C   UNL     1       2.431   5.483  -7.314  0.00  0.00    +0.350 C 
ATOM     16  O   UNL     1       2.285   4.267  -6.984  0.00  0.00    -0.247 OA
BRANCH  15  17
ATOM     17  O   UNL     1       3.543   6.120  -6.765  0.00  0.00    -0.432 OA
BRANCH  17  18
ATOM     18  C   UNL     1       4.752   5.365  -6.740  0.00  0.00    +0.284 C 
BRANCH  18  20
ATOM     19  C   UNL     1       6.131   5.519  -8.974  0.00  0.00    -0.069 C 
ATOM     20  C   UNL     1       5.275   5.423  -8.116  0.00  0.00    -0.042 C 
BRANCH  19  21
ATOM     21  C   UNL     1       7.283   5.802  -9.849  0.00  0.00    +0.150 C 
BRANCH  21  22
ATOM     22  N   UNL     1       6.765   6.093 -11.181  0.00  0.00    -0.262 NA
BRANCH  22  23
ATOM     23  C   UNL     1       5.763   7.122 -11.168  0.00  0.00    +0.073 C 
ATOM     24  C   UNL     1       6.480   8.447 -11.399  0.00  0.00    +0.019 C 
ENDBRANCH  22  23
BRANCH  22  26
ATOM     25  C   UNL     1       8.460   5.481 -12.247  0.00  0.00    +0.019 C 
ATOM     26  C   UNL     1       7.813   6.309 -12.145  0.00  0.00    +0.073 C 
ENDBRANCH  22  26
ENDBRANCH  21  22
ENDBRANCH  19  21
ENDBRANCH  18  20
ENDBRANCH  17  18
ENDBRANCH  15  17
ENDBRANCH   1  15
TORSDOF 10
ENDMDL
MODEL 4
REMARK VINA RESULT:      -7.4      2.655      3.582
REMARK  Name = 
REMARK  10 active torsions:
REMARK  status: ('A' for Active; 'I' for Inactive)
REMARK    1  A    between atoms: C_2  and  N_3
REMARK    2  A    between atoms: N_3  and  C_4
REMARK    3  A    between atoms: N_3  and  C_6
REMARK    4  A    between atoms: C_6  and  C_7
REMARK    5  A    between atoms: C_8  and  C_9
REMARK    6  A    between atoms: C_9  and  O_10
REMARK    7  A    between atoms: O_10  and  C_11
REMARK    8  A    between atoms: C_11  and  C_13
REMARK    9  A    between atoms: C_13  and  C_15
REMARK   10  A    between atoms: C_13  and  C_21
REMARK                            x       y       z     vdW  Elec       q    Type
REMARK                         _______ _______ _______ _____ _____    ______ ____
ROOT
ATOM      1  C   UNL     1       2.208   5.909  -6.478  0.00  0.00    +0.233 C 
ATOM      2  O   UNL     1       1.948   7.225  -6.872  0.00  0.00    -0.210 OA
ENDROOT
BRANCH   1   3
ATOM      3  C   UNL     1       3.097   5.978  -5.300  0.00  0.00    +0.015 A 
ATOM      4  C   UNL     1       3.630   7.227  -5.007  0.00  0.00    -0.001 A 
ATOM      5  C   UNL     1       4.433   7.452  -3.910  0.00  0.00    -0.000 A 
ATOM      6  C   UNL     1       4.665   6.358  -3.088  0.00  0.00    -0.000 A 
ATOM      7  C   UNL     1       4.221   5.089  -3.438  0.00  0.00    -0.000 A 
ATOM      8  C   UNL     1       3.605   4.880  -4.651  0.00  0.00    -0.001 A 
ENDBRANCH   1   3
BRANCH   1   9
ATOM      9  C   UNL     1       0.883   5.265  -6.183  0.00  0.00    +0.043 C 
ATOM     10  C   UNL     1       0.321   5.659  -4.845  0.00  0.00    +0.003 C 
ATOM     11  C   UNL     1      -0.835   6.621  -4.958  0.00  0.00    +0.000 C 
ATOM     12  C   UNL     1      -1.935   6.096  -5.846  0.00  0.00    +0.000 C 
ATOM     13  C   UNL     1      -1.436   5.158  -6.909  0.00  0.00    +0.000 C 
ATOM     14  C   UNL     1      -0.054   5.643  -7.324  0.00  0.00    +0.003 C 
ENDBRANCH   1   9
BRANCH   1  15
ATOM     15  C   UNL     1       2.847   5.120  -7.569  0.00  0.00    +0.350 C 
ATOM     16  O   UNL     1       2.558   3.894  -7.721  0.00  0.00    -0.247 OA
BRANCH  15  17
ATOM     17  O   UNL     1       3.996   5.546  -8.234  0.00  0.00    -0.432 OA
BRANCH  17  18
ATOM     18  C   UNL     1       4.496   4.677  -9.247  0.00  0.00    +0.284 C 
BRANCH  18  20
ATOM     19  C   UNL     1       3.258   5.814 -11.270  0.00  0.00    -0.069 C 
ATOM     20  C   UNL     1       4.039   5.261 -10.521  0.00  0.00    -0.042 C 
BRANCH  19  21
ATOM     21  C   UNL     1       2.129   6.350 -12.053  0.00  0.00    +0.150 C 
BRANCH  21  22
ATOM     22  N   UNL     1       1.150   5.280 -12.204  0.00  0.00    -0.262 NA
BRANCH  22  23
ATOM     23  C   UNL     1       0.080   5.375 -11.250  0.00  0.00    +0.073 C 
ATOM     24  C   UNL     1      -0.313   6.845 -11.163  0.00  0.00    +0.019 C 
ENDBRANCH  22  23
BRANCH  22  26
ATOM     25  C   UNL     1       1.209   4.354 -14.081  0.00  0.00    +0.019 C 
ATOM     26  C   UNL     1       0.707   5.127 -13.566  0.00  0.00    +0.073 C 
ENDBRANCH  22  26
ENDBRANCH  21  22
ENDBRANCH  19  21
ENDBRANCH  18  20
ENDBRANCH  17  18
ENDBRANCH  15  17
ENDBRANCH   1  15
TORSDOF 10
ENDMDL
MODEL 5
REMARK VINA RESULT:      -7.4      3.130      7.981
REMARK  Name = 
REMARK  10 active torsions:
REMARK  status: ('A' for Active; 'I' for Inactive)
REMARK    1  A    between atoms: C_2  and  N_3
REMARK    2  A    between atoms: N_3  and  C_4
REMARK    3  A    between atoms: N_3  and  C_6
REMARK    4  A    between atoms: C_6  and  C_7
REMARK    5  A    between atoms: C_8  and  C_9
REMARK    6  A    between atoms: C_9  and  O_10
REMARK    7  A    between atoms: O_10  and  C_11
REMARK    8  A    between atoms: C_11  and  C_13
REMARK    9  A    between atoms: C_13  and  C_15
REMARK   10  A    between atoms: C_13  and  C_21
REMARK                            x       y       z     vdW  Elec       q    Type
REMARK                         _______ _______ _______ _____ _____    ______ ____
ROOT
ATOM      1  C   UNL     1       2.758   5.595  -8.905  0.00  0.00    +0.233 C 
ATOM      2  O   UNL     1       2.894   6.880  -8.374  0.00  0.00    -0.210 OA
ENDROOT
BRANCH   1   3
ATOM      3  C   UNL     1       1.629   5.637  -9.857  0.00  0.00    +0.015 A 
ATOM      4  C   UNL     1       1.041   6.880 -10.054  0.00  0.00    -0.001 A 
ATOM      5  C   UNL     1       0.012   7.082 -10.949  0.00  0.00    -0.000 A 
ATOM      6  C   UNL     1      -0.394   5.969 -11.672  0.00  0.00    -0.000 A 
ATOM      7  C   UNL     1       0.120   4.708 -11.399  0.00  0.00    -0.000 A 
ATOM      8  C   UNL     1       0.991   4.526 -10.350  0.00  0.00    -0.001 A 
ENDBRANCH   1   3
BRANCH   1   9
ATOM      9  C   UNL     1       4.066   5.243  -9.556  0.00  0.00    +0.043 C 
ATOM     10  C   UNL     1       4.236   5.866 -10.914  0.00  0.00    +0.003 C 
ATOM     11  C   UNL     1       5.217   7.011 -10.912  0.00  0.00    +0.000 C 
ATOM     12  C   UNL     1       6.561   6.616 -10.353  0.00  0.00    +0.000 C 
ATOM     13  C   UNL     1       6.476   5.500  -9.349  0.00  0.00    +0.000 C 
ATOM     14  C   UNL     1       5.166   5.674  -8.593  0.00  0.00    +0.003 C 
ENDBRANCH   1   9
BRANCH   1  15
ATOM     15  C   UNL     1       2.507   4.579  -7.844  0.00  0.00    +0.350 C 
ATOM     16  O   UNL     1       2.617   3.343  -8.107  0.00  0.00    -0.247 OA
BRANCH  15  17
ATOM     17  O   UNL     1       1.836   4.877  -6.660  0.00  0.00    -0.432 OA
BRANCH  17  18
ATOM     18  C   UNL     1       2.592   4.751  -5.458  0.00  0.00    +0.284 C 
BRANCH  18  20
ATOM     19  C   UNL     1       0.717   5.679  -3.865  0.00  0.00    -0.069 C 
ATOM     20  C   UNL     1       1.755   5.355  -4.406  0.00  0.00    -0.042 C 
BRANCH  19  21
ATOM     21  C   UNL     1      -0.630   6.113  -3.450  0.00  0.00    +0.150 C 
BRANCH  21  22
ATOM     22  N   UNL     1      -1.594   5.468  -4.334  0.00  0.00    -0.262 NA
BRANCH  22  23
ATOM     23  C   UNL     1      -2.905   5.388  -3.753  0.00  0.00    +0.073 C 
ATOM     24  C   UNL     1      -2.766   5.764  -2.282  0.00  0.00    +0.019 C 
ENDBRANCH  22  23
BRANCH  22  26
ATOM     25  C   UNL     1      -2.500   5.922  -6.166  0.00  0.00    +0.019 C 
ATOM     26  C   UNL     1      -1.576   6.020  -5.664  0.00  0.00    +0.073 C 
ENDBRANCH  22  26
ENDBRANCH  21  22
ENDBRANCH  19  21
ENDBRANCH  18  20
ENDBRANCH  17  18
ENDBRANCH  15  17
ENDBRANCH   1  15
TORSDOF 10
ENDMDL
MODEL 6
REMARK VINA RESULT:      -7.4      2.883      6.962
REMARK  Name = 
REMARK  10 active torsions:
REMARK  status: ('A' for Active; 'I' for Inactive)
REMARK    1  A    between atoms: C_2  and  N_3
REMARK    2  A    between atoms: N_3  and  C_4
REMARK    3  A    between atoms: N_3  and  C_6
REMARK    4  A    between atoms: C_6  and  C_7
REMARK    5  A    between atoms: C_8  and  C_9
REMARK    6  A    between atoms: C_9  and  O_10
REMARK    7  A    between atoms: O_10  and  C_11
REMARK    8  A    between atoms: C_11  and  C_13
REMARK    9  A    between atoms: C_13  and  C_15
REMARK   10  A    between atoms: C_13  and  C_21
REMARK                            x       y       z     vdW  Elec       q    Type
REMARK                         _______ _______ _______ _____ _____    ______ ____
ROOT
ATOM      1  C   UNL     1       3.276   6.047  -9.387  0.00  0.00    +0.233 C 
ATOM      2  O   UNL     1       3.119   4.661  -9.315  0.00  0.00    -0.210 OA
ENDROOT
BRANCH   1   3
ATOM      3  C   UNL     1       4.683   6.305  -9.755  0.00  0.00    +0.015 A 
ATOM      4  C   UNL     1       4.896   7.285 -10.716  0.00  0.00    -0.001 A 
ATOM      5  C   UNL     1       6.157   7.668 -11.120  0.00  0.00    -0.000 A 
ATOM      6  C   UNL     1       7.219   7.032 -10.490  0.00  0.00    -0.000 A 
ATOM      7  C   UNL     1       7.006   5.980  -9.609  0.00  0.00    -0.000 A 
ATOM      8  C   UNL     1       5.735   5.496  -9.401  0.00  0.00    -0.001 A 
ENDBRANCH   1   3
BRANCH   1   9
ATOM      9  C   UNL     1       2.296   6.552 -10.410  0.00  0.00    +0.043 C 
ATOM     10  C   UNL     1       2.261   5.712 -11.657  0.00  0.00    +0.003 C 
ATOM     11  C   UNL     1       1.022   4.859 -11.751  0.00  0.00    +0.000 C 
ATOM     12  C   UNL     1      -0.245   5.669 -11.637  0.00  0.00    +0.000 C 
ATOM     13  C   UNL     1      -0.072   6.920 -10.822  0.00  0.00    +0.000 C 
ATOM     14  C   UNL     1       0.936   6.607  -9.725  0.00  0.00    +0.003 C 
ENDBRANCH   1   9
BRANCH   1  15
ATOM     15  C   UNL     1       2.944   6.711  -8.095  0.00  0.00    +0.350 C 
ATOM     16  O   UNL     1       2.797   7.970  -8.047  0.00  0.00    -0.247 OA
BRANCH  15  17
ATOM     17  O   UNL     1       3.109   6.084  -6.862  0.00  0.00    -0.432 OA
BRANCH  17  18
ATOM     18  C   UNL     1       3.520   6.917  -5.781  0.00  0.00    +0.284 C 
BRANCH  18  20
ATOM     19  C   UNL     1       1.514   6.246  -4.219  0.00  0.00    -0.069 C 
ATOM     20  C   UNL     1       2.484   6.753  -4.746  0.00  0.00    -0.042 C 
BRANCH  19  21
ATOM     21  C   UNL     1       0.250   5.597  -3.823  0.00  0.00    +0.150 C 
BRANCH  21  22
ATOM     22  N   UNL     1      -0.739   5.891  -4.852  0.00  0.00    -0.262 NA
BRANCH  22  23
ATOM     23  C   UNL     1      -1.018   7.296  -4.961  0.00  0.00    +0.073 C 
ATOM     24  C   UNL     1      -2.010   7.642  -3.856  0.00  0.00    +0.019 C 
ENDBRANCH  22  23
BRANCH  22  26
ATOM     25  C   UNL     1      -1.157   5.444  -6.855  0.00  0.00    +0.019 C 
ATOM     26  C   UNL     1      -0.434   5.257  -6.109  0.00  0.00    +0.073 C 
ENDBRANCH  22  26
ENDBRANCH  21  22
ENDBRANCH  19  21
ENDBRANCH  18  20
ENDBRANCH  17  18
ENDBRANCH  15  17
ENDBRANCH   1  15
TORSDOF 10
ENDMDL
MODEL 7
REMARK VINA RESULT:      -7.3      2.754      7.239
REMARK  Name = 
REMARK  10 active torsions:
REMARK  status: ('A' for Active; 'I' for Inactive)
REMARK    1  A    between atoms: C_2  and  N_3
REMARK    2  A    between atoms: N_3  and  C_4
REMARK    3  A    between atoms: N_3  and  C_6
REMARK    4  A    between atoms: C_6  and  C_7
REMARK    5  A    between atoms: C_8  and  C_9
REMARK    6  A    between atoms: C_9  and  O_10
REMARK    7  A    between atoms: O_10  and  C_11
REMARK    8  A    between atoms: C_11  and  C_13
REMARK    9  A    between atoms: C_13  and  C_15
REMARK   10  A    between atoms: C_13  and  C_21
REMARK                            x       y       z     vdW  Elec       q    Type
REMARK                         _______ _______ _______ _____ _____    ______ ____
ROOT
ATOM      1  C   UNL     1       3.283   6.108  -7.153  0.00  0.00    +0.233 C 
ATOM      2  O   UNL     1       2.837   7.425  -7.018  0.00  0.00    -0.210 OA
ENDROOT
BRANCH   1   3
ATOM      3  C   UNL     1       4.271   6.097  -8.252  0.00  0.00    +0.015 A 
ATOM      4  C   UNL     1       3.916   6.790  -9.402  0.00  0.00    -0.001 A 
ATOM      5  C   UNL     1       4.757   6.910 -10.487  0.00  0.00    -0.000 A 
ATOM      6  C   UNL     1       6.005   6.315 -10.360  0.00  0.00    -0.000 A 
ATOM      7  C   UNL     1       6.319   5.533  -9.256  0.00  0.00    -0.000 A 
ATOM      8  C   UNL     1       5.367   5.271  -8.297  0.00  0.00    -0.001 A 
ENDBRANCH   1   3
BRANCH   1   9
ATOM      9  C   UNL     1       3.867   5.700  -5.830  0.00  0.00    +0.043 C 
ATOM     10  C   UNL     1       4.913   6.655  -5.327  0.00  0.00    +0.003 C 
ATOM     11  C   UNL     1       4.424   7.508  -4.184  0.00  0.00    +0.000 C 
ATOM     12  C   UNL     1       3.884   6.684  -3.041  0.00  0.00    +0.000 C 
ATOM     13  C   UNL     1       3.323   5.361  -3.483  0.00  0.00    +0.000 C 
ATOM     14  C   UNL     1       2.701   5.573  -4.856  0.00  0.00    +0.003 C 
ENDBRANCH   1   9
BRANCH   1  15
ATOM     15  C   UNL     1       2.164   5.170  -7.449  0.00  0.00    +0.350 C 
ATOM     16  O   UNL     1       2.396   3.934  -7.610  0.00  0.00    -0.247 OA
BRANCH  15  17
ATOM     17  O   UNL     1       0.915   5.603  -7.891  0.00  0.00    -0.432 OA
BRANCH  17  18
ATOM     18  C   UNL     1      -0.209   5.151  -7.140  0.00  0.00    +0.284 C 
BRANCH  18  20
ATOM     19  C   UNL     1      -0.877   6.753  -5.164  0.00  0.00    -0.069 C 
ATOM     20  C   UNL     1      -0.530   6.254  -6.216  0.00  0.00    -0.042 C 
BRANCH  19  21
ATOM     21  C   UNL     1      -1.460   7.155  -3.870  0.00  0.00    +0.150 C 
BRANCH  21  22
ATOM     22  N   UNL     1      -1.240   6.063  -2.929  0.00  0.00    -0.262 NA
BRANCH  22  23
ATOM     23  C   UNL     1      -0.246   6.382  -1.941  0.00  0.00    +0.073 C 
ATOM     24  C   UNL     1       0.298   5.060  -1.412  0.00  0.00    +0.019 C 
ENDBRANCH  22  23
BRANCH  22  26
ATOM     25  C   UNL     1      -3.232   6.280  -2.325  0.00  0.00    +0.019 C 
ATOM     26  C   UNL     1      -2.469   5.553  -2.379  0.00  0.00    +0.073 C 
ENDBRANCH  22  26
ENDBRANCH  21  22
ENDBRANCH  19  21
ENDBRANCH  18  20
ENDBRANCH  17  18
ENDBRANCH  15  17
ENDBRANCH   1  15
TORSDOF 10
ENDMDL
MODEL 8
REMARK VINA RESULT:      -7.3      3.183      6.531
REMARK  Name = 
REMARK  10 active torsions:
REMARK  status: ('A' for Active; 'I' for Inactive)
REMARK    1  A    between atoms: C_2  and  N_3
REMARK    2  A    between atoms: N_3  and  C_4
REMARK    3  A    between atoms: N_3  and  C_6
REMARK    4  A    between atoms: C_6  and  C_7
REMARK    5  A    between atoms: C_8  and  C_9
REMARK    6  A    between atoms: C_9  and  O_10
REMARK    7  A    between atoms: O_10  and  C_11
REMARK    8  A    between atoms: C_11  and  C_13
REMARK    9  A    between atoms: C_13  and  C_15
REMARK   10  A    between atoms: C_13  and  C_21
REMARK                            x       y       z     vdW  Elec       q    Type
REMARK                         _______ _______ _______ _____ _____    ______ ____
ROOT
ATOM      1  C   UNL     1       1.493   6.231  -8.453  0.00  0.00    +0.233 C 
ATOM      2  O   UNL     1       1.783   7.586  -8.629  0.00  0.00    -0.210 OA
ENDROOT
BRANCH   1   3
ATOM      3  C   UNL     1       0.435   6.144  -7.426  0.00  0.00    +0.015 A 
ATOM      4  C   UNL     1       0.648   6.874  -6.264  0.00  0.00    -0.001 A 
ATOM      5  C   UNL     1      -0.275   6.929  -5.241  0.00  0.00    -0.000 A 
ATOM      6  C   UNL     1      -1.456   6.229  -5.447  0.00  0.00    -0.000 A 
ATOM      7  C   UNL     1      -1.624   5.415  -6.560  0.00  0.00    -0.000 A 
ATOM      8  C   UNL     1      -0.588   5.228  -7.446  0.00  0.00    -0.001 A 
ENDBRANCH   1   3
BRANCH   1   9
ATOM      9  C   UNL     1       1.067   5.691  -9.789  0.00  0.00    +0.043 C 
ATOM     10  C   UNL     1      -0.238   6.266 -10.267  0.00  0.00    +0.003 C 
ATOM     11  C   UNL     1      -0.062   7.263 -11.384  0.00  0.00    +0.000 C 
ATOM     12  C   UNL     1       0.710   6.693 -12.549  0.00  0.00    +0.000 C 
ATOM     13  C   UNL     1       1.674   5.614 -12.143  0.00  0.00    +0.000 C 
ATOM     14  C   UNL     1       2.204   5.979 -10.762  0.00  0.00    +0.003 C 
ENDBRANCH   1   9
BRANCH   1  15
ATOM     15  C   UNL     1       2.695   5.457  -8.030  0.00  0.00    +0.350 C 
ATOM     16  O   UNL     1       2.578   4.247  -7.671  0.00  0.00    -0.247 OA
BRANCH  15  17
ATOM     17  O   UNL     1       3.899   6.067  -7.683  0.00  0.00    -0.432 OA
BRANCH  17  18
ATOM     18  C   UNL     1       4.490   5.641  -6.457  0.00  0.00    +0.284 C 
BRANCH  18  20
ATOM     19  C   UNL     1       3.862   7.065  -4.337  0.00  0.00    -0.069 C 
ATOM     20  C   UNL     1       4.067   6.636  -5.455  0.00  0.00    -0.042 C 
BRANCH  19  21
ATOM     21  C   UNL     1       3.543   7.341  -2.924  0.00  0.00    +0.150 C 
BRANCH  21  22
ATOM     22  N   UNL     1       3.030   6.109  -2.338  0.00  0.00    -0.262 NA
BRANCH  22  23
ATOM     23  C   UNL     1       3.916   5.560  -1.349  0.00  0.00    +0.073 C 
ATOM     24  C   UNL     1       4.470   6.731  -0.546  0.00  0.00    +0.019 C 
ENDBRANCH  22  23
BRANCH  22  26
ATOM     25  C   UNL     1       1.061   5.415  -2.171  0.00  0.00    +0.019 C 
ATOM     26  C   UNL     1       1.665   6.236  -1.894  0.00  0.00    +0.073 C 
ENDBRANCH  22  26
ENDBRANCH  21  22
ENDBRANCH  19  21
ENDBRANCH  18  20
ENDBRANCH  17  18
ENDBRANCH  15  17
ENDBRANCH   1  15
TORSDOF 10
ENDMDL
MODEL 9
REMARK VINA RESULT:      -7.2      2.694      6.536
REMARK  Name = 
REMARK  10 active torsions:
REMARK  status: ('A' for Active; 'I' for Inactive)
REMARK    1  A    between atoms: C_2  and  N_3
REMARK    2  A    between atoms: N_3  and  C_4
REMARK    3  A    between atoms: N_3  and  C_6
REMARK    4  A    between atoms: C_6  and  C_7
REMARK    5  A    between atoms: C_8  and  C_9
REMARK    6  A    between atoms: C_9  and  O_10
REMARK    7  A    between atoms: O_10  and  C_11
REMARK    8  A    between atoms: C_11  and  C_13
REMARK    9  A    between atoms: C_13  and  C_15
REMARK   10  A    between atoms: C_13  and  C_21
REMARK                            x       y       z     vdW  Elec       q    Type
REMARK                         _______ _______ _______ _____ _____    ______ ____
ROOT
ATOM      1  C   UNL     1       3.439   5.696  -9.299  0.00  0.00    +0.233 C 
ATOM      2  O   UNL     1       3.374   4.328  -9.575  0.00  0.00    -0.210 OA
ENDROOT
BRANCH   1   3
ATOM      3  C   UNL     1       4.769   6.164  -9.740  0.00  0.00    +0.015 A 
ATOM      4  C   UNL     1       5.863   5.540  -9.153  0.00  0.00    -0.001 A 
ATOM      5  C   UNL     1       7.163   5.836  -9.503  0.00  0.00    -0.000 A 
ATOM      6  C   UNL     1       7.324   6.785 -10.503  0.00  0.00    -0.000 A 
ATOM      7  C   UNL     1       6.238   7.484 -11.012  0.00  0.00    -0.000 A 
ATOM      8  C   UNL     1       4.983   7.301 -10.479  0.00  0.00    -0.001 A 
ENDBRANCH   1   3
BRANCH   1   9
ATOM      9  C   UNL     1       2.307   6.352 -10.039  0.00  0.00    +0.043 C 
ATOM     10  C   UNL     1       2.348   6.101 -11.521  0.00  0.00    +0.003 C 
ATOM     11  C   UNL     1       1.298   5.118 -11.975  0.00  0.00    +0.000 C 
ATOM     12  C   UNL     1      -0.093   5.527 -11.558  0.00  0.00    +0.000 C 
ATOM     13  C   UNL     1      -0.111   6.348 -10.298  0.00  0.00    +0.000 C 
ATOM     14  C   UNL     1       1.016   5.838  -9.412  0.00  0.00    +0.003 C 
ENDBRANCH   1   9
BRANCH   1  15
ATOM     15  C   UNL     1       3.240   5.980  -7.850  0.00  0.00    +0.350 C 
ATOM     16  O   UNL     1       3.206   7.178  -7.435  0.00  0.00    -0.247 OA
BRANCH  15  17
ATOM     17  O   UNL     1       3.419   5.014  -6.861  0.00  0.00    -0.432 OA
BRANCH  17  18
ATOM     18  C   UNL     1       2.283   4.210  -6.554  0.00  0.00    +0.284 C 
BRANCH  18  20
ATOM     19  C   UNL     1       1.697   5.505  -4.341  0.00  0.00    -0.069 C 
ATOM     20  C   UNL     1       1.712   4.796  -5.328  0.00  0.00    -0.042 C 
BRANCH  19  21
ATOM     21  C   UNL     1       1.932   6.308  -3.126  0.00  0.00    +0.150 C 
BRANCH  21  22
ATOM     22  N   UNL     1       3.372   6.379  -2.916  0.00  0.00    -0.262 NA
BRANCH  22  23
ATOM     23  C   UNL     1       3.924   7.644  -3.316  0.00  0.00    +0.073 C 
ATOM     24  C   UNL     1       5.008   7.351  -4.347  0.00  0.00    +0.019 C 
ENDBRANCH  22  23
BRANCH  22  26
ATOM     25  C   UNL     1       4.054   4.955  -1.541  0.00  0.00    +0.019 C 
ATOM     26  C   UNL     1       3.757   5.967  -1.590  0.00  0.00    +0.073 C 
ENDBRANCH  22  26
ENDBRANCH  21  22
ENDBRANCH  19  21
ENDBRANCH  18  20
ENDBRANCH  17  18
ENDBRANCH  15  17
ENDBRANCH   1  15
TORSDOF 10
ENDMDL
