MODEL 1
REMARK VINA RESULT:      -6.0      0.000      0.000
REMARK  Name = 
REMARK  4 active torsions:
REMARK  status: ('A' for Active; 'I' for Inactive)
REMARK    1  A    between atoms: N_8  and  C_9
REMARK    2  A    between atoms: C_9  and  O_10
REMARK    3  A    between atoms: O_10  and  C_11
REMARK    4  A    between atoms: C_11  and  C_12
REMARK                            x       y       z     vdW  Elec       q    Type
REMARK                         _______ _______ _______ _____ _____    ______ ____
ROOT
ATOM      1  N   UNL     1       0.423   4.657  -1.429  0.00  0.00    -0.086 NA
ATOM      2  C   UNL     1      -0.446   5.309  -2.362  0.00  0.00    +0.261 A 
ATOM      3  N   UNL     1      -1.746   4.964  -2.276  0.00  0.00    -0.171 NA
ATOM      4  C   UNL     1      -2.617   5.245  -3.271  0.00  0.00    +0.302 A 
ATOM      5  O   UNL     1      -3.839   5.442  -3.066  0.00  0.00    -0.263 OA
ATOM      6  C   UNL     1      -2.094   5.588  -4.512  0.00  0.00    +0.175 A 
ATOM      7  N   UNL     1      -2.599   5.522  -5.760  0.00  0.00    -0.217 NA
ATOM      8  C   UNL     1      -1.593   5.466  -6.662  0.00  0.00    +0.182 A 
ATOM      9  N   UNL     1      -0.421   5.558  -5.998  0.00  0.00    -0.268 N 
ATOM     10  C   UNL     1      -0.720   5.690  -4.683  0.00  0.00    +0.172 A 
ATOM     11  N   UNL     1       0.002   5.794  -3.545  0.00  0.00    -0.192 NA
ENDROOT
BRANCH   9  12
ATOM     12  C   UNL     1       0.881   5.122  -6.498  0.00  0.00    +0.258 C 
BRANCH  12  13
ATOM     13  O   UNL     1       1.052   5.618  -7.783  0.00  0.00    -0.329 OA
BRANCH  13  14
ATOM     14  C   UNL     1       2.398   5.967  -7.980  0.00  0.00    +0.180 C 
BRANCH  14  15
ATOM     15  C   UNL     1       2.636   7.188  -7.100  0.00  0.00    +0.214 C 
ATOM     16  O   UNL     1       2.124   8.275  -7.827  0.00  0.00    -0.218 OA
ENDBRANCH  14  15
ENDBRANCH  13  14
ENDBRANCH  12  13
ENDBRANCH   9  12
TORSDOF 4
ENDMDL
MODEL 2
REMARK VINA RESULT:      -5.9      6.016      8.071
REMARK  Name = 
REMARK  4 active torsions:
REMARK  status: ('A' for Active; 'I' for Inactive)
REMARK    1  A    between atoms: N_8  and  C_9
REMARK    2  A    between atoms: C_9  and  O_10
REMARK    3  A    between atoms: O_10  and  C_11
REMARK    4  A    between atoms: C_11  and  C_12
REMARK                            x       y       z     vdW  Elec       q    Type
REMARK                         _______ _______ _______ _____ _____    ______ ____
ROOT
ATOM      1  N   UNL     1       0.773   6.505 -11.329  0.00  0.00    -0.086 NA
ATOM      2  C   UNL     1       1.848   5.659 -10.908  0.00  0.00    +0.261 A 
ATOM      3  N   UNL     1       1.666   5.042  -9.725  0.00  0.00    -0.171 NA
ATOM      4  C   UNL     1       2.698   4.477  -9.058  0.00  0.00    +0.302 A 
ATOM      5  O   UNL     1       2.552   3.491  -8.295  0.00  0.00    -0.263 OA
ATOM      6  C   UNL     1       3.986   4.831  -9.438  0.00  0.00    +0.175 A 
ATOM      7  N   UNL     1       5.164   4.810  -8.783  0.00  0.00    -0.217 NA
ATOM      8  C   UNL     1       6.018   5.700  -9.342  0.00  0.00    +0.182 A 
ATOM      9  N   UNL     1       5.408   6.260 -10.409  0.00  0.00    -0.268 N 
ATOM     10  C   UNL     1       4.183   5.691 -10.510  0.00  0.00    +0.172 A 
ATOM     11  N   UNL     1       3.121   5.849 -11.332  0.00  0.00    -0.192 NA
ENDROOT
BRANCH   9  12
ATOM     12  C   UNL     1       5.770   7.533 -11.028  0.00  0.00    +0.258 C 
BRANCH  12  13
ATOM     13  O   UNL     1       7.063   7.435 -11.524  0.00  0.00    -0.329 OA
BRANCH  13  14
ATOM     14  C   UNL     1       7.050   6.748 -12.748  0.00  0.00    +0.180 C 
BRANCH  14  15
ATOM     15  C   UNL     1       8.273   5.840 -12.720  0.00  0.00    +0.214 C 
ATOM     16  O   UNL     1       7.769   4.543 -12.534  0.00  0.00    -0.218 OA
ENDBRANCH  14  15
ENDBRANCH  13  14
ENDBRANCH  12  13
ENDBRANCH   9  12
TORSDOF 4
ENDMDL
MODEL 3
REMARK VINA RESULT:      -5.7      2.395      4.814
REMARK  Name = 
REMARK  4 active torsions:
REMARK  status: ('A' for Active; 'I' for Inactive)
REMARK    1  A    between atoms: N_8  and  C_9
REMARK    2  A    between atoms: C_9  and  O_10
REMARK    3  A    between atoms: O_10  and  C_11
REMARK    4  A    between atoms: C_11  and  C_12
REMARK                            x       y       z     vdW  Elec       q    Type
REMARK                         _______ _______ _______ _____ _____    ______ ____
ROOT
ATOM      1  N   UNL     1       3.437   6.369  -3.247  0.00  0.00    -0.086 NA
ATOM      2  C   UNL     1       2.427   5.575  -3.880  0.00  0.00    +0.261 A 
ATOM      3  N   UNL     1       2.825   4.907  -4.979  0.00  0.00    -0.171 NA
ATOM      4  C   UNL     1       1.931   4.382  -5.847  0.00  0.00    +0.302 A 
ATOM      5  O   UNL     1       2.175   3.363  -6.538  0.00  0.00    -0.263 OA
ATOM      6  C   UNL     1       0.616   4.826  -5.771  0.00  0.00    +0.175 A 
ATOM      7  N   UNL     1      -0.386   4.854  -6.671  0.00  0.00    -0.217 NA
ATOM      8  C   UNL     1      -1.281   5.812  -6.335  0.00  0.00    +0.182 A 
ATOM      9  N   UNL     1      -0.886   6.371  -5.171  0.00  0.00    -0.268 N 
ATOM     10  C   UNL     1       0.246   5.734  -4.788  0.00  0.00    +0.172 A 
ATOM     11  N   UNL     1       1.108   5.856  -3.754  0.00  0.00    -0.192 NA
ENDROOT
BRANCH   9  12
ATOM     12  C   UNL     1      -1.290   7.685  -4.675  0.00  0.00    +0.258 C 
BRANCH  12  13
ATOM     13  O   UNL     1      -2.542   7.573  -4.085  0.00  0.00    -0.329 OA
BRANCH  13  14
ATOM     14  C   UNL     1      -2.403   7.129  -2.760  0.00  0.00    +0.180 C 
BRANCH  14  15
ATOM     15  C   UNL     1      -3.384   5.972  -2.613  0.00  0.00    +0.214 C 
ATOM     16  O   UNL     1      -2.591   4.814  -2.585  0.00  0.00    -0.218 OA
ENDBRANCH  14  15
ENDBRANCH  13  14
ENDBRANCH  12  13
ENDBRANCH   9  12
TORSDOF 4
ENDMDL
MODEL 4
REMARK VINA RESULT:      -5.7      6.641      9.769
REMARK  Name = 
REMARK  4 active torsions:
REMARK  status: ('A' for Active; 'I' for Inactive)
REMARK    1  A    between atoms: N_8  and  C_9
REMARK    2  A    between atoms: C_9  and  O_10
REMARK    3  A    between atoms: O_10  and  C_11
REMARK    4  A    between atoms: C_11  and  C_12
REMARK                            x       y       z     vdW  Elec       q    Type
REMARK                         _______ _______ _______ _____ _____    ______ ____
ROOT
ATOM      1  N   UNL     1       3.631   4.749 -13.858  0.00  0.00    -0.086 NA
ATOM      2  C   UNL     1       4.711   5.372 -13.154  0.00  0.00    +0.261 A 
ATOM      3  N   UNL     1       5.942   4.934 -13.483  0.00  0.00    -0.171 NA
ATOM      4  C   UNL     1       7.014   5.191 -12.700  0.00  0.00    +0.302 A 
ATOM      5  O   UNL     1       8.177   5.293 -13.158  0.00  0.00    -0.263 OA
ATOM      6  C   UNL     1       6.778   5.614 -11.398  0.00  0.00    +0.175 A 
ATOM      7  N   UNL     1       7.523   5.559 -10.276  0.00  0.00    -0.217 NA
ATOM      8  C   UNL     1       6.722   5.606  -9.187  0.00  0.00    +0.182 A 
ATOM      9  N   UNL     1       5.446   5.755  -9.605  0.00  0.00    -0.268 N 
ATOM     10  C   UNL     1       5.477   5.818 -10.958  0.00  0.00    +0.172 A 
ATOM     11  N   UNL     1       4.545   5.930 -11.931  0.00  0.00    -0.192 NA
ENDROOT
BRANCH   9  12
ATOM     12  C   UNL     1       4.250   5.430  -8.831  0.00  0.00    +0.258 C 
BRANCH  12  13
ATOM     13  O   UNL     1       3.956   4.085  -9.012  0.00  0.00    -0.329 OA
BRANCH  13  14
ATOM     14  C   UNL     1       2.628   3.835  -8.630  0.00  0.00    +0.180 C 
BRANCH  14  15
ATOM     15  C   UNL     1       1.815   4.990  -9.200  0.00  0.00    +0.214 C 
ATOM     16  O   UNL     1       1.002   4.418 -10.191  0.00  0.00    -0.218 OA
ENDBRANCH  14  15
ENDBRANCH  13  14
ENDBRANCH  12  13
ENDBRANCH   9  12
TORSDOF 4
ENDMDL
MODEL 5
REMARK VINA RESULT:      -5.5      1.533      2.925
REMARK  Name = 
REMARK  4 active torsions:
REMARK  status: ('A' for Active; 'I' for Inactive)
REMARK    1  A    between atoms: N_8  and  C_9
REMARK    2  A    between atoms: C_9  and  O_10
REMARK    3  A    between atoms: O_10  and  C_11
REMARK    4  A    between atoms: C_11  and  C_12
REMARK                            x       y       z     vdW  Elec       q    Type
REMARK                         _______ _______ _______ _____ _____    ______ ____
ROOT
ATOM      1  N   UNL     1      -2.923   7.605  -5.513  0.00  0.00    -0.086 NA
ATOM      2  C   UNL     1      -2.304   6.540  -4.784  0.00  0.00    +0.261 A 
ATOM      3  N   UNL     1      -2.807   6.315  -3.555  0.00  0.00    -0.171 NA
ATOM      4  C   UNL     1      -2.136   5.574  -2.644  0.00  0.00    +0.302 A 
ATOM      5  O   UNL     1      -2.717   4.909  -1.753  0.00  0.00    -0.263 OA
ATOM      6  C   UNL     1      -0.786   5.335  -2.870  0.00  0.00    +0.175 A 
ATOM      7  N   UNL     1       0.233   5.030  -2.043  0.00  0.00    -0.217 NA
ATOM      8  C   UNL     1       1.408   5.395  -2.606  0.00  0.00    +0.182 A 
ATOM      9  N   UNL     1       1.155   5.886  -3.838  0.00  0.00    -0.268 N 
ATOM     10  C   UNL     1      -0.183   5.800  -4.031  0.00  0.00    +0.172 A 
ATOM     11  N   UNL     1      -1.029   6.149  -5.026  0.00  0.00    -0.192 NA
ENDROOT
BRANCH   9  12
ATOM     12  C   UNL     1       2.035   6.764  -4.605  0.00  0.00    +0.258 C 
BRANCH  12  13
ATOM     13  O   UNL     1       2.216   6.219  -5.868  0.00  0.00    -0.329 OA
BRANCH  13  14
ATOM     14  C   UNL     1       3.318   6.826  -6.493  0.00  0.00    +0.180 C 
BRANCH  14  15
ATOM     15  C   UNL     1       2.864   7.128  -7.916  0.00  0.00    +0.214 C 
ATOM     16  O   UNL     1       2.091   8.297  -7.819  0.00  0.00    -0.218 OA
ENDBRANCH  14  15
ENDBRANCH  13  14
ENDBRANCH  12  13
ENDBRANCH   9  12
TORSDOF 4
ENDMDL
MODEL 6
REMARK VINA RESULT:      -5.5      3.271      4.093
REMARK  Name = 
REMARK  4 active torsions:
REMARK  status: ('A' for Active; 'I' for Inactive)
REMARK    1  A    between atoms: N_8  and  C_9
REMARK    2  A    between atoms: C_9  and  O_10
REMARK    3  A    between atoms: O_10  and  C_11
REMARK    4  A    between atoms: C_11  and  C_12
REMARK                            x       y       z     vdW  Elec       q    Type
REMARK                         _______ _______ _______ _____ _____    ______ ____
ROOT
ATOM      1  N   UNL     1      -2.751   4.987  -2.174  0.00  0.00    -0.086 NA
ATOM      2  C   UNL     1      -2.172   5.754  -3.235  0.00  0.00    +0.261 A 
ATOM      3  N   UNL     1      -2.490   5.348  -4.479  0.00  0.00    -0.171 NA
ATOM      4  C   UNL     1      -1.787   5.761  -5.557  0.00  0.00    +0.302 A 
ATOM      5  O   UNL     1      -2.298   5.871  -6.698  0.00  0.00    -0.263 OA
ATOM      6  C   UNL     1      -0.539   6.331  -5.337  0.00  0.00    +0.175 A 
ATOM      7  N   UNL     1       0.551   6.460  -6.119  0.00  0.00    -0.217 NA
ATOM      8  C   UNL     1       1.656   6.599  -5.349  0.00  0.00    +0.182 A 
ATOM      9  N   UNL     1       1.272   6.622  -4.055  0.00  0.00    -0.268 N 
ATOM     10  C   UNL     1      -0.079   6.515  -4.040  0.00  0.00    +0.172 A 
ATOM     11  N   UNL     1      -1.021   6.451  -3.073  0.00  0.00    -0.192 NA
ENDROOT
BRANCH   9  12
ATOM     12  C   UNL     1       2.125   6.329  -2.906  0.00  0.00    +0.258 C 
BRANCH  12  13
ATOM     13  O   UNL     1       2.916   5.229  -3.208  0.00  0.00    -0.329 OA
BRANCH  13  14
ATOM     14  C   UNL     1       4.135   5.317  -2.517  0.00  0.00    +0.180 C 
BRANCH  14  15
ATOM     15  C   UNL     1       3.896   4.628  -1.179  0.00  0.00    +0.214 C 
ATOM     16  O   UNL     1       4.237   5.581  -0.205  0.00  0.00    -0.218 OA
ENDBRANCH  14  15
ENDBRANCH  13  14
ENDBRANCH  12  13
ENDBRANCH   9  12
TORSDOF 4
ENDMDL
MODEL 7
REMARK VINA RESULT:      -5.4      2.174      5.431
REMARK  Name = 
REMARK  4 active torsions:
REMARK  status: ('A' for Active; 'I' for Inactive)
REMARK    1  A    between atoms: N_8  and  C_9
REMARK    2  A    between atoms: C_9  and  O_10
REMARK    3  A    between atoms: O_10  and  C_11
REMARK    4  A    between atoms: C_11  and  C_12
REMARK                            x       y       z     vdW  Elec       q    Type
REMARK                         _______ _______ _______ _____ _____    ______ ____
ROOT
ATOM      1  N   UNL     1       4.089   5.280  -7.131  0.00  0.00    -0.086 NA
ATOM      2  C   UNL     1       2.697   4.957  -7.224  0.00  0.00    +0.261 A 
ATOM      3  N   UNL     1       2.029   5.571  -8.219  0.00  0.00    -0.171 NA
ATOM      4  C   UNL     1       0.678   5.613  -8.239  0.00  0.00    +0.302 A 
ATOM      5  O   UNL     1       0.018   5.672  -9.305  0.00  0.00    -0.263 OA
ATOM      6  C   UNL     1       0.002   5.314  -7.063  0.00  0.00    +0.175 A 
ATOM      7  N   UNL     1      -1.225   5.641  -6.612  0.00  0.00    -0.217 NA
ATOM      8  C   UNL     1      -1.251   5.579  -5.260  0.00  0.00    +0.182 A 
ATOM      9  N   UNL     1      -0.045   5.147  -4.832  0.00  0.00    -0.268 N 
ATOM     10  C   UNL     1       0.712   4.928  -5.933  0.00  0.00    +0.172 A 
ATOM     11  N   UNL     1       1.985   4.529  -6.154  0.00  0.00    -0.192 NA
ENDROOT
BRANCH   9  12
ATOM     12  C   UNL     1       0.503   5.338  -3.491  0.00  0.00    +0.258 C 
BRANCH  12  13
ATOM     13  O   UNL     1      -0.411   4.854  -2.564  0.00  0.00    -0.329 OA
BRANCH  13  14
ATOM     14  C   UNL     1      -0.333   5.608  -1.382  0.00  0.00    +0.180 C 
BRANCH  14  15
ATOM     15  C   UNL     1      -1.772   5.780  -0.912  0.00  0.00    +0.214 C 
ATOM     16  O   UNL     1      -2.548   5.028  -1.809  0.00  0.00    -0.218 OA
ENDBRANCH  14  15
ENDBRANCH  13  14
ENDBRANCH  12  13
ENDBRANCH   9  12
TORSDOF 4
ENDMDL
MODEL 8
REMARK VINA RESULT:      -5.3      3.215      6.536
REMARK  Name = 
REMARK  4 active torsions:
REMARK  status: ('A' for Active; 'I' for Inactive)
REMARK    1  A    between atoms: N_8  and  C_9
REMARK    2  A    between atoms: C_9  and  O_10
REMARK    3  A    between atoms: O_10  and  C_11
REMARK    4  A    between atoms: C_11  and  C_12
REMARK                            x       y       z     vdW  Elec       q    Type
REMARK                         _______ _______ _______ _____ _____    ______ ____
ROOT
ATOM      1  N   UNL     1       1.513   7.259  -9.062  0.00  0.00    -0.086 NA
ATOM      2  C   UNL     1       2.624   7.047  -8.185  0.00  0.00    +0.261 A 
ATOM      3  N   UNL     1       3.446   6.036  -8.529  0.00  0.00    -0.171 NA
ATOM      4  C   UNL     1       4.336   5.521  -7.652  0.00  0.00    +0.302 A 
ATOM      5  O   UNL     1       5.421   5.004  -8.014  0.00  0.00    -0.263 OA
ATOM      6  C   UNL     1       4.162   5.814  -6.305  0.00  0.00    +0.175 A 
ATOM      7  N   UNL     1       4.558   5.185  -5.181  0.00  0.00    -0.217 NA
ATOM      8  C   UNL     1       3.749   5.527  -4.152  0.00  0.00    +0.182 A 
ATOM      9  N   UNL     1       2.855   6.435  -4.599  0.00  0.00    -0.268 N 
ATOM     10  C   UNL     1       3.137   6.660  -5.905  0.00  0.00    +0.172 A 
ATOM     11  N   UNL     1       2.595   7.420  -6.882  0.00  0.00    -0.192 NA
ENDROOT
BRANCH   9  12
ATOM     12  C   UNL     1       1.570   6.746  -3.978  0.00  0.00    +0.258 C 
BRANCH  12  13
ATOM     13  O   UNL     1       0.687   5.706  -4.237  0.00  0.00    -0.329 OA
BRANCH  13  14
ATOM     14  C   UNL     1      -0.035   5.395  -3.074  0.00  0.00    +0.180 C 
BRANCH  14  15
ATOM     15  C   UNL     1      -1.503   5.461  -3.475  0.00  0.00    +0.214 C 
ATOM     16  O   UNL     1      -2.201   4.824  -2.436  0.00  0.00    -0.218 OA
ENDBRANCH  14  15
ENDBRANCH  13  14
ENDBRANCH  12  13
ENDBRANCH   9  12
TORSDOF 4
ENDMDL
MODEL 9
REMARK VINA RESULT:      -5.3      2.951      5.852
REMARK  Name = 
REMARK  4 active torsions:
REMARK  status: ('A' for Active; 'I' for Inactive)
REMARK    1  A    between atoms: N_8  and  C_9
REMARK    2  A    between atoms: C_9  and  O_10
REMARK    3  A    between atoms: O_10  and  C_11
REMARK    4  A    between atoms: C_11  and  C_12
REMARK                            x       y       z     vdW  Elec       q    Type
REMARK                         _______ _______ _______ _____ _____    ______ ____
ROOT
ATOM      1  N   UNL     1       4.651   7.922  -3.603  0.00  0.00    -0.086 NA
ATOM      2  C   UNL     1       4.301   6.699  -4.259  0.00  0.00    +0.261 A 
ATOM      3  N   UNL     1       4.671   6.612  -5.551  0.00  0.00    -0.171 NA
ATOM      4  C   UNL     1       4.146   5.676  -6.373  0.00  0.00    +0.302 A 
ATOM      5  O   UNL     1       4.775   5.204  -7.351  0.00  0.00    -0.263 OA
ATOM      6  C   UNL     1       2.986   5.031  -5.964  0.00  0.00    +0.175 A 
ATOM      7  N   UNL     1       2.008   4.402  -6.645  0.00  0.00    -0.217 NA
ATOM      8  C   UNL     1       0.869   4.393  -5.914  0.00  0.00    +0.182 A 
ATOM      9  N   UNL     1       1.126   4.970  -4.720  0.00  0.00    -0.268 N 
ATOM     10  C   UNL     1       2.436   5.313  -4.720  0.00  0.00    +0.172 A 
ATOM     11  N   UNL     1       3.261   5.934  -3.847  0.00  0.00    -0.192 NA
ENDROOT
BRANCH   9  12
ATOM     12  C   UNL     1       0.132   5.547  -3.819  0.00  0.00    +0.258 C 
BRANCH  12  13
ATOM     13  O   UNL     1       0.118   4.812  -2.642  0.00  0.00    -0.329 OA
BRANCH  13  14
ATOM     14  C   UNL     1      -0.508   5.553  -1.627  0.00  0.00    +0.180 C 
BRANCH  14  15
ATOM     15  C   UNL     1      -1.852   5.979  -2.202  0.00  0.00    +0.214 C 
ATOM     16  O   UNL     1      -2.707   4.884  -1.997  0.00  0.00    -0.218 OA
ENDBRANCH  14  15
ENDBRANCH  13  14
ENDBRANCH  12  13
ENDBRANCH   9  12
TORSDOF 4
ENDMDL
