MODEL 1
REMARK VINA RESULT:      -8.9      0.000      0.000
REMARK  Name = 
REMARK  5 active torsions:
REMARK  status: ('A' for Active; 'I' for Inactive)
REMARK    1  A    between atoms: N_10  and  C_11
REMARK    2  A    between atoms: C_11  and  C_12
REMARK    3  A    between atoms: C_12  and  C_13
REMARK    4  A    between atoms: C_13  and  N_14
REMARK    5  A    between atoms: N_17  and  C_18
REMARK                            x       y       z     vdW  Elec       q    Type
REMARK                         _______ _______ _______ _____ _____    ______ ____
ROOT
ATOM      1  C   UNL     1       1.713   5.962  -9.310  0.00  0.00    +0.074 C 
ENDROOT
BRANCH   1   2
ATOM      2  N   UNL     1       2.923   5.915  -8.494  0.00  0.00    -0.270 NA
ATOM      3  C   UNL     1       3.017   7.083  -7.658  0.00  0.00    +0.094 C 
ATOM      4  C   UNL     1       2.158   6.857  -6.445  0.00  0.00    +0.108 C 
ATOM      5  N   UNL     1       1.245   5.743  -6.664  0.00  0.00    -0.305 N 
ATOM      6  C   UNL     1       1.871   4.440  -6.849  0.00  0.00    +0.108 C 
ATOM      7  C   UNL     1       3.057   4.675  -7.778  0.00  0.00    +0.094 C 
BRANCH   5   8
ATOM      8  C   UNL     1      -0.109   5.858  -6.209  0.00  0.00    +0.049 A 
ATOM      9  C   UNL     1      -0.415   6.720  -5.180  0.00  0.00    +0.026 A 
ATOM     10  C   UNL     1      -1.693   7.191  -4.937  0.00  0.00    +0.059 A 
ATOM     11 CL   UNL     1      -1.962   8.800  -4.279  0.00  0.00    -0.082 Cl
ATOM     12  C   UNL     1      -2.724   6.444  -5.492  0.00  0.00    +0.011 A 
ATOM     13  C   UNL     1      -2.432   5.473  -6.442  0.00  0.00    +0.002 A 
ATOM     14  C   UNL     1      -1.139   5.287  -6.913  0.00  0.00    +0.015 A 
ENDBRANCH   5   8
ENDBRANCH   1   2
BRANCH   1  15
ATOM     15  C   UNL     1       2.032   5.152 -10.561  0.00  0.00    +0.044 C 
BRANCH  15  16
ATOM     16  C   UNL     1       2.640   6.137 -11.551  0.00  0.00    +0.134 C 
BRANCH  16  19
ATOM     17  O   UNL     1       4.243   4.526 -13.468  0.00  0.00    -0.244 OA
ATOM     18  C   UNL     1       4.737   5.336 -12.627  0.00  0.00    +0.352 A 
ATOM     19  N   UNL     1       4.070   5.977 -11.642  0.00  0.00    -0.201 N 
ATOM     20  N   UNL     1       4.928   6.793 -11.043  0.00  0.00    -0.147 NA
ATOM     21  C   UNL     1       6.142   6.279 -11.255  0.00  0.00    +0.171 A 
ATOM     22  C   UNL     1       7.347   6.220 -10.574  0.00  0.00    +0.039 A 
ATOM     23  C   UNL     1       8.493   6.193 -11.345  0.00  0.00    +0.005 A 
ATOM     24  C   UNL     1       8.387   5.658 -12.611  0.00  0.00    +0.019 A 
ATOM     25  C   UNL     1       7.148   5.335 -13.143  0.00  0.00    +0.086 A 
ATOM     26  N   UNL     1       6.044   5.563 -12.400  0.00  0.00    -0.241 N 
ENDBRANCH  16  19
ENDBRANCH  15  16
ENDBRANCH   1  15
TORSDOF 5
ENDMDL
MODEL 2
REMARK VINA RESULT:      -8.9      2.026      2.741
REMARK  Name = 
REMARK  5 active torsions:
REMARK  status: ('A' for Active; 'I' for Inactive)
REMARK    1  A    between atoms: N_10  and  C_11
REMARK    2  A    between atoms: C_11  and  C_12
REMARK    3  A    between atoms: C_12  and  C_13
REMARK    4  A    between atoms: C_13  and  N_14
REMARK    5  A    between atoms: N_17  and  C_18
REMARK                            x       y       z     vdW  Elec       q    Type
REMARK                         _______ _______ _______ _____ _____    ______ ____
ROOT
ATOM      1  C   UNL     1       2.447   4.290  -6.309  0.00  0.00    +0.074 C 
ENDROOT
BRANCH   1   2
ATOM      2  N   UNL     1       3.501   5.157  -5.792  0.00  0.00    -0.270 NA
ATOM      3  C   UNL     1       3.219   6.536  -6.097  0.00  0.00    +0.094 C 
ATOM      4  C   UNL     1       2.253   7.052  -5.068  0.00  0.00    +0.108 C 
ATOM      5  N   UNL     1       1.637   5.948  -4.344  0.00  0.00    -0.305 N 
ATOM      6  C   UNL     1       2.544   5.137  -3.540  0.00  0.00    +0.108 C 
ATOM      7  C   UNL     1       3.781   4.915  -4.402  0.00  0.00    +0.094 C 
BRANCH   5   8
ATOM      8  C   UNL     1       0.237   6.008  -4.049  0.00  0.00    +0.049 A 
ATOM      9  C   UNL     1      -0.646   6.458  -5.005  0.00  0.00    +0.026 A 
ATOM     10  C   UNL     1      -2.003   6.192  -4.973  0.00  0.00    +0.059 A 
ATOM     11 CL   UNL     1      -2.929   5.994  -6.455  0.00  0.00    -0.082 Cl
ATOM     12  C   UNL     1      -2.513   5.822  -3.735  0.00  0.00    +0.011 A 
ATOM     13  C   UNL     1      -1.642   5.486  -2.707  0.00  0.00    +0.002 A 
ATOM     14  C   UNL     1      -0.268   5.431  -2.911  0.00  0.00    +0.015 A 
ENDBRANCH   5   8
ENDBRANCH   1   2
BRANCH   1  15
ATOM     15  C   UNL     1       2.187   4.767  -7.733  0.00  0.00    +0.044 C 
BRANCH  15  16
ATOM     16  C   UNL     1       3.094   3.928  -8.625  0.00  0.00    +0.134 C 
BRANCH  16  19
ATOM     17  O   UNL     1       2.908   5.745 -10.971  0.00  0.00    -0.244 OA
ATOM     18  C   UNL     1       3.928   5.643 -10.224  0.00  0.00    +0.352 A 
ATOM     19  N   UNL     1       4.118   4.734  -9.243  0.00  0.00    -0.201 N 
ATOM     20  N   UNL     1       5.270   5.020  -8.649  0.00  0.00    -0.147 NA
ATOM     21  C   UNL     1       5.999   5.681  -9.551  0.00  0.00    +0.171 A 
ATOM     22  C   UNL     1       7.342   5.805  -9.869  0.00  0.00    +0.039 A 
ATOM     23  C   UNL     1       7.745   7.018 -10.393  0.00  0.00    +0.005 A 
ATOM     24  C   UNL     1       6.801   7.751 -11.079  0.00  0.00    +0.019 A 
ATOM     25  C   UNL     1       5.469   7.367 -11.081  0.00  0.00    +0.086 A 
ATOM     26  N   UNL     1       5.111   6.265 -10.388  0.00  0.00    -0.241 N 
ENDBRANCH  16  19
ENDBRANCH  15  16
ENDBRANCH   1  15
TORSDOF 5
ENDMDL
MODEL 3
REMARK VINA RESULT:      -8.8      2.456      3.815
REMARK  Name = 
REMARK  5 active torsions:
REMARK  status: ('A' for Active; 'I' for Inactive)
REMARK    1  A    between atoms: N_10  and  C_11
REMARK    2  A    between atoms: C_11  and  C_12
REMARK    3  A    between atoms: C_12  and  C_13
REMARK    4  A    between atoms: C_13  and  N_14
REMARK    5  A    between atoms: N_17  and  C_18
REMARK                            x       y       z     vdW  Elec       q    Type
REMARK                         _______ _______ _______ _____ _____    ______ ____
ROOT
ATOM      1  C   UNL     1       3.883   6.119  -7.082  0.00  0.00    +0.074 C 
ENDROOT
BRANCH   1   2
ATOM      2  N   UNL     1       4.534   6.126  -5.774  0.00  0.00    -0.270 NA
ATOM      3  C   UNL     1       4.111   7.267  -5.004  0.00  0.00    +0.094 C 
ATOM      4  C   UNL     1       2.788   6.937  -4.372  0.00  0.00    +0.108 C 
ATOM      5  N   UNL     1       2.192   5.771  -5.011  0.00  0.00    -0.305 N 
ATOM      6  C   UNL     1       2.929   4.522  -4.859  0.00  0.00    +0.108 C 
ATOM      7  C   UNL     1       4.396   4.874  -5.082  0.00  0.00    +0.094 C 
BRANCH   5   8
ATOM      8  C   UNL     1       0.786   5.774  -5.284  0.00  0.00    +0.049 A 
ATOM      9  C   UNL     1      -0.058   6.554  -4.525  0.00  0.00    +0.026 A 
ATOM     10  C   UNL     1      -1.324   6.929  -4.938  0.00  0.00    +0.059 A 
ATOM     11 CL   UNL     1      -2.015   8.477  -4.471  0.00  0.00    -0.082 Cl
ATOM     12  C   UNL     1      -1.882   6.151  -5.945  0.00  0.00    +0.011 A 
ATOM     13  C   UNL     1      -1.081   5.257  -6.644  0.00  0.00    +0.002 A 
ATOM     14  C   UNL     1       0.287   5.180  -6.416  0.00  0.00    +0.015 A 
ENDBRANCH   5   8
ENDBRANCH   1   2
BRANCH   1  15
ATOM     15  C   UNL     1       4.830   5.361  -8.005  0.00  0.00    +0.044 C 
BRANCH  15  16
ATOM     16  C   UNL     1       3.950   4.437  -8.836  0.00  0.00    +0.134 C 
BRANCH  16  19
ATOM     17  O   UNL     1       4.519   5.741 -11.447  0.00  0.00    -0.244 OA
ATOM     18  C   UNL     1       3.363   5.632 -10.939  0.00  0.00    +0.352 A 
ATOM     19  N   UNL     1       3.068   5.184  -9.700  0.00  0.00    -0.201 N 
ATOM     20  N   UNL     1       1.746   5.144  -9.591  0.00  0.00    -0.147 NA
ATOM     21  C   UNL     1       1.274   6.032 -10.469  0.00  0.00    +0.171 A 
ATOM     22  C   UNL     1       0.187   6.887 -10.555  0.00  0.00    +0.039 A 
ATOM     23  C   UNL     1      -0.303   7.140 -11.822  0.00  0.00    +0.005 A 
ATOM     24  C   UNL     1       0.587   7.044 -12.870  0.00  0.00    +0.019 A 
ATOM     25  C   UNL     1       1.863   6.538 -12.674  0.00  0.00    +0.086 A 
ATOM     26  N   UNL     1       2.215   6.131 -11.436  0.00  0.00    -0.241 N 
ENDBRANCH  16  19
ENDBRANCH  15  16
ENDBRANCH   1  15
TORSDOF 5
ENDMDL
MODEL 4
REMARK VINA RESULT:      -8.6      1.733      2.143
REMARK  Name = 
REMARK  5 active torsions:
REMARK  status: ('A' for Active; 'I' for Inactive)
REMARK    1  A    between atoms: N_10  and  C_11
REMARK    2  A    between atoms: C_11  and  C_12
REMARK    3  A    between atoms: C_12  and  C_13
REMARK    4  A    between atoms: C_13  and  N_14
REMARK    5  A    between atoms: N_17  and  C_18
REMARK                            x       y       z     vdW  Elec       q    Type
REMARK                         _______ _______ _______ _____ _____    ______ ____
ROOT
ATOM      1  C   UNL     1       3.915   6.258  -6.773  0.00  0.00    +0.074 C 
ENDROOT
BRANCH   1   2
ATOM      2  N   UNL     1       4.529   6.223  -5.449  0.00  0.00    -0.270 NA
ATOM      3  C   UNL     1       4.077   7.333  -4.651  0.00  0.00    +0.094 C 
ATOM      4  C   UNL     1       2.739   6.972  -4.068  0.00  0.00    +0.108 C 
ATOM      5  N   UNL     1       2.169   5.825  -4.764  0.00  0.00    -0.305 N 
ATOM      6  C   UNL     1       2.911   4.577  -4.636  0.00  0.00    +0.108 C 
ATOM      7  C   UNL     1       4.381   4.946  -4.806  0.00  0.00    +0.094 C 
BRANCH   5   8
ATOM      8  C   UNL     1       0.771   5.829  -5.076  0.00  0.00    +0.049 A 
ATOM      9  C   UNL     1      -0.093   6.607  -4.339  0.00  0.00    +0.026 A 
ATOM     10  C   UNL     1      -1.348   6.983  -4.785  0.00  0.00    +0.059 A 
ATOM     11 CL   UNL     1      -2.051   8.529  -4.331  0.00  0.00    -0.082 Cl
ATOM     12  C   UNL     1      -1.877   6.209  -5.809  0.00  0.00    +0.011 A 
ATOM     13  C   UNL     1      -1.057   5.317  -6.489  0.00  0.00    +0.002 A 
ATOM     14  C   UNL     1       0.304   5.239  -6.223  0.00  0.00    +0.015 A 
ENDBRANCH   5   8
ENDBRANCH   1   2
BRANCH   1  15
ATOM     15  C   UNL     1       4.798   5.385  -7.657  0.00  0.00    +0.044 C 
BRANCH  15  16
ATOM     16  C   UNL     1       4.058   5.250  -8.981  0.00  0.00    +0.134 C 
BRANCH  16  19
ATOM     17  O   UNL     1       3.441   5.493 -11.879  0.00  0.00    -0.244 OA
ATOM     18  C   UNL     1       4.601   5.616 -11.382  0.00  0.00    +0.352 A 
ATOM     19  N   UNL     1       4.957   5.371 -10.102  0.00  0.00    -0.201 N 
ATOM     20  N   UNL     1       6.235   5.702  -9.971  0.00  0.00    -0.147 NA
ATOM     21  C   UNL     1       6.771   5.609 -11.191  0.00  0.00    +0.171 A 
ATOM     22  C   UNL     1       8.002   5.275 -11.730  0.00  0.00    +0.039 A 
ATOM     23  C   UNL     1       8.352   5.902 -12.910  0.00  0.00    +0.005 A 
ATOM     24  C   UNL     1       7.325   6.311 -13.733  0.00  0.00    +0.019 A 
ATOM     25  C   UNL     1       6.008   6.257 -13.303  0.00  0.00    +0.086 A 
ATOM     26  N   UNL     1       5.750   5.805 -12.058  0.00  0.00    -0.241 N 
ENDBRANCH  16  19
ENDBRANCH  15  16
ENDBRANCH   1  15
TORSDOF 5
ENDMDL
MODEL 5
REMARK VINA RESULT:      -8.4      2.696      4.145
REMARK  Name = 
REMARK  5 active torsions:
REMARK  status: ('A' for Active; 'I' for Inactive)
REMARK    1  A    between atoms: N_10  and  C_11
REMARK    2  A    between atoms: C_11  and  C_12
REMARK    3  A    between atoms: C_12  and  C_13
REMARK    4  A    between atoms: C_13  and  N_14
REMARK    5  A    between atoms: N_17  and  C_18
REMARK                            x       y       z     vdW  Elec       q    Type
REMARK                         _______ _______ _______ _____ _____    ______ ____
ROOT
ATOM      1  C   UNL     1       1.656   5.711  -7.425  0.00  0.00    +0.074 C 
ENDROOT
BRANCH   1   2
ATOM      2  N   UNL     1       0.446   5.262  -6.741  0.00  0.00    -0.270 NA
ATOM      3  C   UNL     1       0.759   4.248  -5.769  0.00  0.00    +0.094 C 
ATOM      4  C   UNL     1       1.242   4.932  -4.521  0.00  0.00    +0.108 C 
ATOM      5  N   UNL     1       1.589   6.320  -4.799  0.00  0.00    -0.305 N 
ATOM      6  C   UNL     1       0.484   7.176  -5.216  0.00  0.00    +0.108 C 
ATOM      7  C   UNL     1      -0.326   6.355  -6.213  0.00  0.00    +0.094 C 
BRANCH   5   8
ATOM      8  C   UNL     1       2.771   6.870  -4.206  0.00  0.00    +0.049 A 
ATOM      9  C   UNL     1       2.913   6.873  -2.837  0.00  0.00    +0.026 A 
ATOM     10  C   UNL     1       4.133   7.006  -2.199  0.00  0.00    +0.059 A 
ATOM     11 CL   UNL     1       4.451   6.210  -0.663  0.00  0.00    -0.082 Cl
ATOM     12  C   UNL     1       5.153   7.560  -2.962  0.00  0.00    +0.011 A 
ATOM     13  C   UNL     1       4.987   7.690  -4.336  0.00  0.00    +0.002 A 
ATOM     14  C   UNL     1       3.856   7.203  -4.978  0.00  0.00    +0.015 A 
ENDBRANCH   5   8
ENDBRANCH   1   2
BRANCH   1  15
ATOM     15  C   UNL     1       2.507   4.460  -7.611  0.00  0.00    +0.044 C 
BRANCH  15  16
ATOM     16  C   UNL     1       2.683   4.297  -9.115  0.00  0.00    +0.134 C 
BRANCH  16  19
ATOM     17  O   UNL     1       2.922   6.217 -11.373  0.00  0.00    -0.244 OA
ATOM     18  C   UNL     1       3.846   5.974 -10.539  0.00  0.00    +0.352 A 
ATOM     19  N   UNL     1       3.841   5.011  -9.592  0.00  0.00    -0.201 N 
ATOM     20  N   UNL     1       4.952   5.145  -8.878  0.00  0.00    -0.147 NA
ATOM     21  C   UNL     1       5.832   5.760  -9.672  0.00  0.00    +0.171 A 
ATOM     22  C   UNL     1       7.206   5.750  -9.854  0.00  0.00    +0.039 A 
ATOM     23  C   UNL     1       7.783   6.932 -10.275  0.00  0.00    +0.005 A 
ATOM     24  C   UNL     1       6.994   7.790 -11.009  0.00  0.00    +0.019 A 
ATOM     25  C   UNL     1       5.635   7.554 -11.157  0.00  0.00    +0.086 A 
ATOM     26  N   UNL     1       5.097   6.471 -10.558  0.00  0.00    -0.241 N 
ENDBRANCH  16  19
ENDBRANCH  15  16
ENDBRANCH   1  15
TORSDOF 5
ENDMDL
MODEL 6
REMARK VINA RESULT:      -8.3      5.347      9.354
REMARK  Name = 
REMARK  5 active torsions:
REMARK  status: ('A' for Active; 'I' for Inactive)
REMARK    1  A    between atoms: N_10  and  C_11
REMARK    2  A    between atoms: C_11  and  C_12
REMARK    3  A    between atoms: C_12  and  C_13
REMARK    4  A    between atoms: C_13  and  N_14
REMARK    5  A    between atoms: N_17  and  C_18
REMARK                            x       y       z     vdW  Elec       q    Type
REMARK                         _______ _______ _______ _____ _____    ______ ____
ROOT
ATOM      1  C   UNL     1       3.259   6.372  -2.913  0.00  0.00    +0.074 C 
ENDROOT
BRANCH   1   2
ATOM      2  N   UNL     1       4.271   5.985  -3.893  0.00  0.00    -0.270 NA
ATOM      3  C   UNL     1       4.081   4.618  -4.304  0.00  0.00    +0.094 C 
ATOM      4  C   UNL     1       3.011   4.594  -5.360  0.00  0.00    +0.108 C 
ATOM      5  N   UNL     1       2.268   5.847  -5.365  0.00  0.00    -0.305 N 
ATOM      6  C   UNL     1       3.034   7.034  -5.726  0.00  0.00    +0.108 C 
ATOM      7  C   UNL     1       4.362   6.913  -4.987  0.00  0.00    +0.094 C 
BRANCH   5   8
ATOM      8  C   UNL     1       0.845   5.807  -5.521  0.00  0.00    +0.049 A 
ATOM      9  C   UNL     1       0.045   6.577  -4.707  0.00  0.00    +0.026 A 
ATOM     10  C   UNL     1      -1.261   6.911  -5.019  0.00  0.00    +0.059 A 
ATOM     11 CL   UNL     1      -1.954   8.448  -4.517  0.00  0.00    -0.082 Cl
ATOM     12  C   UNL     1      -1.878   6.102  -5.965  0.00  0.00    +0.011 A 
ATOM     13  C   UNL     1      -1.112   5.219  -6.715  0.00  0.00    +0.002 A 
ATOM     14  C   UNL     1       0.272   5.182  -6.600  0.00  0.00    +0.015 A 
ENDBRANCH   5   8
ENDBRANCH   1   2
BRANCH   1  15
ATOM     15  C   UNL     1       3.576   5.567  -1.659  0.00  0.00    +0.044 C 
BRANCH  15  16
ATOM     16  C   UNL     1       2.280   4.864  -1.277  0.00  0.00    +0.134 C 
BRANCH  16  19
ATOM     17  O   UNL     1      -0.660   4.946  -1.706  0.00  0.00    -0.244 OA
ATOM     18  C   UNL     1      -0.035   5.690  -0.891  0.00  0.00    +0.352 A 
ATOM     19  N   UNL     1       1.305   5.795  -0.765  0.00  0.00    -0.201 N 
ATOM     20  N   UNL     1       1.550   6.612   0.252  0.00  0.00    -0.147 NA
ATOM     21  C   UNL     1       0.473   7.392   0.371  0.00  0.00    +0.171 A 
ATOM     22  C   UNL     1       0.207   8.695   0.758  0.00  0.00    +0.039 A 
ATOM     23  C   UNL     1      -1.015   8.926   1.358  0.00  0.00    +0.005 A 
ATOM     24  C   UNL     1      -2.050   8.080   1.021  0.00  0.00    +0.019 A 
ATOM     25  C   UNL     1      -1.819   6.945   0.259  0.00  0.00    +0.086 A 
ATOM     26  N   UNL     1      -0.557   6.678  -0.140  0.00  0.00    -0.241 N 
ENDBRANCH  16  19
ENDBRANCH  15  16
ENDBRANCH   1  15
TORSDOF 5
ENDMDL
MODEL 7
REMARK VINA RESULT:      -8.3      3.898      9.125
REMARK  Name = 
REMARK  5 active torsions:
REMARK  status: ('A' for Active; 'I' for Inactive)
REMARK    1  A    between atoms: N_10  and  C_11
REMARK    2  A    between atoms: C_11  and  C_12
REMARK    3  A    between atoms: C_12  and  C_13
REMARK    4  A    between atoms: C_13  and  N_14
REMARK    5  A    between atoms: N_17  and  C_18
REMARK                            x       y       z     vdW  Elec       q    Type
REMARK                         _______ _______ _______ _____ _____    ______ ____
ROOT
ATOM      1  C   UNL     1       3.279   6.645  -6.314  0.00  0.00    +0.074 C 
ENDROOT
BRANCH   1   2
ATOM      2  N   UNL     1       2.046   6.249  -6.989  0.00  0.00    -0.270 NA
ATOM      3  C   UNL     1       1.784   7.110  -8.113  0.00  0.00    +0.094 C 
ATOM      4  C   UNL     1       2.607   6.624  -9.274  0.00  0.00    +0.108 C 
ATOM      5  N   UNL     1       3.649   5.713  -8.817  0.00  0.00    -0.305 N 
ATOM      6  C   UNL     1       3.182   4.466  -8.223  0.00  0.00    +0.108 C 
ATOM      7  C   UNL     1       2.020   4.848  -7.312  0.00  0.00    +0.094 C 
BRANCH   5   8
ATOM      8  C   UNL     1       4.959   5.818  -9.387  0.00  0.00    +0.049 A 
ATOM      9  C   UNL     1       5.165   6.621 -10.486  0.00  0.00    +0.026 A 
ATOM     10  C   UNL     1       6.411   7.093 -10.860  0.00  0.00    +0.059 A 
ATOM     11 CL   UNL     1       6.597   8.663 -11.630  0.00  0.00    -0.082 Cl
ATOM     12  C   UNL     1       7.496   6.394 -10.348  0.00  0.00    +0.011 A 
ATOM     13  C   UNL     1       7.300   5.478  -9.322  0.00  0.00    +0.002 A 
ATOM     14  C   UNL     1       6.052   5.303  -8.737  0.00  0.00    +0.015 A 
ENDBRANCH   5   8
ENDBRANCH   1   2
BRANCH   1  15
ATOM     15  C   UNL     1       3.262   5.920  -4.974  0.00  0.00    +0.044 C 
BRANCH  15  16
ATOM     16  C   UNL     1       2.610   6.882  -3.989  0.00  0.00    +0.134 C 
BRANCH  16  19
ATOM     17  O   UNL     1       1.589   5.654  -1.481  0.00  0.00    -0.244 OA
ATOM     18  C   UNL     1       0.854   6.039  -2.439  0.00  0.00    +0.352 A 
ATOM     19  N   UNL     1       1.271   6.464  -3.651  0.00  0.00    -0.201 N 
ATOM     20  N   UNL     1       0.200   6.854  -4.331  0.00  0.00    -0.147 NA
ATOM     21  C   UNL     1      -0.834   6.190  -3.807  0.00  0.00    +0.171 A 
ATOM     22  C   UNL     1      -2.035   5.671  -4.263  0.00  0.00    +0.039 A 
ATOM     23  C   UNL     1      -3.081   5.648  -3.361  0.00  0.00    +0.005 A 
ATOM     24  C   UNL     1      -2.757   5.571  -2.024  0.00  0.00    +0.019 A 
ATOM     25  C   UNL     1      -1.441   5.696  -1.605  0.00  0.00    +0.086 A 
ATOM     26  N   UNL     1      -0.483   5.906  -2.532  0.00  0.00    -0.241 N 
ENDBRANCH  16  19
ENDBRANCH  15  16
ENDBRANCH   1  15
TORSDOF 5
ENDMDL
MODEL 8
REMARK VINA RESULT:      -8.2      3.922      8.578
REMARK  Name = 
REMARK  5 active torsions:
REMARK  status: ('A' for Active; 'I' for Inactive)
REMARK    1  A    between atoms: N_10  and  C_11
REMARK    2  A    between atoms: C_11  and  C_12
REMARK    3  A    between atoms: C_12  and  C_13
REMARK    4  A    between atoms: C_13  and  N_14
REMARK    5  A    between atoms: N_17  and  C_18
REMARK                            x       y       z     vdW  Elec       q    Type
REMARK                         _______ _______ _______ _____ _____    ______ ____
ROOT
ATOM      1  C   UNL     1       2.648   7.211  -8.590  0.00  0.00    +0.074 C 
ENDROOT
BRANCH   1   2
ATOM      2  N   UNL     1       1.691   6.318  -9.237  0.00  0.00    -0.270 NA
ATOM      3  C   UNL     1       1.723   6.489 -10.666  0.00  0.00    +0.094 C 
ATOM      4  C   UNL     1       2.875   5.689 -11.205  0.00  0.00    +0.108 C 
ATOM      5  N   UNL     1       3.786   5.314 -10.132  0.00  0.00    -0.305 N 
ATOM      6  C   UNL     1       3.234   4.423  -9.118  0.00  0.00    +0.108 C 
ATOM      7  C   UNL     1       1.837   4.952  -8.812  0.00  0.00    +0.094 C 
BRANCH   5   8
ATOM      8  C   UNL     1       5.197   5.392 -10.362  0.00  0.00    +0.049 A 
ATOM      9  C   UNL     1       5.682   5.394 -11.650  0.00  0.00    +0.026 A 
ATOM     10  C   UNL     1       6.944   5.851 -11.988  0.00  0.00    +0.059 A 
ATOM     11 CL   UNL     1       7.248   6.625 -13.538  0.00  0.00    -0.082 Cl
ATOM     12  C   UNL     1       7.859   5.912 -10.946  0.00  0.00    +0.011 A 
ATOM     13  C   UNL     1       7.415   5.784  -9.635  0.00  0.00    +0.002 A 
ATOM     14  C   UNL     1       6.063   5.677  -9.336  0.00  0.00    +0.015 A 
ENDBRANCH   5   8
ENDBRANCH   1   2
BRANCH   1  15
ATOM     15  C   UNL     1       2.097   7.455  -7.190  0.00  0.00    +0.044 C 
BRANCH  15  16
ATOM     16  C   UNL     1       3.200   7.029  -6.229  0.00  0.00    +0.134 C 
BRANCH  16  19
ATOM     17  O   UNL     1       4.598   5.650  -3.997  0.00  0.00    -0.244 OA
ATOM     18  C   UNL     1       3.368   5.959  -3.988  0.00  0.00    +0.352 A 
ATOM     19  N   UNL     1       2.656   6.449  -5.026  0.00  0.00    -0.201 N 
ATOM     20  N   UNL     1       1.435   6.719  -4.582  0.00  0.00    -0.147 NA
ATOM     21  C   UNL     1       1.241   5.928  -3.523  0.00  0.00    +0.171 A 
ATOM     22  C   UNL     1       0.170   5.276  -2.932  0.00  0.00    +0.039 A 
ATOM     23  C   UNL     1       0.224   5.115  -1.561  0.00  0.00    +0.005 A 
ATOM     24  C   UNL     1       1.474   5.056  -0.984  0.00  0.00    +0.019 A 
ATOM     25  C   UNL     1       2.612   5.331  -1.727  0.00  0.00    +0.086 A 
ATOM     26  N   UNL     1       2.472   5.668  -3.027  0.00  0.00    -0.241 N 
ENDBRANCH  16  19
ENDBRANCH  15  16
ENDBRANCH   1  15
TORSDOF 5
ENDMDL
MODEL 9
REMARK VINA RESULT:      -8.1      3.771      9.041
REMARK  Name = 
REMARK  5 active torsions:
REMARK  status: ('A' for Active; 'I' for Inactive)
REMARK    1  A    between atoms: N_10  and  C_11
REMARK    2  A    between atoms: C_11  and  C_12
REMARK    3  A    between atoms: C_12  and  C_13
REMARK    4  A    between atoms: C_13  and  N_14
REMARK    5  A    between atoms: N_17  and  C_18
REMARK                            x       y       z     vdW  Elec       q    Type
REMARK                         _______ _______ _______ _____ _____    ______ ____
ROOT
ATOM      1  C   UNL     1       2.991   5.866  -6.785  0.00  0.00    +0.074 C 
ENDROOT
BRANCH   1   2
ATOM      2  N   UNL     1       2.012   5.137  -7.588  0.00  0.00    -0.270 NA
ATOM      3  C   UNL     1       1.433   5.999  -8.586  0.00  0.00    +0.094 C 
ATOM      4  C   UNL     1       2.379   6.063  -9.752  0.00  0.00    +0.108 C 
ATOM      5  N   UNL     1       3.695   5.567  -9.371  0.00  0.00    -0.305 N 
ATOM      6  C   UNL     1       3.756   4.159  -8.999  0.00  0.00    +0.108 C 
ATOM      7  C   UNL     1       2.538   3.908  -8.116  0.00  0.00    +0.094 C 
BRANCH   5   8
ATOM      8  C   UNL     1       4.859   6.262  -9.835  0.00  0.00    +0.049 A 
ATOM      9  C   UNL     1       6.111   5.765  -9.554  0.00  0.00    +0.026 A 
ATOM     10  C   UNL     1       7.246   6.118 -10.262  0.00  0.00    +0.059 A 
ATOM     11 CL   UNL     1       8.561   4.975 -10.506  0.00  0.00    -0.082 Cl
ATOM     12  C   UNL     1       7.160   7.300 -10.985  0.00  0.00    +0.011 A 
ATOM     13  C   UNL     1       5.920   7.897 -11.178  0.00  0.00    +0.002 A 
ATOM     14  C   UNL     1       4.750   7.295 -10.732  0.00  0.00    +0.015 A 
ENDBRANCH   5   8
ENDBRANCH   1   2
BRANCH   1  15
ATOM     15  C   UNL     1       2.884   5.282  -5.382  0.00  0.00    +0.044 C 
BRANCH  15  16
ATOM     16  C   UNL     1       2.611   6.464  -4.460  0.00  0.00    +0.134 C 
BRANCH  16  19
ATOM     17  O   UNL     1      -0.013   7.276  -5.598  0.00  0.00    -0.244 OA
ATOM     18  C   UNL     1       0.130   6.646  -4.506  0.00  0.00    +0.352 A 
ATOM     19  N   UNL     1       1.295   6.385  -3.876  0.00  0.00    -0.201 N 
ATOM     20  N   UNL     1       1.018   5.635  -2.816  0.00  0.00    -0.147 NA
ATOM     21  C   UNL     1      -0.252   5.896  -2.498  0.00  0.00    +0.171 A 
ATOM     22  C   UNL     1      -1.011   5.953  -1.340  0.00  0.00    +0.039 A 
ATOM     23  C   UNL     1      -2.345   5.613  -1.458  0.00  0.00    +0.005 A 
ATOM     24  C   UNL     1      -2.939   5.813  -2.685  0.00  0.00    +0.019 A 
ATOM     25  C   UNL     1      -2.181   6.165  -3.791  0.00  0.00    +0.086 A 
ATOM     26  N   UNL     1      -0.845   6.298  -3.645  0.00  0.00    -0.241 N 
ENDBRANCH  16  19
ENDBRANCH  15  16
ENDBRANCH   1  15
TORSDOF 5
ENDMDL
