MODEL 1
REMARK VINA RESULT:      -5.5      0.000      0.000
REMARK  Name = 
REMARK  3 active torsions:
REMARK  status: ('A' for Active; 'I' for Inactive)
REMARK    1  A    between atoms: C_2  and  C_3
REMARK    2  A    between atoms: C_3  and  C_4
REMARK    3  A    between atoms: C_4  and  C_5
REMARK                            x       y       z     vdW  Elec       q    Type
REMARK                         _______ _______ _______ _____ _____    ______ ____
ROOT
ATOM      1  C   UNL     1       0.559   5.615  -6.580  0.00  0.00    +0.028 C 
ATOM      2  C   UNL     1       0.276   5.014  -5.210  0.00  0.00    +0.002 C 
ATOM      3  C   UNL     1      -0.742   5.838  -4.468  0.00  0.00    +0.000 C 
ATOM      4  C   UNL     1      -1.846   6.298  -5.412  0.00  0.00    +0.000 C 
ATOM      5  C   UNL     1      -1.901   5.276  -6.538  0.00  0.00    +0.000 C 
ATOM      6  C   UNL     1      -0.701   5.554  -7.433  0.00  0.00    +0.002 C 
ENDROOT
BRANCH   1   8
ATOM      7  N   UNL     1       2.069   3.710  -6.404  0.00  0.00    -0.131 NA
ATOM      8  C   UNL     1       1.619   4.800  -7.270  0.00  0.00    +0.110 C 
ENDBRANCH   1   8
BRANCH   1   9
ATOM      9  C   UNL     1       0.998   7.032  -6.362  0.00  0.00    +0.115 C 
BRANCH   9  10
ATOM     10  C   UNL     1       2.297   7.341  -7.039  0.00  0.00    +0.365 C 
ATOM     11  O   UNL     1       3.396   7.462  -6.182  0.00  0.00    -0.246 OA
ATOM     12  O   UNL     1       2.226   8.224  -7.946  0.00  0.00    -0.246 OA
ENDBRANCH   9  10
ENDBRANCH   1   9
TORSDOF 3
ENDMDL
MODEL 2
REMARK VINA RESULT:      -5.4      6.332      7.665
REMARK  Name = 
REMARK  3 active torsions:
REMARK  status: ('A' for Active; 'I' for Inactive)
REMARK    1  A    between atoms: C_2  and  C_3
REMARK    2  A    between atoms: C_3  and  C_4
REMARK    3  A    between atoms: C_4  and  C_5
REMARK                            x       y       z     vdW  Elec       q    Type
REMARK                         _______ _______ _______ _____ _____    ______ ____
ROOT
ATOM      1  C   UNL     1       6.084   6.336 -10.743  0.00  0.00    +0.028 C 
ATOM      2  C   UNL     1       4.747   6.997 -10.438  0.00  0.00    +0.002 C 
ATOM      3  C   UNL     1       3.698   5.960 -10.137  0.00  0.00    +0.000 C 
ATOM      4  C   UNL     1       4.282   4.844  -9.281  0.00  0.00    +0.000 C 
ATOM      5  C   UNL     1       5.442   5.456  -8.510  0.00  0.00    +0.000 C 
ATOM      6  C   UNL     1       6.587   5.608  -9.502  0.00  0.00    +0.002 C 
ENDROOT
BRANCH   1   8
ATOM      7  N   UNL     1       6.420   8.609 -11.554  0.00  0.00    -0.131 NA
ATOM      8  C   UNL     1       7.094   7.396 -11.092  0.00  0.00    +0.110 C 
ENDBRANCH   1   8
BRANCH   1   9
ATOM      9  C   UNL     1       5.861   5.382 -11.878  0.00  0.00    +0.115 C 
BRANCH   9  10
ATOM     10  C   UNL     1       7.030   5.316 -12.810  0.00  0.00    +0.365 C 
ATOM     11  O   UNL     1       6.701   5.296 -14.170  0.00  0.00    -0.246 OA
ATOM     12  O   UNL     1       7.937   4.500 -12.468  0.00  0.00    -0.246 OA
ENDBRANCH   9  10
ENDBRANCH   1   9
TORSDOF 3
ENDMDL
MODEL 3
REMARK VINA RESULT:      -5.4      3.788      4.791
REMARK  Name = 
REMARK  3 active torsions:
REMARK  status: ('A' for Active; 'I' for Inactive)
REMARK    1  A    between atoms: C_2  and  C_3
REMARK    2  A    between atoms: C_3  and  C_4
REMARK    3  A    between atoms: C_4  and  C_5
REMARK                            x       y       z     vdW  Elec       q    Type
REMARK                         _______ _______ _______ _____ _____    ______ ____
ROOT
ATOM      1  C   UNL     1      -1.400   6.331  -4.909  0.00  0.00    +0.028 C 
ATOM      2  C   UNL     1      -0.157   7.085  -5.361  0.00  0.00    +0.002 C 
ATOM      3  C   UNL     1       0.942   6.125  -5.733  0.00  0.00    +0.000 C 
ATOM      4  C   UNL     1       0.373   4.936  -6.497  0.00  0.00    +0.000 C 
ATOM      5  C   UNL     1      -0.901   5.426  -7.168  0.00  0.00    +0.000 C 
ATOM      6  C   UNL     1      -1.956   5.522  -6.074  0.00  0.00    +0.002 C 
ENDROOT
BRANCH   1   8
ATOM      7  N   UNL     1      -1.887   8.663  -4.397  0.00  0.00    -0.131 NA
ATOM      8  C   UNL     1      -2.456   7.320  -4.494  0.00  0.00    +0.110 C 
ENDBRANCH   1   8
BRANCH   1   9
ATOM      9  C   UNL     1      -0.992   5.440  -3.775  0.00  0.00    +0.115 C 
BRANCH   9  10
ATOM     10  C   UNL     1      -2.012   5.401  -2.680  0.00  0.00    +0.365 C 
ATOM     11  O   UNL     1      -1.488   5.415  -1.383  0.00  0.00    -0.246 OA
ATOM     12  O   UNL     1      -2.959   4.579  -2.865  0.00  0.00    -0.246 OA
ENDBRANCH   9  10
ENDBRANCH   1   9
TORSDOF 3
ENDMDL
MODEL 4
REMARK VINA RESULT:      -5.2      5.606      7.619
REMARK  Name = 
REMARK  3 active torsions:
REMARK  status: ('A' for Active; 'I' for Inactive)
REMARK    1  A    between atoms: C_2  and  C_3
REMARK    2  A    between atoms: C_3  and  C_4
REMARK    3  A    between atoms: C_4  and  C_5
REMARK                            x       y       z     vdW  Elec       q    Type
REMARK                         _______ _______ _______ _____ _____    ______ ____
ROOT
ATOM      1  C   UNL     1       5.182   6.333 -10.390  0.00  0.00    +0.028 C 
ATOM      2  C   UNL     1       6.184   5.956  -9.307  0.00  0.00    +0.002 C 
ATOM      3  C   UNL     1       7.490   5.522  -9.919  0.00  0.00    +0.000 C 
ATOM      4  C   UNL     1       7.847   6.414 -11.101  0.00  0.00    +0.000 C 
ATOM      5  C   UNL     1       7.168   7.752 -10.849  0.00  0.00    +0.000 C 
ATOM      6  C   UNL     1       5.690   7.551 -11.151  0.00  0.00    +0.002 C 
ENDROOT
BRANCH   1   8
ATOM      7  N   UNL     1       3.076   5.513  -9.479  0.00  0.00    -0.131 NA
ATOM      8  C   UNL     1       3.875   6.708  -9.746  0.00  0.00    +0.110 C 
ENDBRANCH   1   8
BRANCH   1   9
ATOM      9  C   UNL     1       5.039   5.148 -11.296  0.00  0.00    +0.115 C 
BRANCH   9  10
ATOM     10  C   UNL     1       4.771   5.539 -12.716  0.00  0.00    +0.365 C 
ATOM     11  O   UNL     1       3.418   5.634 -13.058  0.00  0.00    -0.246 OA
ATOM     12  O   UNL     1       5.500   4.956 -13.574  0.00  0.00    -0.246 OA
ENDBRANCH   9  10
ENDBRANCH   1   9
TORSDOF 3
ENDMDL
MODEL 5
REMARK VINA RESULT:      -5.0      3.336      4.543
REMARK  Name = 
REMARK  3 active torsions:
REMARK  status: ('A' for Active; 'I' for Inactive)
REMARK    1  A    between atoms: C_2  and  C_3
REMARK    2  A    between atoms: C_3  and  C_4
REMARK    3  A    between atoms: C_4  and  C_5
REMARK                            x       y       z     vdW  Elec       q    Type
REMARK                         _______ _______ _______ _____ _____    ______ ____
ROOT
ATOM      1  C   UNL     1      -1.428   6.327  -4.039  0.00  0.00    +0.028 C 
ATOM      2  C   UNL     1      -0.671   7.269  -4.965  0.00  0.00    +0.002 C 
ATOM      3  C   UNL     1      -0.034   6.505  -6.096  0.00  0.00    +0.000 C 
ATOM      4  C   UNL     1      -0.978   5.425  -6.608  0.00  0.00    +0.000 C 
ATOM      5  C   UNL     1      -2.388   5.901  -6.290  0.00  0.00    +0.000 C 
ATOM      6  C   UNL     1      -2.588   5.693  -4.795  0.00  0.00    +0.002 C 
ENDROOT
BRANCH   1   8
ATOM      7  N   UNL     1      -3.316   6.587  -2.521  0.00  0.00    -0.131 NA
ATOM      8  C   UNL     1      -2.005   7.115  -2.894  0.00  0.00    +0.110 C 
ENDBRANCH   1   8
BRANCH   1   9
ATOM      9  C   UNL     1      -0.455   5.289  -3.568  0.00  0.00    +0.115 C 
BRANCH   9  10
ATOM     10  C   UNL     1       0.173   5.643  -2.257  0.00  0.00    +0.365 C 
ATOM     11  O   UNL     1       1.401   6.307  -2.350  0.00  0.00    -0.246 OA
ATOM     12  O   UNL     1       0.124   4.729  -1.380  0.00  0.00    -0.246 OA
ENDBRANCH   9  10
ENDBRANCH   1   9
TORSDOF 3
ENDMDL
MODEL 6
REMARK VINA RESULT:      -5.0      5.939      7.821
REMARK  Name = 
REMARK  3 active torsions:
REMARK  status: ('A' for Active; 'I' for Inactive)
REMARK    1  A    between atoms: C_2  and  C_3
REMARK    2  A    between atoms: C_3  and  C_4
REMARK    3  A    between atoms: C_4  and  C_5
REMARK                            x       y       z     vdW  Elec       q    Type
REMARK                         _______ _______ _______ _____ _____    ______ ____
ROOT
ATOM      1  C   UNL     1       5.477   6.263 -11.552  0.00  0.00    +0.028 C 
ATOM      2  C   UNL     1       6.036   7.619 -11.961  0.00  0.00    +0.002 C 
ATOM      3  C   UNL     1       6.979   8.144 -10.911  0.00  0.00    +0.000 C 
ATOM      4  C   UNL     1       7.852   7.020 -10.368  0.00  0.00    +0.000 C 
ATOM      5  C   UNL     1       7.943   5.977 -11.472  0.00  0.00    +0.000 C 
ATOM      6  C   UNL     1       6.608   5.245 -11.486  0.00  0.00    +0.002 C 
ENDROOT
BRANCH   1   8
ATOM      7  N   UNL     1       5.094   4.741 -13.416  0.00  0.00    -0.131 NA
ATOM      8  C   UNL     1       4.499   5.795 -12.595  0.00  0.00    +0.110 C 
ENDBRANCH   1   8
BRANCH   1   9
ATOM      9  C   UNL     1       4.825   6.437 -10.213  0.00  0.00    +0.115 C 
BRANCH   9  10
ATOM     10  C   UNL     1       4.888   5.196  -9.379  0.00  0.00    +0.365 C 
ATOM     11  O   UNL     1       3.740   4.397  -9.418  0.00  0.00    -0.246 OA
ATOM     12  O   UNL     1       5.388   5.357  -8.225  0.00  0.00    -0.246 OA
ENDBRANCH   9  10
ENDBRANCH   1   9
TORSDOF 3
ENDMDL
MODEL 7
REMARK VINA RESULT:      -4.9      2.633      3.513
REMARK  Name = 
REMARK  3 active torsions:
REMARK  status: ('A' for Active; 'I' for Inactive)
REMARK    1  A    between atoms: C_2  and  C_3
REMARK    2  A    between atoms: C_3  and  C_4
REMARK    3  A    between atoms: C_4  and  C_5
REMARK                            x       y       z     vdW  Elec       q    Type
REMARK                         _______ _______ _______ _____ _____    ______ ____
ROOT
ATOM      1  C   UNL     1      -0.874   5.885  -4.785  0.00  0.00    +0.028 C 
ATOM      2  C   UNL     1      -2.366   5.636  -4.611  0.00  0.00    +0.002 C 
ATOM      3  C   UNL     1      -2.858   6.237  -3.322  0.00  0.00    +0.000 C 
ATOM      4  C   UNL     1      -2.215   7.599  -3.089  0.00  0.00    +0.000 C 
ATOM      5  C   UNL     1      -1.855   8.144  -4.463  0.00  0.00    +0.000 C 
ATOM      6  C   UNL     1      -0.620   7.380  -4.921  0.00  0.00    +0.002 C 
ENDROOT
BRANCH   1   8
ATOM      7  N   UNL     1      -1.491   5.175  -7.034  0.00  0.00    -0.131 NA
ATOM      8  C   UNL     1      -0.407   5.224  -6.054  0.00  0.00    +0.110 C 
ENDBRANCH   1   8
BRANCH   1   9
ATOM      9  C   UNL     1      -0.186   5.325  -3.578  0.00  0.00    +0.115 C 
BRANCH   9  10
ATOM     10  C   UNL     1       1.125   5.993  -3.303  0.00  0.00    +0.365 C 
ATOM     11  O   UNL     1       2.240   5.360  -3.863  0.00  0.00    -0.246 OA
ATOM     12  O   UNL     1       1.280   6.389  -2.109  0.00  0.00    -0.246 OA
ENDBRANCH   9  10
ENDBRANCH   1   9
TORSDOF 3
ENDMDL
MODEL 8
REMARK VINA RESULT:      -4.9      8.153      9.384
REMARK  Name = 
REMARK  3 active torsions:
REMARK  status: ('A' for Active; 'I' for Inactive)
REMARK    1  A    between atoms: C_2  and  C_3
REMARK    2  A    between atoms: C_3  and  C_4
REMARK    3  A    between atoms: C_4  and  C_5
REMARK                            x       y       z     vdW  Elec       q    Type
REMARK                         _______ _______ _______ _____ _____    ______ ____
ROOT
ATOM      1  C   UNL     1       6.129   6.161 -13.594  0.00  0.00    +0.028 C 
ATOM      2  C   UNL     1       6.298   7.344 -12.651  0.00  0.00    +0.002 C 
ATOM      3  C   UNL     1       6.643   6.873 -11.263  0.00  0.00    +0.000 C 
ATOM      4  C   UNL     1       7.633   5.716 -11.324  0.00  0.00    +0.000 C 
ATOM      5  C   UNL     1       8.400   5.876 -12.628  0.00  0.00    +0.000 C 
ATOM      6  C   UNL     1       7.459   5.432 -13.740  0.00  0.00    +0.002 C 
ENDROOT
BRANCH   1   8
ATOM      7  N   UNL     1       6.347   7.965 -15.217  0.00  0.00    -0.131 NA
ATOM      8  C   UNL     1       5.732   6.665 -14.955  0.00  0.00    +0.110 C 
ENDBRANCH   1   8
BRANCH   1   9
ATOM      9  C   UNL     1       5.082   5.267 -13.002  0.00  0.00    +0.115 C 
BRANCH   9  10
ATOM     10  C   UNL     1       3.715   5.548 -13.543  0.00  0.00    +0.365 C 
ATOM     11  O   UNL     1       2.836   6.156 -12.640  0.00  0.00    -0.246 OA
ATOM     12  O   UNL     1       3.211   4.608 -14.229  0.00  0.00    -0.246 OA
ENDBRANCH   9  10
ENDBRANCH   1   9
TORSDOF 3
ENDMDL
MODEL 9
REMARK VINA RESULT:      -4.8      2.418      3.356
REMARK  Name = 
REMARK  3 active torsions:
REMARK  status: ('A' for Active; 'I' for Inactive)
REMARK    1  A    between atoms: C_2  and  C_3
REMARK    2  A    between atoms: C_3  and  C_4
REMARK    3  A    between atoms: C_4  and  C_5
REMARK                            x       y       z     vdW  Elec       q    Type
REMARK                         _______ _______ _______ _____ _____    ______ ____
ROOT
ATOM      1  C   UNL     1      -0.087   6.310  -5.618  0.00  0.00    +0.028 C 
ATOM      2  C   UNL     1      -1.099   5.874  -6.669  0.00  0.00    +0.002 C 
ATOM      3  C   UNL     1      -2.327   5.296  -6.017  0.00  0.00    +0.000 C 
ATOM      4  C   UNL     1      -2.711   6.111  -4.788  0.00  0.00    +0.000 C 
ATOM      5  C   UNL     1      -2.175   7.515  -5.020  0.00  0.00    +0.000 C 
ATOM      6  C   UNL     1      -0.671   7.447  -4.790  0.00  0.00    +0.002 C 
ENDROOT
BRANCH   1   8
ATOM      7  N   UNL     1       1.155   6.431  -7.711  0.00  0.00    -0.131 NA
ATOM      8  C   UNL     1       1.147   6.830  -6.304  0.00  0.00    +0.110 C 
ENDBRANCH   1   8
BRANCH   1   9
ATOM      9  C   UNL     1       0.210   5.114  -4.764  0.00  0.00    +0.115 C 
BRANCH   9  10
ATOM     10  C   UNL     1       0.546   5.486  -3.354  0.00  0.00    +0.365 C 
ATOM     11  O   UNL     1       1.914   5.594  -3.080  0.00  0.00    -0.246 OA
ATOM     12  O   UNL     1      -0.129   4.878  -2.469  0.00  0.00    -0.246 OA
ENDBRANCH   9  10
ENDBRANCH   1   9
TORSDOF 3
ENDMDL
