MODEL 1
REMARK VINA RESULT:      -8.4      0.000      0.000
REMARK  Name = 
REMARK  7 active torsions:
REMARK  status: ('A' for Active; 'I' for Inactive)
REMARK    1  A    between atoms: C_2  and  O_4
REMARK    2  A    between atoms: O_4  and  C_5
REMARK    3  A    between atoms: C_5  and  C_7
REMARK    4  A    between atoms: C_7  and  O_10
REMARK    5  A    between atoms: O_10  and  C_11
REMARK    6  A    between atoms: C_14  and  C_15
REMARK    7  A    between atoms: C_15  and  C_17
REMARK                            x       y       z     vdW  Elec       q    Type
REMARK                         _______ _______ _______ _____ _____    ______ ____
ROOT
ATOM      1  C   UNL     1       4.959   5.989  -9.519  0.00  0.00    +0.139 A 
ATOM      2  C   UNL     1       3.763   6.684  -9.650  0.00  0.00    +0.037 A 
ATOM      3  C   UNL     1       2.715   6.412  -8.777  0.00  0.00    +0.006 A 
ATOM      4  C   UNL     1       2.883   5.569  -7.683  0.00  0.00    +0.039 A 
ATOM      5  C   UNL     1       4.205   5.394  -7.293  0.00  0.00    +0.006 A 
ATOM      6  C   UNL     1       5.217   5.509  -8.240  0.00  0.00    +0.037 A 
ENDROOT
BRANCH   4   7
ATOM      7  C   UNL     1       1.814   4.673  -7.226  0.00  0.00    +0.196 C 
ATOM      8  O   UNL     1       2.170   3.534  -6.798  0.00  0.00    -0.287 OA
BRANCH   7   9
ATOM      9  C   UNL     1       0.673   5.261  -6.509  0.00  0.00    +0.039 A 
ATOM     10  C   UNL     1      -0.619   5.038  -6.921  0.00  0.00    +0.004 A 
ATOM     11  C   UNL     1      -1.676   5.641  -6.265  0.00  0.00    +0.011 A 
ATOM     12  C   UNL     1      -1.423   6.656  -5.365  0.00  0.00    +0.058 A 
ATOM     13 CL   UNL     1      -2.588   7.901  -5.008  0.00  0.00    -0.082 Cl
ATOM     14  C   UNL     1      -0.151   6.722  -4.813  0.00  0.00    +0.011 A 
ATOM     15  C   UNL     1       0.913   6.054  -5.395  0.00  0.00    +0.004 A 
ENDBRANCH   7   9
ENDBRANCH   4   7
BRANCH   1  16
ATOM     16  O   UNL     1       5.656   5.500 -10.628  0.00  0.00    -0.472 OA
BRANCH  16  17
ATOM     17  C   UNL     1       6.930   5.987 -10.992  0.00  0.00    +0.221 C 
ATOM     18  C   UNL     1       7.959   5.428 -10.025  0.00  0.00    +0.055 C 
ATOM     19  C   UNL     1       6.918   7.507 -10.898  0.00  0.00    +0.055 C 
BRANCH  17  20
ATOM     20  C   UNL     1       7.206   5.597 -12.390  0.00  0.00    +0.353 C 
ATOM     21  O   UNL     1       7.769   4.497 -12.583  0.00  0.00    -0.246 OA
BRANCH  20  22
ATOM     22  O   UNL     1       7.186   6.488 -13.458  0.00  0.00    -0.450 OA
BRANCH  22  24
ATOM     23  C   UNL     1       6.355   7.544 -15.481  0.00  0.00    +0.047 C 
ATOM     24  C   UNL     1       6.294   6.354 -14.556  0.00  0.00    +0.169 C 
ATOM     25  C   UNL     1       4.892   6.025 -14.121  0.00  0.00    +0.047 C 
ENDBRANCH  22  24
ENDBRANCH  20  22
ENDBRANCH  17  20
ENDBRANCH  16  17
ENDBRANCH   1  16
TORSDOF 7
ENDMDL
MODEL 2
REMARK VINA RESULT:      -8.4      4.555      6.894
REMARK  Name = 
REMARK  7 active torsions:
REMARK  status: ('A' for Active; 'I' for Inactive)
REMARK    1  A    between atoms: C_2  and  O_4
REMARK    2  A    between atoms: O_4  and  C_5
REMARK    3  A    between atoms: C_5  and  C_7
REMARK    4  A    between atoms: C_7  and  O_10
REMARK    5  A    between atoms: O_10  and  C_11
REMARK    6  A    between atoms: C_14  and  C_15
REMARK    7  A    between atoms: C_15  and  C_17
REMARK                            x       y       z     vdW  Elec       q    Type
REMARK                         _______ _______ _______ _____ _____    ______ ____
ROOT
ATOM      1  C   UNL     1      -0.232   6.004  -6.431  0.00  0.00    +0.139 A 
ATOM      2  C   UNL     1      -1.490   5.432  -6.575  0.00  0.00    +0.037 A 
ATOM      3  C   UNL     1      -2.393   5.492  -5.519  0.00  0.00    +0.006 A 
ATOM      4  C   UNL     1      -2.124   6.237  -4.375  0.00  0.00    +0.039 A 
ATOM      5  C   UNL     1      -1.156   7.221  -4.548  0.00  0.00    +0.006 A 
ATOM      6  C   UNL     1      -0.166   7.042  -5.508  0.00  0.00    +0.037 A 
ENDROOT
BRANCH   4   7
ATOM      7  C   UNL     1      -2.546   5.790  -3.043  0.00  0.00    +0.196 C 
ATOM      8  O   UNL     1      -2.996   4.608  -2.955  0.00  0.00    -0.287 OA
BRANCH   7   9
ATOM      9  C   UNL     1      -1.759   6.227  -1.881  0.00  0.00    +0.039 A 
ATOM     10  C   UNL     1      -2.178   7.268  -1.087  0.00  0.00    +0.004 A 
ATOM     11  C   UNL     1      -1.399   7.699  -0.030  0.00  0.00    +0.011 A 
ATOM     12  C   UNL     1      -0.097   7.255   0.075  0.00  0.00    +0.058 A 
ATOM     13 CL   UNL     1       1.142   8.176   0.884  0.00  0.00    -0.082 Cl
ATOM     14  C   UNL     1       0.236   6.078  -0.581  0.00  0.00    +0.011 A 
ATOM     15  C   UNL     1      -0.572   5.570  -1.585  0.00  0.00    +0.004 A 
ENDBRANCH   7   9
ENDBRANCH   4   7
BRANCH   1  16
ATOM     16  O   UNL     1       0.926   5.369  -6.888  0.00  0.00    -0.472 OA
BRANCH  16  17
ATOM     17  C   UNL     1       1.758   5.937  -7.876  0.00  0.00    +0.221 C 
ATOM     18  C   UNL     1       0.899   6.345  -9.060  0.00  0.00    +0.055 C 
ATOM     19  C   UNL     1       2.773   4.893  -8.321  0.00  0.00    +0.055 C 
BRANCH  17  20
ATOM     20  C   UNL     1       2.480   7.085  -7.288  0.00  0.00    +0.353 C 
ATOM     21  O   UNL     1       2.250   8.218  -7.764  0.00  0.00    -0.246 OA
BRANCH  20  22
ATOM     22  O   UNL     1       3.612   6.957  -6.489  0.00  0.00    -0.450 OA
BRANCH  22  24
ATOM     23  C   UNL     1       4.715   7.662  -4.443  0.00  0.00    +0.047 C 
ATOM     24  C   UNL     1       3.553   6.931  -5.070  0.00  0.00    +0.169 C 
ATOM     25  C   UNL     1       3.381   5.538  -4.527  0.00  0.00    +0.047 C 
ENDBRANCH  22  24
ENDBRANCH  20  22
ENDBRANCH  17  20
ENDBRANCH  16  17
ENDBRANCH   1  16
TORSDOF 7
ENDMDL
MODEL 3
REMARK VINA RESULT:      -8.3      3.672      8.998
REMARK  Name = 
REMARK  7 active torsions:
REMARK  status: ('A' for Active; 'I' for Inactive)
REMARK    1  A    between atoms: C_2  and  O_4
REMARK    2  A    between atoms: O_4  and  C_5
REMARK    3  A    between atoms: C_5  and  C_7
REMARK    4  A    between atoms: C_7  and  O_10
REMARK    5  A    between atoms: O_10  and  C_11
REMARK    6  A    between atoms: C_14  and  C_15
REMARK    7  A    between atoms: C_15  and  C_17
REMARK                            x       y       z     vdW  Elec       q    Type
REMARK                         _______ _______ _______ _____ _____    ______ ____
ROOT
ATOM      1  C   UNL     1       2.254   4.297  -6.200  0.00  0.00    +0.139 A 
ATOM      2  C   UNL     1       2.258   3.654  -7.432  0.00  0.00    +0.037 A 
ATOM      3  C   UNL     1       2.993   4.193  -8.482  0.00  0.00    +0.006 A 
ATOM      4  C   UNL     1       3.843   5.278  -8.291  0.00  0.00    +0.039 A 
ATOM      5  C   UNL     1       4.226   5.479  -6.969  0.00  0.00    +0.006 A 
ATOM      6  C   UNL     1       3.378   5.075  -5.944  0.00  0.00    +0.037 A 
ENDROOT
BRANCH   4   7
ATOM      7  C   UNL     1       4.016   6.315  -9.315  0.00  0.00    +0.196 C 
ATOM      8  O   UNL     1       3.408   7.411  -9.124  0.00  0.00    -0.287 OA
BRANCH   7   9
ATOM      9  C   UNL     1       5.336   6.456  -9.945  0.00  0.00    +0.039 A 
ATOM     10  C   UNL     1       5.538   7.324 -10.991  0.00  0.00    +0.004 A 
ATOM     11  C   UNL     1       6.774   7.404 -11.605  0.00  0.00    +0.011 A 
ATOM     12  C   UNL     1       7.726   6.443 -11.336  0.00  0.00    +0.058 A 
ATOM     13 CL   UNL     1       8.984   6.031 -12.469  0.00  0.00    -0.082 Cl
ATOM     14  C   UNL     1       7.597   5.722 -10.157  0.00  0.00    +0.011 A 
ATOM     15  C   UNL     1       6.396   5.695  -9.468  0.00  0.00    +0.004 A 
ENDBRANCH   7   9
ENDBRANCH   4   7
BRANCH   1  16
ATOM     16  O   UNL     1       1.085   4.450  -5.449  0.00  0.00    -0.472 OA
BRANCH  16  17
ATOM     17  C   UNL     1       0.158   5.484  -5.697  0.00  0.00    +0.221 C 
ATOM     18  C   UNL     1      -0.660   5.120  -6.923  0.00  0.00    +0.055 C 
ATOM     19  C   UNL     1       0.923   6.774  -5.962  0.00  0.00    +0.055 C 
BRANCH  17  20
ATOM     20  C   UNL     1      -0.685   5.666  -4.497  0.00  0.00    +0.353 C 
ATOM     21  O   UNL     1      -0.181   5.379  -3.388  0.00  0.00    -0.246 OA
BRANCH  20  22
ATOM     22  O   UNL     1      -2.067   5.814  -4.540  0.00  0.00    -0.450 OA
BRANCH  22  24
ATOM     23  C   UNL     1      -1.991   8.234  -4.347  0.00  0.00    +0.047 C 
ATOM     24  C   UNL     1      -2.735   6.959  -4.030  0.00  0.00    +0.169 C 
ATOM     25  C   UNL     1      -3.069   6.828  -2.569  0.00  0.00    +0.047 C 
ENDBRANCH  22  24
ENDBRANCH  20  22
ENDBRANCH  17  20
ENDBRANCH  16  17
ENDBRANCH   1  16
TORSDOF 7
ENDMDL
MODEL 4
REMARK VINA RESULT:      -8.3      3.688      9.592
REMARK  Name = 
REMARK  7 active torsions:
REMARK  status: ('A' for Active; 'I' for Inactive)
REMARK    1  A    between atoms: C_2  and  O_4
REMARK    2  A    between atoms: O_4  and  C_5
REMARK    3  A    between atoms: C_5  and  C_7
REMARK    4  A    between atoms: C_7  and  O_10
REMARK    5  A    between atoms: O_10  and  C_11
REMARK    6  A    between atoms: C_14  and  C_15
REMARK    7  A    between atoms: C_15  and  C_17
REMARK                            x       y       z     vdW  Elec       q    Type
REMARK                         _______ _______ _______ _____ _____    ______ ____
ROOT
ATOM      1  C   UNL     1       0.260   6.060  -6.053  0.00  0.00    +0.139 A 
ATOM      2  C   UNL     1       1.416   6.819  -5.912  0.00  0.00    +0.037 A 
ATOM      3  C   UNL     1       2.479   6.615  -6.785  0.00  0.00    +0.006 A 
ATOM      4  C   UNL     1       2.360   5.774  -7.887  0.00  0.00    +0.039 A 
ATOM      5  C   UNL     1       1.050   5.530  -8.283  0.00  0.00    +0.006 A 
ATOM      6  C   UNL     1       0.032   5.580  -7.337  0.00  0.00    +0.037 A 
ENDROOT
BRANCH   4   7
ATOM      7  C   UNL     1       3.478   4.943  -8.350  0.00  0.00    +0.196 C 
ATOM      8  O   UNL     1       3.188   3.784  -8.774  0.00  0.00    -0.287 OA
BRANCH   7   9
ATOM      9  C   UNL     1       4.576   5.597  -9.076  0.00  0.00    +0.039 A 
ATOM     10  C   UNL     1       4.328   6.495 -10.086  0.00  0.00    +0.004 A 
ATOM     11  C   UNL     1       5.373   7.060 -10.792  0.00  0.00    +0.011 A 
ATOM     12  C   UNL     1       6.643   6.538 -10.653  0.00  0.00    +0.058 A 
ATOM     13 CL   UNL     1       7.849   6.668 -11.905  0.00  0.00    -0.082 Cl
ATOM     14  C   UNL     1       6.914   5.802  -9.508  0.00  0.00    +0.011 A 
ATOM     15  C   UNL     1       5.887   5.298  -8.727  0.00  0.00    +0.004 A 
ENDBRANCH   7   9
ENDBRANCH   4   7
BRANCH   1  16
ATOM     16  O   UNL     1      -0.412   5.524  -4.951  0.00  0.00    -0.472 OA
BRANCH  16  17
ATOM     17  C   UNL     1      -1.671   6.000  -4.530  0.00  0.00    +0.221 C 
ATOM     18  C   UNL     1      -2.735   5.458  -5.468  0.00  0.00    +0.055 C 
ATOM     19  C   UNL     1      -1.665   7.522  -4.595  0.00  0.00    +0.055 C 
BRANCH  17  20
ATOM     20  C   UNL     1      -1.894   5.582  -3.130  0.00  0.00    +0.353 C 
ATOM     21  O   UNL     1      -2.771   4.715  -2.918  0.00  0.00    -0.246 OA
BRANCH  20  22
ATOM     22  O   UNL     1      -1.445   6.304  -2.028  0.00  0.00    -0.450 OA
BRANCH  22  24
ATOM     23  C   UNL     1      -0.215   6.754   0.017  0.00  0.00    +0.047 C 
ATOM     24  C   UNL     1      -0.615   5.737  -1.025  0.00  0.00    +0.169 C 
ATOM     25  C   UNL     1       0.563   4.999  -1.601  0.00  0.00    +0.047 C 
ENDBRANCH  22  24
ENDBRANCH  20  22
ENDBRANCH  17  20
ENDBRANCH  16  17
ENDBRANCH   1  16
TORSDOF 7
ENDMDL
MODEL 5
REMARK VINA RESULT:      -8.2      3.600      9.634
REMARK  Name = 
REMARK  7 active torsions:
REMARK  status: ('A' for Active; 'I' for Inactive)
REMARK    1  A    between atoms: C_2  and  O_4
REMARK    2  A    between atoms: O_4  and  C_5
REMARK    3  A    between atoms: C_5  and  C_7
REMARK    4  A    between atoms: C_7  and  O_10
REMARK    5  A    between atoms: O_10  and  C_11
REMARK    6  A    between atoms: C_14  and  C_15
REMARK    7  A    between atoms: C_15  and  C_17
REMARK                            x       y       z     vdW  Elec       q    Type
REMARK                         _______ _______ _______ _____ _____    ______ ____
ROOT
ATOM      1  C   UNL     1      -0.099   5.977  -6.011  0.00  0.00    +0.139 A 
ATOM      2  C   UNL     1       1.089   6.683  -5.863  0.00  0.00    +0.037 A 
ATOM      3  C   UNL     1       2.151   6.420  -6.722  0.00  0.00    +0.006 A 
ATOM      4  C   UNL     1       2.006   5.575  -7.818  0.00  0.00    +0.039 A 
ATOM      5  C   UNL     1       0.691   5.389  -8.226  0.00  0.00    +0.006 A 
ATOM      6  C   UNL     1      -0.335   5.496  -7.294  0.00  0.00    +0.037 A 
ENDROOT
BRANCH   4   7
ATOM      7  C   UNL     1       3.089   4.688  -8.259  0.00  0.00    +0.196 C 
ATOM      8  O   UNL     1       2.763   3.504  -8.574  0.00  0.00    -0.287 OA
BRANCH   7   9
ATOM      9  C   UNL     1       4.163   5.260  -9.084  0.00  0.00    +0.039 A 
ATOM     10  C   UNL     1       5.479   5.186  -8.693  0.00  0.00    +0.004 A 
ATOM     11  C   UNL     1       6.470   5.775  -9.455  0.00  0.00    +0.011 A 
ATOM     12  C   UNL     1       6.118   6.645 -10.467  0.00  0.00    +0.058 A 
ATOM     13 CL   UNL     1       7.176   7.914 -11.018  0.00  0.00    -0.082 Cl
ATOM     14  C   UNL     1       4.831   6.547 -10.979  0.00  0.00    +0.011 A 
ATOM     15  C   UNL     1       3.836   5.884 -10.281  0.00  0.00    +0.004 A 
ENDBRANCH   7   9
ENDBRANCH   4   7
BRANCH   1  16
ATOM     16  O   UNL     1      -0.808   5.483  -4.912  0.00  0.00    -0.472 OA
BRANCH  16  17
ATOM     17  C   UNL     1      -2.140   5.862  -4.641  0.00  0.00    +0.221 C 
ATOM     18  C   UNL     1      -3.025   5.366  -5.771  0.00  0.00    +0.055 C 
ATOM     19  C   UNL     1      -2.211   7.382  -4.571  0.00  0.00    +0.055 C 
BRANCH  17  20
ATOM     20  C   UNL     1      -2.537   5.304  -3.332  0.00  0.00    +0.353 C 
ATOM     21  O   UNL     1      -3.718   5.483  -2.962  0.00  0.00    -0.246 OA
BRANCH  20  22
ATOM     22  O   UNL     1      -1.629   4.892  -2.361  0.00  0.00    -0.450 OA
BRANCH  22  24
ATOM     23  C   UNL     1       0.508   5.290  -1.278  0.00  0.00    +0.047 C 
ATOM     24  C   UNL     1      -0.880   5.805  -1.572  0.00  0.00    +0.169 C 
ATOM     25  C   UNL     1      -1.617   6.234  -0.333  0.00  0.00    +0.047 C 
ENDBRANCH  22  24
ENDBRANCH  20  22
ENDBRANCH  17  20
ENDBRANCH  16  17
ENDBRANCH   1  16
TORSDOF 7
ENDMDL
MODEL 6
REMARK VINA RESULT:      -8.0      4.098      5.893
REMARK  Name = 
REMARK  7 active torsions:
REMARK  status: ('A' for Active; 'I' for Inactive)
REMARK    1  A    between atoms: C_2  and  O_4
REMARK    2  A    between atoms: O_4  and  C_5
REMARK    3  A    between atoms: C_5  and  C_7
REMARK    4  A    between atoms: C_7  and  O_10
REMARK    5  A    between atoms: O_10  and  C_11
REMARK    6  A    between atoms: C_14  and  C_15
REMARK    7  A    between atoms: C_15  and  C_17
REMARK                            x       y       z     vdW  Elec       q    Type
REMARK                         _______ _______ _______ _____ _____    ______ ____
ROOT
ATOM      1  C   UNL     1       0.302   6.106  -6.489  0.00  0.00    +0.139 A 
ATOM      2  C   UNL     1      -0.881   5.492  -6.881  0.00  0.00    +0.037 A 
ATOM      3  C   UNL     1      -1.992   5.552  -6.046  0.00  0.00    +0.006 A 
ATOM      4  C   UNL     1      -1.993   6.337  -4.897  0.00  0.00    +0.039 A 
ATOM      5  C   UNL     1      -1.035   7.344  -4.890  0.00  0.00    +0.006 A 
ATOM      6  C   UNL     1       0.143   7.169  -5.608  0.00  0.00    +0.037 A 
ENDROOT
BRANCH   4   7
ATOM      7  C   UNL     1      -2.682   5.913  -3.672  0.00  0.00    +0.196 C 
ATOM      8  O   UNL     1      -3.343   4.833  -3.735  0.00  0.00    -0.287 OA
BRANCH   7   9
ATOM      9  C   UNL     1      -2.012   6.138  -2.384  0.00  0.00    +0.039 A 
ATOM     10  C   UNL     1      -2.499   7.047  -1.475  0.00  0.00    +0.004 A 
ATOM     11  C   UNL     1      -1.826   7.283  -0.292  0.00  0.00    +0.011 A 
ATOM     12  C   UNL     1      -0.544   6.798  -0.134  0.00  0.00    +0.058 A 
ATOM     13 CL   UNL     1       0.614   7.546   0.930  0.00  0.00    -0.082 Cl
ATOM     14  C   UNL     1      -0.156   5.735  -0.938  0.00  0.00    +0.011 A 
ATOM     15  C   UNL     1      -0.865   5.414  -2.085  0.00  0.00    +0.004 A 
ENDBRANCH   7   9
ENDBRANCH   4   7
BRANCH   1  16
ATOM     16  O   UNL     1       1.547   5.494  -6.666  0.00  0.00    -0.472 OA
BRANCH  16  17
ATOM     17  C   UNL     1       2.411   5.836  -7.727  0.00  0.00    +0.221 C 
ATOM     18  C   UNL     1       3.845   5.622  -7.274  0.00  0.00    +0.055 C 
ATOM     19  C   UNL     1       2.203   7.304  -8.075  0.00  0.00    +0.055 C 
BRANCH  17  20
ATOM     20  C   UNL     1       2.068   5.012  -8.905  0.00  0.00    +0.353 C 
ATOM     21  O   UNL     1       2.416   3.810  -8.891  0.00  0.00    -0.246 OA
BRANCH  20  22
ATOM     22  O   UNL     1       1.690   5.543 -10.134  0.00  0.00    -0.450 OA
BRANCH  22  24
ATOM     23  C   UNL     1       0.254   4.601 -11.852  0.00  0.00    +0.047 C 
ATOM     24  C   UNL     1       0.359   5.474 -10.624  0.00  0.00    +0.169 C 
ATOM     25  C   UNL     1      -0.252   6.834 -10.823  0.00  0.00    +0.047 C 
ENDBRANCH  22  24
ENDBRANCH  20  22
ENDBRANCH  17  20
ENDBRANCH  16  17
ENDBRANCH   1  16
TORSDOF 7
ENDMDL
MODEL 7
REMARK VINA RESULT:      -7.9      3.690      8.979
REMARK  Name = 
REMARK  7 active torsions:
REMARK  status: ('A' for Active; 'I' for Inactive)
REMARK    1  A    between atoms: C_2  and  O_4
REMARK    2  A    between atoms: O_4  and  C_5
REMARK    3  A    between atoms: C_5  and  C_7
REMARK    4  A    between atoms: C_7  and  O_10
REMARK    5  A    between atoms: O_10  and  C_11
REMARK    6  A    between atoms: C_14  and  C_15
REMARK    7  A    between atoms: C_15  and  C_17
REMARK                            x       y       z     vdW  Elec       q    Type
REMARK                         _______ _______ _______ _____ _____    ______ ____
ROOT
ATOM      1  C   UNL     1       0.944   6.760  -6.959  0.00  0.00    +0.139 A 
ATOM      2  C   UNL     1       2.033   7.550  -7.307  0.00  0.00    +0.037 A 
ATOM      3  C   UNL     1       3.020   7.027  -8.135  0.00  0.00    +0.006 A 
ATOM      4  C   UNL     1       2.873   5.784  -8.743  0.00  0.00    +0.039 A 
ATOM      5  C   UNL     1       1.559   5.338  -8.824  0.00  0.00    +0.006 A 
ATOM      6  C   UNL     1       0.637   5.756  -7.871  0.00  0.00    +0.037 A 
ENDROOT
BRANCH   4   7
ATOM      7  C   UNL     1       4.013   4.880  -8.941  0.00  0.00    +0.196 C 
ATOM      8  O   UNL     1       3.744   3.652  -9.102  0.00  0.00    -0.287 OA
BRANCH   7   9
ATOM      9  C   UNL     1       5.151   5.361  -9.738  0.00  0.00    +0.039 A 
ATOM     10  C   UNL     1       5.042   5.549 -11.095  0.00  0.00    +0.004 A 
ATOM     11  C   UNL     1       6.137   5.951 -11.835  0.00  0.00    +0.011 A 
ATOM     12  C   UNL     1       7.391   5.922 -11.260  0.00  0.00    +0.058 A 
ATOM     13 CL   UNL     1       8.846   5.739 -12.199  0.00  0.00    -0.082 Cl
ATOM     14  C   UNL     1       7.462   5.940  -9.874  0.00  0.00    +0.011 A 
ATOM     15  C   UNL     1       6.355   5.630  -9.101  0.00  0.00    +0.004 A 
ENDBRANCH   7   9
ENDBRANCH   4   7
BRANCH   1  16
ATOM     16  O   UNL     1       0.435   6.734  -5.658  0.00  0.00    -0.472 OA
BRANCH  16  17
ATOM     17  C   UNL     1       1.048   5.998  -4.622  0.00  0.00    +0.221 C 
ATOM     18  C   UNL     1       2.207   6.809  -4.070  0.00  0.00    +0.055 C 
ATOM     19  C   UNL     1       1.574   4.689  -5.197  0.00  0.00    +0.055 C 
BRANCH  17  20
ATOM     20  C   UNL     1       0.036   5.694  -3.589  0.00  0.00    +0.353 C 
ATOM     21  O   UNL     1       0.406   5.032  -2.595  0.00  0.00    -0.246 OA
BRANCH  20  22
ATOM     22  O   UNL     1      -1.335   5.804  -3.797  0.00  0.00    -0.450 OA
BRANCH  22  24
ATOM     23  C   UNL     1      -3.524   6.296  -2.868  0.00  0.00    +0.047 C 
ATOM     24  C   UNL     1      -2.132   6.796  -3.166  0.00  0.00    +0.169 C 
ATOM     25  C   UNL     1      -2.130   8.099  -3.919  0.00  0.00    +0.047 C 
ENDBRANCH  22  24
ENDBRANCH  20  22
ENDBRANCH  17  20
ENDBRANCH  16  17
ENDBRANCH   1  16
TORSDOF 7
ENDMDL
MODEL 8
REMARK VINA RESULT:      -7.8      4.995      9.376
REMARK  Name = 
REMARK  7 active torsions:
REMARK  status: ('A' for Active; 'I' for Inactive)
REMARK    1  A    between atoms: C_2  and  O_4
REMARK    2  A    between atoms: O_4  and  C_5
REMARK    3  A    between atoms: C_5  and  C_7
REMARK    4  A    between atoms: C_7  and  O_10
REMARK    5  A    between atoms: O_10  and  C_11
REMARK    6  A    between atoms: C_14  and  C_15
REMARK    7  A    between atoms: C_15  and  C_17
REMARK                            x       y       z     vdW  Elec       q    Type
REMARK                         _______ _______ _______ _____ _____    ______ ____
ROOT
ATOM      1  C   UNL     1      -0.002   5.536  -5.627  0.00  0.00    +0.139 A 
ATOM      2  C   UNL     1       0.579   6.704  -6.105  0.00  0.00    +0.037 A 
ATOM      3  C   UNL     1       1.924   6.704  -6.455  0.00  0.00    +0.006 A 
ATOM      4  C   UNL     1       2.668   5.529  -6.478  0.00  0.00    +0.039 A 
ATOM      5  C   UNL     1       1.905   4.370  -6.566  0.00  0.00    +0.006 A 
ATOM      6  C   UNL     1       0.614   4.363  -6.049  0.00  0.00    +0.037 A 
ENDROOT
BRANCH   4   7
ATOM      7  C   UNL     1       4.081   5.499  -6.080  0.00  0.00    +0.196 C 
ATOM      8  O   UNL     1       4.926   5.858  -6.955  0.00  0.00    -0.287 OA
BRANCH   7   9
ATOM      9  C   UNL     1       4.425   5.894  -4.707  0.00  0.00    +0.039 A 
ATOM     10  C   UNL     1       4.080   5.111  -3.632  0.00  0.00    +0.004 A 
ATOM     11  C   UNL     1       4.365   5.524  -2.345  0.00  0.00    +0.011 A 
ATOM     12  C   UNL     1       4.767   6.825  -2.126  0.00  0.00    +0.058 A 
ATOM     13 CL   UNL     1       4.507   7.641  -0.608  0.00  0.00    -0.082 Cl
ATOM     14  C   UNL     1       5.305   7.521  -3.200  0.00  0.00    +0.011 A 
ATOM     15  C   UNL     1       5.113   7.082  -4.499  0.00  0.00    +0.004 A 
ENDBRANCH   7   9
ENDBRANCH   4   7
BRANCH   1  16
ATOM     16  O   UNL     1      -0.885   5.538  -4.543  0.00  0.00    -0.472 OA
BRANCH  16  17
ATOM     17  C   UNL     1      -2.221   5.976  -4.658  0.00  0.00    +0.221 C 
ATOM     18  C   UNL     1      -2.813   5.402  -5.933  0.00  0.00    +0.055 C 
ATOM     19  C   UNL     1      -2.232   7.497  -4.734  0.00  0.00    +0.055 C 
BRANCH  17  20
ATOM     20  C   UNL     1      -2.966   5.553  -3.455  0.00  0.00    +0.353 C 
ATOM     21  O   UNL     1      -4.096   6.056  -3.268  0.00  0.00    -0.246 OA
BRANCH  20  22
ATOM     22  O   UNL     1      -2.381   4.904  -2.372  0.00  0.00    -0.450 OA
BRANCH  22  24
ATOM     23  C   UNL     1      -2.290   7.014  -1.172  0.00  0.00    +0.047 C 
ATOM     24  C   UNL     1      -1.771   5.602  -1.295  0.00  0.00    +0.169 C 
ATOM     25  C   UNL     1      -0.268   5.536  -1.345  0.00  0.00    +0.047 C 
ENDBRANCH  22  24
ENDBRANCH  20  22
ENDBRANCH  17  20
ENDBRANCH  16  17
ENDBRANCH   1  16
TORSDOF 7
ENDMDL
MODEL 9
REMARK VINA RESULT:      -7.8      5.513      7.652
REMARK  Name = 
REMARK  7 active torsions:
REMARK  status: ('A' for Active; 'I' for Inactive)
REMARK    1  A    between atoms: C_2  and  O_4
REMARK    2  A    between atoms: O_4  and  C_5
REMARK    3  A    between atoms: C_5  and  C_7
REMARK    4  A    between atoms: C_7  and  O_10
REMARK    5  A    between atoms: O_10  and  C_11
REMARK    6  A    between atoms: C_14  and  C_15
REMARK    7  A    between atoms: C_15  and  C_17
REMARK                            x       y       z     vdW  Elec       q    Type
REMARK                         _______ _______ _______ _____ _____    ______ ____
ROOT
ATOM      1  C   UNL     1      -0.821   6.458  -5.908  0.00  0.00    +0.139 A 
ATOM      2  C   UNL     1      -1.960   5.666  -5.827  0.00  0.00    +0.037 A 
ATOM      3  C   UNL     1      -2.674   5.617  -4.635  0.00  0.00    +0.006 A 
ATOM      4  C   UNL     1      -2.363   6.453  -3.567  0.00  0.00    +0.039 A 
ATOM      5  C   UNL     1      -1.632   7.582  -3.919  0.00  0.00    +0.006 A 
ATOM      6  C   UNL     1      -0.795   7.534  -5.029  0.00  0.00    +0.037 A 
ENDROOT
BRANCH   4   7
ATOM      7  C   UNL     1      -2.474   6.004  -2.174  0.00  0.00    +0.196 C 
ATOM      8  O   UNL     1      -2.749   4.780  -1.991  0.00  0.00    -0.287 OA
BRANCH   7   9
ATOM      9  C   UNL     1      -1.547   6.571  -1.185  0.00  0.00    +0.039 A 
ATOM     10  C   UNL     1      -1.889   7.672  -0.437  0.00  0.00    +0.004 A 
ATOM     11  C   UNL     1      -0.985   8.223   0.451  0.00  0.00    +0.011 A 
ATOM     12  C   UNL     1       0.336   7.826   0.405  0.00  0.00    +0.058 A 
ATOM     13 CL   UNL     1       1.640   8.852   0.937  0.00  0.00    -0.082 Cl
ATOM     14  C   UNL     1       0.618   6.600  -0.182  0.00  0.00    +0.011 A 
ATOM     15  C   UNL     1      -0.305   5.977  -1.006  0.00  0.00    +0.004 A 
ENDBRANCH   7   9
ENDBRANCH   4   7
BRANCH   1  16
ATOM     16  O   UNL     1       0.344   6.016  -6.543  0.00  0.00    -0.472 OA
BRANCH  16  17
ATOM     17  C   UNL     1       1.445   5.503  -5.826  0.00  0.00    +0.221 C 
ATOM     18  C   UNL     1       1.921   4.233  -6.508  0.00  0.00    +0.055 C 
ATOM     19  C   UNL     1       0.997   5.179  -4.406  0.00  0.00    +0.055 C 
BRANCH  17  20
ATOM     20  C   UNL     1       2.500   6.537  -5.770  0.00  0.00    +0.353 C 
ATOM     21  O   UNL     1       2.914   6.999  -6.856  0.00  0.00    -0.246 OA
BRANCH  20  22
ATOM     22  O   UNL     1       3.278   6.786  -4.644  0.00  0.00    -0.450 OA
BRANCH  22  24
ATOM     23  C   UNL     1       4.816   4.991  -4.085  0.00  0.00    +0.047 C 
ATOM     24  C   UNL     1       4.646   6.415  -4.556  0.00  0.00    +0.169 C 
ATOM     25  C   UNL     1       5.457   7.395  -3.753  0.00  0.00    +0.047 C 
ENDBRANCH  22  24
ENDBRANCH  20  22
ENDBRANCH  17  20
ENDBRANCH  16  17
ENDBRANCH   1  16
TORSDOF 7
ENDMDL
