MODEL 1
REMARK VINA RESULT:      -9.0      0.000      0.000
REMARK  Name = 
REMARK  0 active torsions:
REMARK  status: ('A' for Active; 'I' for Inactive)
REMARK                            x       y       z     vdW  Elec       q    Type
REMARK                         _______ _______ _______ _____ _____    ______ ____
ROOT
ATOM      1  C   UNL     1       6.921   5.376 -13.506  0.00  0.00    +0.033 C 
ATOM      2  C   UNL     1       6.874   6.335 -12.556  0.00  0.00    +0.127 C 
ATOM      3  C   UNL     1       5.658   6.415 -11.721  0.00  0.00    +0.026 C 
ATOM      4  C   UNL     1       6.141   5.422 -10.514  0.00  0.00    +0.002 C 
ATOM      5  C   UNL     1       5.065   6.150  -9.414  0.00  0.00    +0.000 C 
ATOM      6  C   UNL     1       3.817   5.117  -9.943  0.00  0.00    +0.003 C 
ATOM      7  C   UNL     1       3.360   6.154 -11.130  0.00  0.00    +0.000 C 
ATOM      8  C   UNL     1       2.726   5.707  -8.881  0.00  0.00    +0.041 C 
ATOM      9  C   UNL     1       3.035   4.705  -7.609  0.00  0.00    +0.015 C 
ATOM     10  C   UNL     1       2.142   5.639  -6.577  0.00  0.00    +0.110 C 
ATOM     11  C   UNL     1       0.788   5.637  -7.140  0.00  0.00    +0.317 C 
ATOM     12  O   UNL     1       0.450   5.306  -8.428  0.00  0.00    -0.448 OA
ATOM     13  O   UNL     1      -0.081   6.199  -6.439  0.00  0.00    -0.250 OA
ATOM     14  C   UNL     1       4.419   5.505  -7.184  0.00  0.00    +0.001 C 
ATOM     15  C   UNL     1       2.967   7.054  -8.498  0.00  0.00    +0.004 C 
ATOM     16  C   UNL     1       1.420   5.304  -9.454  0.00  0.00    +0.208 C 
ATOM     17  C   UNL     1       5.450   5.142  -8.219  0.00  0.00    +0.000 C 
ATOM     18  C   UNL     1       7.370   6.454 -10.176  0.00  0.00    +0.003 C 
ATOM     19  C   UNL     1       5.573   7.794 -11.169  0.00  0.00    +0.002 C 
ATOM     20  C   UNL     1       4.416   5.788 -12.177  0.00  0.00    +0.002 C 
ATOM     21  C   UNL     1       8.017   6.265 -11.547  0.00  0.00    +0.030 C 
ATOM     22  O   UNL     1       7.022   7.594 -13.163  0.00  0.00    -0.226 OA
ENDROOT
TORSDOF 0
ENDMDL
MODEL 2
REMARK VINA RESULT:      -8.5      2.980      8.047
REMARK  Name = 
REMARK  0 active torsions:
REMARK  status: ('A' for Active; 'I' for Inactive)
REMARK                            x       y       z     vdW  Elec       q    Type
REMARK                         _______ _______ _______ _____ _____    ______ ____
ROOT
ATOM      1  C   UNL     1      -1.721   5.375  -2.377  0.00  0.00    +0.033 C 
ATOM      2  C   UNL     1      -1.826   6.294  -3.362  0.00  0.00    +0.127 C 
ATOM      3  C   UNL     1      -0.672   6.462  -4.270  0.00  0.00    +0.026 C 
ATOM      4  C   UNL     1      -1.116   5.375  -5.410  0.00  0.00    +0.002 C 
ATOM      5  C   UNL     1      -0.183   6.162  -6.597  0.00  0.00    +0.000 C 
ATOM      6  C   UNL     1       1.192   5.284  -6.106  0.00  0.00    +0.003 C 
ATOM      7  C   UNL     1       1.604   6.411  -4.986  0.00  0.00    +0.000 C 
ATOM      8  C   UNL     1       2.156   5.937  -7.251  0.00  0.00    +0.041 C 
ATOM      9  C   UNL     1       1.883   4.856  -8.466  0.00  0.00    +0.015 C 
ATOM     10  C   UNL     1       2.616   5.833  -9.581  0.00  0.00    +0.110 C 
ATOM     11  C   UNL     1       3.992   5.992  -9.100  0.00  0.00    +0.317 C 
ATOM     12  O   UNL     1       4.433   5.751  -7.823  0.00  0.00    -0.448 OA
ATOM     13  O   UNL     1       4.758   6.609  -9.871  0.00  0.00    -0.250 OA
ATOM     14  C   UNL     1       0.402   5.493  -8.836  0.00  0.00    +0.001 C 
ATOM     15  C   UNL     1       1.756   7.236  -7.667  0.00  0.00    +0.004 C 
ATOM     16  C   UNL     1       3.526   5.693  -6.742  0.00  0.00    +0.208 C 
ATOM     17  C   UNL     1      -0.527   5.071  -7.731  0.00  0.00    +0.000 C 
ATOM     18  C   UNL     1      -2.462   6.262  -5.712  0.00  0.00    +0.003 C 
ATOM     19  C   UNL     1      -0.762   7.818  -4.875  0.00  0.00    +0.002 C 
ATOM     20  C   UNL     1       0.650   5.984  -3.865  0.00  0.00    +0.002 C 
ATOM     21  C   UNL     1      -3.010   6.066  -4.299  0.00  0.00    +0.030 C 
ATOM     22  O   UNL     1      -2.070   7.555  -2.794  0.00  0.00    -0.226 OA
ENDROOT
TORSDOF 0
ENDMDL
MODEL 3
REMARK VINA RESULT:      -8.5      2.519      4.682
REMARK  Name = 
REMARK  0 active torsions:
REMARK  status: ('A' for Active; 'I' for Inactive)
REMARK                            x       y       z     vdW  Elec       q    Type
REMARK                         _______ _______ _______ _____ _____    ______ ____
ROOT
ATOM      1  C   UNL     1       4.416   7.202 -10.501  0.00  0.00    +0.033 C 
ATOM      2  C   UNL     1       3.824   6.015 -10.242  0.00  0.00    +0.127 C 
ATOM      3  C   UNL     1       3.274   5.804  -8.888  0.00  0.00    +0.026 C 
ATOM      4  C   UNL     1       1.758   6.354  -9.167  0.00  0.00    +0.002 C 
ATOM      5  C   UNL     1       1.133   5.436  -7.877  0.00  0.00    +0.000 C 
ATOM      6  C   UNL     1       1.528   6.685  -6.789  0.00  0.00    +0.003 C 
ATOM      7  C   UNL     1       3.033   6.085  -6.530  0.00  0.00    +0.000 C 
ATOM      8  C   UNL     1       0.898   5.910  -5.497  0.00  0.00    +0.041 C 
ATOM      9  C   UNL     1      -0.652   6.466  -5.591  0.00  0.00    +0.015 C 
ATOM     10  C   UNL     1      -1.183   5.354  -4.489  0.00  0.00    +0.110 C 
ATOM     11  C   UNL     1      -0.424   5.641  -3.267  0.00  0.00    +0.317 C 
ATOM     12  O   UNL     1       0.740   6.362  -3.190  0.00  0.00    -0.448 OA
ATOM     13  O   UNL     1      -0.763   4.979  -2.262  0.00  0.00    -0.250 OA
ATOM     14  C   UNL     1      -1.043   5.457  -6.842  0.00  0.00    +0.001 C 
ATOM     15  C   UNL     1       0.907   4.494  -5.615  0.00  0.00    +0.004 C 
ATOM     16  C   UNL     1       1.536   6.578  -4.338  0.00  0.00    +0.208 C 
ATOM     17  C   UNL     1      -0.360   6.012  -8.063  0.00  0.00    +0.000 C 
ATOM     18  C   UNL     1       1.544   5.163 -10.274  0.00  0.00    +0.003 C 
ATOM     19  C   UNL     1       3.190   4.337  -8.654  0.00  0.00    +0.002 C 
ATOM     20  C   UNL     1       3.724   6.644  -7.778  0.00  0.00    +0.002 C 
ATOM     21  C   UNL     1       2.662   5.686 -11.176  0.00  0.00    +0.030 C 
ATOM     22  O   UNL     1       4.750   4.981 -10.461  0.00  0.00    -0.226 OA
ENDROOT
TORSDOF 0
ENDMDL
MODEL 4
REMARK VINA RESULT:      -8.5      3.307      5.456
REMARK  Name = 
REMARK  0 active torsions:
REMARK  status: ('A' for Active; 'I' for Inactive)
REMARK                            x       y       z     vdW  Elec       q    Type
REMARK                         _______ _______ _______ _____ _____    ______ ____
ROOT
ATOM      1  C   UNL     1       3.551   4.416  -9.000  0.00  0.00    +0.033 C 
ATOM      2  C   UNL     1       3.491   5.577  -8.312  0.00  0.00    +0.127 C 
ATOM      3  C   UNL     1       2.261   5.856  -7.544  0.00  0.00    +0.026 C 
ATOM      4  C   UNL     1       2.721   5.186  -6.123  0.00  0.00    +0.002 C 
ATOM      5  C   UNL     1       1.628   6.158  -5.252  0.00  0.00    +0.000 C 
ATOM      6  C   UNL     1       0.386   5.026  -5.536  0.00  0.00    +0.003 C 
ATOM      7  C   UNL     1      -0.048   5.744  -6.947  0.00  0.00    +0.000 C 
ATOM      8  C   UNL     1      -0.721   5.855  -4.669  0.00  0.00    +0.041 C 
ATOM      9  C   UNL     1      -0.438   5.192  -3.186  0.00  0.00    +0.015 C 
ATOM     10  C   UNL     1      -1.345   6.348  -2.428  0.00  0.00    +0.110 C 
ATOM     11  C   UNL     1      -2.690   6.208  -2.997  0.00  0.00    +0.317 C 
ATOM     12  O   UNL     1      -3.007   5.574  -4.171  0.00  0.00    -0.448 OA
ATOM     13  O   UNL     1      -3.569   6.922  -2.468  0.00  0.00    -0.250 OA
ATOM     14  C   UNL     1       0.941   6.072  -2.944  0.00  0.00    +0.001 C 
ATOM     15  C   UNL     1      -0.483   7.255  -4.620  0.00  0.00    +0.004 C 
ATOM     16  C   UNL     1      -2.018   5.324  -5.150  0.00  0.00    +0.208 C 
ATOM     17  C   UNL     1       1.989   5.471  -3.841  0.00  0.00    +0.000 C 
ATOM     18  C   UNL     1       3.946   6.271  -6.024  0.00  0.00    +0.003 C 
ATOM     19  C   UNL     1       2.171   7.328  -7.344  0.00  0.00    +0.002 C 
ATOM     20  C   UNL     1       1.026   5.136  -7.856  0.00  0.00    +0.002 C 
ATOM     21  C   UNL     1       4.617   5.755  -7.297  0.00  0.00    +0.030 C 
ATOM     22  O   UNL     1       3.654   6.651  -9.204  0.00  0.00    -0.226 OA
ENDROOT
TORSDOF 0
ENDMDL
MODEL 5
REMARK VINA RESULT:      -8.4      3.205      5.527
REMARK  Name = 
REMARK  0 active torsions:
REMARK  status: ('A' for Active; 'I' for Inactive)
REMARK                            x       y       z     vdW  Elec       q    Type
REMARK                         _______ _______ _______ _____ _____    ______ ____
ROOT
ATOM      1  C   UNL     1       0.736   5.019  -9.729  0.00  0.00    +0.033 C 
ATOM      2  C   UNL     1       1.484   6.040  -9.255  0.00  0.00    +0.127 C 
ATOM      3  C   UNL     1       1.552   6.218  -7.791  0.00  0.00    +0.026 C 
ATOM      4  C   UNL     1       2.869   5.288  -7.507  0.00  0.00    +0.002 C 
ATOM      5  C   UNL     1       3.212   6.125  -6.065  0.00  0.00    +0.000 C 
ATOM      6  C   UNL     1       2.146   5.105  -5.213  0.00  0.00    +0.003 C 
ATOM      7  C   UNL     1       0.858   6.079  -5.511  0.00  0.00    +0.000 C 
ATOM      8  C   UNL     1       2.454   5.803  -3.769  0.00  0.00    +0.041 C 
ATOM      9  C   UNL     1       3.735   4.875  -3.302  0.00  0.00    +0.015 C 
ATOM     10  C   UNL     1       4.109   5.906  -2.065  0.00  0.00    +0.110 C 
ATOM     11  C   UNL     1       2.920   5.916  -1.207  0.00  0.00    +0.317 C 
ATOM     12  O   UNL     1       1.659   5.515  -1.570  0.00  0.00    -0.448 OA
ATOM     13  O   UNL     1       3.040   6.553  -0.138  0.00  0.00    -0.250 OA
ATOM     14  C   UNL     1       4.793   5.650  -4.309  0.00  0.00    +0.001 C 
ATOM     15  C   UNL     1       2.857   7.162  -3.861  0.00  0.00    +0.004 C 
ATOM     16  C   UNL     1       1.296   5.411  -2.932  0.00  0.00    +0.208 C 
ATOM     17  C   UNL     1       4.468   5.184  -5.703  0.00  0.00    +0.000 C 
ATOM     18  C   UNL     1       3.764   6.295  -8.442  0.00  0.00    +0.003 C 
ATOM     19  C   UNL     1       1.927   7.632  -7.520  0.00  0.00    +0.002 C 
ATOM     20  C   UNL     1       0.536   5.608  -6.933  0.00  0.00    +0.002 C 
ATOM     21  C   UNL     1       2.945   5.994  -9.696  0.00  0.00    +0.030 C 
ATOM     22  O   UNL     1       1.000   7.250  -9.780  0.00  0.00    -0.226 OA
ENDROOT
TORSDOF 0
ENDMDL
MODEL 6
REMARK VINA RESULT:      -8.3      3.119      5.862
REMARK  Name = 
REMARK  0 active torsions:
REMARK  status: ('A' for Active; 'I' for Inactive)
REMARK                            x       y       z     vdW  Elec       q    Type
REMARK                         _______ _______ _______ _____ _____    ______ ____
ROOT
ATOM      1  C   UNL     1       5.070   4.456  -4.035  0.00  0.00    +0.033 C 
ATOM      2  C   UNL     1       4.245   5.510  -4.219  0.00  0.00    +0.127 C 
ATOM      3  C   UNL     1       3.842   5.833  -5.602  0.00  0.00    +0.026 C 
ATOM      4  C   UNL     1       2.484   4.921  -5.666  0.00  0.00    +0.002 C 
ATOM      5  C   UNL     1       1.827   5.895  -6.899  0.00  0.00    +0.000 C 
ATOM      6  C   UNL     1       2.657   4.977  -8.071  0.00  0.00    +0.003 C 
ATOM      7  C   UNL     1       3.989   5.931  -7.983  0.00  0.00    +0.000 C 
ATOM      8  C   UNL     1       2.032   5.812  -9.328  0.00  0.00    +0.041 C 
ATOM      9  C   UNL     1       0.667   4.921  -9.578  0.00  0.00    +0.015 C 
ATOM     10  C   UNL     1       0.029   6.067 -10.585  0.00  0.00    +0.110 C 
ATOM     11  C   UNL     1       0.989   6.177 -11.689  0.00  0.00    +0.317 C 
ATOM     12  O   UNL     1       2.294   5.755 -11.668  0.00  0.00    -0.448 OA
ATOM     13  O   UNL     1       0.633   6.916 -12.632  0.00  0.00    -0.250 OA
ATOM     14  C   UNL     1      -0.121   5.579  -8.281  0.00  0.00    +0.001 C 
ATOM     15  C   UNL     1       1.677   7.151  -9.010  0.00  0.00    +0.004 C 
ATOM     16  C   UNL     1       2.960   5.519 -10.445  0.00  0.00    +0.208 C 
ATOM     17  C   UNL     1       0.511   4.980  -7.054  0.00  0.00    +0.000 C 
ATOM     18  C   UNL     1       1.841   5.819  -4.454  0.00  0.00    +0.003 C 
ATOM     19  C   UNL     1       3.432   7.263  -5.636  0.00  0.00    +0.002 C 
ATOM     20  C   UNL     1       4.626   5.324  -6.728  0.00  0.00    +0.002 C 
ATOM     21  C   UNL     1       2.924   5.404  -3.459  0.00  0.00    +0.030 C 
ATOM     22  O   UNL     1       4.851   6.667  -3.701  0.00  0.00    -0.226 OA
ENDROOT
TORSDOF 0
ENDMDL
MODEL 7
REMARK VINA RESULT:      -8.2      2.943      6.708
REMARK  Name = 
REMARK  0 active torsions:
REMARK  status: ('A' for Active; 'I' for Inactive)
REMARK                            x       y       z     vdW  Elec       q    Type
REMARK                         _______ _______ _______ _____ _____    ______ ____
ROOT
ATOM      1  C   UNL     1       3.994   4.684  -2.065  0.00  0.00    +0.033 C 
ATOM      2  C   UNL     1       3.526   5.818  -2.631  0.00  0.00    +0.127 C 
ATOM      3  C   UNL     1       3.643   5.953  -4.097  0.00  0.00    +0.026 C 
ATOM      4  C   UNL     1       2.196   5.304  -4.504  0.00  0.00    +0.002 C 
ATOM      5  C   UNL     1       2.181   6.140  -5.987  0.00  0.00    +0.000 C 
ATOM      6  C   UNL     1       3.091   4.891  -6.705  0.00  0.00    +0.003 C 
ATOM      7  C   UNL     1       4.517   5.589  -6.289  0.00  0.00    +0.000 C 
ATOM      8  C   UNL     1       3.081   5.584  -8.184  0.00  0.00    +0.041 C 
ATOM      9  C   UNL     1       1.688   4.923  -8.770  0.00  0.00    +0.015 C 
ATOM     10  C   UNL     1       1.662   5.963 -10.055  0.00  0.00    +0.110 C 
ATOM     11  C   UNL     1       2.907   5.696 -10.783  0.00  0.00    +0.317 C 
ATOM     12  O   UNL     1       4.013   5.057 -10.283  0.00  0.00    -0.448 OA
ATOM     13  O   UNL     1       3.030   6.304 -11.868  0.00  0.00    -0.250 OA
ATOM     14  C   UNL     1       0.719   5.936  -7.892  0.00  0.00    +0.001 C 
ATOM     15  C   UNL     1       2.963   7.000  -8.156  0.00  0.00    +0.004 C 
ATOM     16  C   UNL     1       4.209   4.931  -8.889  0.00  0.00    +0.208 C 
ATOM     17  C   UNL     1       0.799   5.465  -6.465  0.00  0.00    +0.000 C 
ATOM     18  C   UNL     1       1.443   6.508  -3.684  0.00  0.00    +0.003 C 
ATOM     19  C   UNL     1       3.601   7.403  -4.428  0.00  0.00    +0.002 C 
ATOM     20  C   UNL     1       4.591   5.115  -4.833  0.00  0.00    +0.002 C 
ATOM     21  C   UNL     1       2.051   6.091  -2.345  0.00  0.00    +0.030 C 
ATOM     22  O   UNL     1       4.197   6.922  -2.077  0.00  0.00    -0.226 OA
ENDROOT
TORSDOF 0
ENDMDL
MODEL 8
REMARK VINA RESULT:      -8.1      1.230      6.365
REMARK  Name = 
REMARK  0 active torsions:
REMARK  status: ('A' for Active; 'I' for Inactive)
REMARK                            x       y       z     vdW  Elec       q    Type
REMARK                         _______ _______ _______ _____ _____    ______ ____
ROOT
ATOM      1  C   UNL     1       0.958   4.505  -5.671  0.00  0.00    +0.033 C 
ATOM      2  C   UNL     1       0.935   5.617  -6.437  0.00  0.00    +0.127 C 
ATOM      3  C   UNL     1       2.127   5.910  -7.259  0.00  0.00    +0.026 C 
ATOM      4  C   UNL     1       1.670   5.120  -8.617  0.00  0.00    +0.002 C 
ATOM      5  C   UNL     1       2.683   6.089  -9.583  0.00  0.00    +0.000 C 
ATOM      6  C   UNL     1       3.993   5.049  -9.261  0.00  0.00    +0.003 C 
ATOM      7  C   UNL     1       4.422   5.883  -7.915  0.00  0.00    +0.000 C 
ATOM      8  C   UNL     1       5.029   5.876 -10.214  0.00  0.00    +0.041 C 
ATOM      9  C   UNL     1       4.746   5.098 -11.640  0.00  0.00    +0.015 C 
ATOM     10  C   UNL     1       5.566   6.248 -12.501  0.00  0.00    +0.110 C 
ATOM     11  C   UNL     1       6.931   6.221 -11.963  0.00  0.00    +0.317 C 
ATOM     12  O   UNL     1       7.313   5.687 -10.759  0.00  0.00    -0.448 OA
ATOM     13  O   UNL     1       7.754   6.944 -12.565  0.00  0.00    -0.250 OA
ATOM     14  C   UNL     1       3.313   5.884 -11.900  0.00  0.00    +0.001 C 
ATOM     15  C   UNL     1       4.711   7.254 -10.349  0.00  0.00    +0.004 C 
ATOM     16  C   UNL     1       6.366   5.451  -9.737  0.00  0.00    +0.208 C 
ATOM     17  C   UNL     1       2.325   5.288 -10.934  0.00  0.00    +0.000 C 
ATOM     18  C   UNL     1       0.382   6.127  -8.752  0.00  0.00    +0.003 C 
ATOM     19  C   UNL     1       2.128   7.368  -7.558  0.00  0.00    +0.002 C 
ATOM     20  C   UNL     1       3.408   5.282  -6.936  0.00  0.00    +0.002 C 
ATOM     21  C   UNL     1      -0.225   5.664  -7.429  0.00  0.00    +0.030 C 
ATOM     22  O   UNL     1       0.735   6.739  -5.615  0.00  0.00    -0.226 OA
ENDROOT
TORSDOF 0
ENDMDL
MODEL 9
REMARK VINA RESULT:      -8.0      2.629      5.876
REMARK  Name = 
REMARK  0 active torsions:
REMARK  status: ('A' for Active; 'I' for Inactive)
REMARK                            x       y       z     vdW  Elec       q    Type
REMARK                         _______ _______ _______ _____ _____    ______ ____
ROOT
ATOM      1  C   UNL     1       4.135   5.399  -6.198  0.00  0.00    +0.033 C 
ATOM      2  C   UNL     1       3.140   6.214  -6.613  0.00  0.00    +0.127 C 
ATOM      3  C   UNL     1       2.964   6.395  -8.068  0.00  0.00    +0.026 C 
ATOM      4  C   UNL     1       1.901   5.177  -8.325  0.00  0.00    +0.002 C 
ATOM      5  C   UNL     1       1.300   5.929  -9.729  0.00  0.00    +0.000 C 
ATOM      6  C   UNL     1       2.543   5.216 -10.650  0.00  0.00    +0.003 C 
ATOM      7  C   UNL     1       3.566   6.469 -10.377  0.00  0.00    +0.000 C 
ATOM      8  C   UNL     1       2.008   5.842 -12.061  0.00  0.00    +0.041 C 
ATOM      9  C   UNL     1       0.972   4.637 -12.502  0.00  0.00    +0.015 C 
ATOM     10  C   UNL     1       0.302   5.567 -13.694  0.00  0.00    +0.110 C 
ATOM     11  C   UNL     1       1.413   5.882 -14.598  0.00  0.00    +0.317 C 
ATOM     12  O   UNL     1       2.748   5.794 -14.297  0.00  0.00    -0.448 OA
ATOM     13  O   UNL     1       1.093   6.489 -15.643  0.00  0.00    -0.250 OA
ATOM     14  C   UNL     1      -0.196   5.113 -11.432  0.00  0.00    +0.001 C 
ATOM     15  C   UNL     1       1.291   7.060 -11.915  0.00  0.00    +0.004 C 
ATOM     16  C   UNL     1       3.188   5.759 -12.954  0.00  0.00    +0.208 C 
ATOM     17  C   UNL     1       0.296   4.716 -10.066  0.00  0.00    +0.000 C 
ATOM     18  C   UNL     1       0.832   5.918  -7.327  0.00  0.00    +0.003 C 
ATOM     19  C   UNL     1       2.244   7.680  -8.284  0.00  0.00    +0.002 C 
ATOM     20  C   UNL     1       4.058   6.067  -8.983  0.00  0.00    +0.002 C 
ATOM     21  C   UNL     1       1.756   5.805  -6.116  0.00  0.00    +0.030 C 
ATOM     22  O   UNL     1       3.338   7.496  -6.075  0.00  0.00    -0.226 OA
ENDROOT
TORSDOF 0
ENDMDL
