MODEL 1
REMARK VINA RESULT:      -6.5      0.000      0.000
REMARK  Name = 
REMARK  0 active torsions:
REMARK  status: ('A' for Active; 'I' for Inactive)
REMARK                            x       y       z     vdW  Elec       q    Type
REMARK                         _______ _______ _______ _____ _____    ______ ____
ROOT
ATOM      1  N   UNL     1       7.240   4.906 -13.530  0.00  0.00    -0.134 NA
ATOM      2  C   UNL     1       6.859   5.650 -12.350  0.00  0.00    +0.077 C 
ATOM      3  C   UNL     1       5.487   5.221 -11.875  0.00  0.00    +0.018 C 
ATOM      4  C   UNL     1       5.228   5.915 -10.553  0.00  0.00    +0.001 C 
ATOM      5  C   UNL     1       6.309   5.690  -9.541  0.00  0.00    +0.000 C 
ATOM      6  C   UNL     1       7.616   6.255 -10.070  0.00  0.00    +0.001 C 
ATOM      7  C   UNL     1       7.499   7.728 -10.409  0.00  0.00    +0.000 C 
ATOM      8  C   UNL     1       6.410   7.892 -11.445  0.00  0.00    +0.001 C 
ATOM      9  C   UNL     1       5.119   7.389 -10.825  0.00  0.00    +0.000 C 
ATOM     10  C   UNL     1       7.927   5.420 -11.303  0.00  0.00    +0.018 C 
ATOM     11  C   UNL     1       6.778   7.125 -12.694  0.00  0.00    +0.018 C 
ENDROOT
TORSDOF 0
ENDMDL
MODEL 2
REMARK VINA RESULT:      -6.4      0.084      2.237
REMARK  Name = 
REMARK  0 active torsions:
REMARK  status: ('A' for Active; 'I' for Inactive)
REMARK                            x       y       z     vdW  Elec       q    Type
REMARK                         _______ _______ _______ _____ _____    ______ ____
ROOT
ATOM      1  N   UNL     1       7.082   4.903 -13.577  0.00  0.00    -0.134 NA
ATOM      2  C   UNL     1       6.839   5.668 -12.374  0.00  0.00    +0.077 C 
ATOM      3  C   UNL     1       6.860   7.151 -12.678  0.00  0.00    +0.018 C 
ATOM      4  C   UNL     1       6.436   7.878 -11.418  0.00  0.00    +0.001 C 
ATOM      5  C   UNL     1       5.129   7.398 -10.866  0.00  0.00    +0.000 C 
ATOM      6  C   UNL     1       5.251   5.930 -10.492  0.00  0.00    +0.001 C 
ATOM      7  C   UNL     1       6.370   5.692  -9.498  0.00  0.00    +0.000 C 
ATOM      8  C   UNL     1       7.664   6.176 -10.114  0.00  0.00    +0.001 C 
ATOM      9  C   UNL     1       7.506   7.661 -10.385  0.00  0.00    +0.000 C 
ATOM     10  C   UNL     1       5.510   5.216 -11.809  0.00  0.00    +0.018 C 
ATOM     11  C   UNL     1       7.948   5.395 -11.377  0.00  0.00    +0.018 C 
ENDROOT
TORSDOF 0
ENDMDL
MODEL 3
REMARK VINA RESULT:      -6.4      0.077      2.224
REMARK  Name = 
REMARK  0 active torsions:
REMARK  status: ('A' for Active; 'I' for Inactive)
REMARK                            x       y       z     vdW  Elec       q    Type
REMARK                         _______ _______ _______ _____ _____    ______ ____
ROOT
ATOM      1  N   UNL     1       7.212   4.956 -13.602  0.00  0.00    -0.134 NA
ATOM      2  C   UNL     1       6.895   5.634 -12.365  0.00  0.00    +0.077 C 
ATOM      3  C   UNL     1       7.923   5.305 -11.303  0.00  0.00    +0.018 C 
ATOM      4  C   UNL     1       7.624   6.173 -10.098  0.00  0.00    +0.001 C 
ATOM      5  C   UNL     1       7.545   7.633 -10.422  0.00  0.00    +0.000 C 
ATOM      6  C   UNL     1       6.413   7.868 -11.408  0.00  0.00    +0.001 C 
ATOM      7  C   UNL     1       5.086   7.367 -10.874  0.00  0.00    +0.000 C 
ATOM      8  C   UNL     1       5.219   5.888 -10.584  0.00  0.00    +0.001 C 
ATOM      9  C   UNL     1       6.304   5.731  -9.533  0.00  0.00    +0.000 C 
ATOM     10  C   UNL     1       6.832   7.117 -12.663  0.00  0.00    +0.018 C 
ATOM     11  C   UNL     1       5.551   5.147 -11.859  0.00  0.00    +0.018 C 
ENDROOT
TORSDOF 0
ENDMDL
MODEL 4
REMARK VINA RESULT:      -6.1      9.972     11.287
REMARK  Name = 
REMARK  0 active torsions:
REMARK  status: ('A' for Active; 'I' for Inactive)
REMARK                            x       y       z     vdW  Elec       q    Type
REMARK                         _______ _______ _______ _____ _____    ______ ____
ROOT
ATOM      1  N   UNL     1      -2.369   5.036  -2.005  0.00  0.00    -0.134 NA
ATOM      2  C   UNL     1      -2.007   5.680  -3.248  0.00  0.00    +0.077 C 
ATOM      3  C   UNL     1      -0.560   5.396  -3.589  0.00  0.00    +0.018 C 
ATOM      4  C   UNL     1      -0.301   5.956  -4.972  0.00  0.00    +0.001 C 
ATOM      5  C   UNL     1      -1.268   5.463  -6.005  0.00  0.00    +0.000 C 
ATOM      6  C   UNL     1      -2.673   5.897  -5.624  0.00  0.00    +0.001 C 
ATOM      7  C   UNL     1      -2.777   7.402  -5.471  0.00  0.00    +0.000 C 
ATOM      8  C   UNL     1      -1.796   7.839  -4.407  0.00  0.00    +0.001 C 
ATOM      9  C   UNL     1      -0.408   7.453  -4.885  0.00  0.00    +0.000 C 
ATOM     10  C   UNL     1      -2.958   5.179  -4.314  0.00  0.00    +0.018 C 
ATOM     11  C   UNL     1      -2.147   7.183  -3.091  0.00  0.00    +0.018 C 
ENDROOT
TORSDOF 0
ENDMDL
MODEL 5
REMARK VINA RESULT:      -6.0      9.989     11.275
REMARK  Name = 
REMARK  0 active torsions:
REMARK  status: ('A' for Active; 'I' for Inactive)
REMARK                            x       y       z     vdW  Elec       q    Type
REMARK                         _______ _______ _______ _____ _____    ______ ____
ROOT
ATOM      1  N   UNL     1      -2.311   4.997  -1.983  0.00  0.00    -0.134 NA
ATOM      2  C   UNL     1      -2.055   5.674  -3.235  0.00  0.00    +0.077 C 
ATOM      3  C   UNL     1      -2.319   7.159  -3.095  0.00  0.00    +0.018 C 
ATOM      4  C   UNL     1      -1.874   7.821  -4.384  0.00  0.00    +0.001 C 
ATOM      5  C   UNL     1      -0.462   7.496  -4.762  0.00  0.00    +0.000 C 
ATOM      6  C   UNL     1      -0.334   5.998  -4.986  0.00  0.00    +0.001 C 
ATOM      7  C   UNL     1      -1.298   5.501  -6.044  0.00  0.00    +0.000 C 
ATOM      8  C   UNL     1      -2.704   5.838  -5.601  0.00  0.00    +0.001 C 
ATOM      9  C   UNL     1      -2.789   7.349  -5.479  0.00  0.00    +0.000 C 
ATOM     10  C   UNL     1      -0.624   5.379  -3.627  0.00  0.00    +0.018 C 
ATOM     11  C   UNL     1      -3.005   5.144  -4.292  0.00  0.00    +0.018 C 
ENDROOT
TORSDOF 0
ENDMDL
MODEL 6
REMARK VINA RESULT:      -6.0      1.420      2.676
REMARK  Name = 
REMARK  0 active torsions:
REMARK  status: ('A' for Active; 'I' for Inactive)
REMARK                            x       y       z     vdW  Elec       q    Type
REMARK                         _______ _______ _______ _____ _____    ______ ____
ROOT
ATOM      1  N   UNL     1       4.070   5.178 -10.161  0.00  0.00    -0.134 NA
ATOM      2  C   UNL     1       5.278   5.789 -10.669  0.00  0.00    +0.077 C 
ATOM      3  C   UNL     1       6.423   5.578  -9.701  0.00  0.00    +0.018 C 
ATOM      4  C   UNL     1       7.682   6.094 -10.368  0.00  0.00    +0.001 C 
ATOM      5  C   UNL     1       7.924   5.499 -11.721  0.00  0.00    +0.000 C 
ATOM      6  C   UNL     1       6.772   5.862 -12.643  0.00  0.00    +0.001 C 
ATOM      7  C   UNL     1       6.584   7.363 -12.746  0.00  0.00    +0.000 C 
ATOM      8  C   UNL     1       6.325   7.905 -11.358  0.00  0.00    +0.001 C 
ATOM      9  C   UNL     1       7.544   7.583 -10.513  0.00  0.00    +0.000 C 
ATOM     10  C   UNL     1       5.557   5.186 -12.028  0.00  0.00    +0.018 C 
ATOM     11  C   UNL     1       5.065   7.285 -10.797  0.00  0.00    +0.018 C 
ENDROOT
TORSDOF 0
ENDMDL
MODEL 7
REMARK VINA RESULT:      -6.0      9.958     11.228
REMARK  Name = 
REMARK  0 active torsions:
REMARK  status: ('A' for Active; 'I' for Inactive)
REMARK                            x       y       z     vdW  Elec       q    Type
REMARK                         _______ _______ _______ _____ _____    ______ ____
ROOT
ATOM      1  N   UNL     1      -2.446   5.028  -2.078  0.00  0.00    -0.134 NA
ATOM      2  C   UNL     1      -2.102   5.640  -3.342  0.00  0.00    +0.077 C 
ATOM      3  C   UNL     1      -2.974   5.089  -4.451  0.00  0.00    +0.018 C 
ATOM      4  C   UNL     1      -2.674   5.888  -5.703  0.00  0.00    +0.001 C 
ATOM      5  C   UNL     1      -2.812   7.367  -5.511  0.00  0.00    +0.000 C 
ATOM      6  C   UNL     1      -1.818   7.832  -4.460  0.00  0.00    +0.001 C 
ATOM      7  C   UNL     1      -0.393   7.472  -4.832  0.00  0.00    +0.000 C 
ATOM      8  C   UNL     1      -0.309   5.971  -4.993  0.00  0.00    +0.001 C 
ATOM      9  C   UNL     1      -1.261   5.583  -6.111  0.00  0.00    +0.000 C 
ATOM     10  C   UNL     1      -2.255   7.136  -3.180  0.00  0.00    +0.018 C 
ATOM     11  C   UNL     1      -0.664   5.299  -3.687  0.00  0.00    +0.018 C 
ENDROOT
TORSDOF 0
ENDMDL
MODEL 8
REMARK VINA RESULT:      -5.9      1.486      2.651
REMARK  Name = 
REMARK  0 active torsions:
REMARK  status: ('A' for Active; 'I' for Inactive)
REMARK                            x       y       z     vdW  Elec       q    Type
REMARK                         _______ _______ _______ _____ _____    ______ ____
ROOT
ATOM      1  N   UNL     1       4.070   5.292  -9.885  0.00  0.00    -0.134 NA
ATOM      2  C   UNL     1       5.231   5.829 -10.559  0.00  0.00    +0.077 C 
ATOM      3  C   UNL     1       5.061   7.314 -10.803  0.00  0.00    +0.018 C 
ATOM      4  C   UNL     1       6.371   7.836 -11.355  0.00  0.00    +0.001 C 
ATOM      5  C   UNL     1       7.553   7.501 -10.498  0.00  0.00    +0.000 C 
ATOM      6  C   UNL     1       7.699   5.992 -10.410  0.00  0.00    +0.001 C 
ATOM      7  C   UNL     1       7.836   5.357 -11.779  0.00  0.00    +0.000 C 
ATOM      8  C   UNL     1       6.610   5.710 -12.591  0.00  0.00    +0.001 C 
ATOM      9  C   UNL     1       6.571   7.223 -12.713  0.00  0.00    +0.000 C 
ATOM     10  C   UNL     1       6.438   5.523  -9.699  0.00  0.00    +0.018 C 
ATOM     11  C   UNL     1       5.375   5.163 -11.914  0.00  0.00    +0.018 C 
ENDROOT
TORSDOF 0
ENDMDL
MODEL 9
REMARK VINA RESULT:      -5.5      9.474     10.642
REMARK  Name = 
REMARK  0 active torsions:
REMARK  status: ('A' for Active; 'I' for Inactive)
REMARK                            x       y       z     vdW  Elec       q    Type
REMARK                         _______ _______ _______ _____ _____    ______ ____
ROOT
ATOM      1  N   UNL     1       1.033   5.288  -5.049  0.00  0.00    -0.134 NA
ATOM      2  C   UNL     1      -0.293   5.798  -4.774  0.00  0.00    +0.077 C 
ATOM      3  C   UNL     1      -1.281   5.280  -5.797  0.00  0.00    +0.018 C 
ATOM      4  C   UNL     1      -2.663   5.714  -5.352  0.00  0.00    +0.001 C 
ATOM      5  C   UNL     1      -2.989   5.312  -3.947  0.00  0.00    +0.000 C 
ATOM      6  C   UNL     1      -2.007   5.973  -2.994  0.00  0.00    +0.001 C 
ATOM      7  C   UNL     1      -2.015   7.483  -3.134  0.00  0.00    +0.000 C 
ATOM      8  C   UNL     1      -1.662   7.830  -4.563  0.00  0.00    +0.001 C 
ATOM      9  C   UNL     1      -2.725   7.212  -5.453  0.00  0.00    +0.000 C 
ATOM     10  C   UNL     1      -0.654   5.384  -3.364  0.00  0.00    +0.018 C 
ATOM     11  C   UNL     1      -0.279   7.310  -4.885  0.00  0.00    +0.018 C 
ENDROOT
TORSDOF 0
ENDMDL
