MODEL 1
REMARK VINA RESULT:      -5.3      0.000      0.000
REMARK  Name = 
REMARK  8 active torsions:
REMARK  status: ('A' for Active; 'I' for Inactive)
REMARK    1  A    between atoms: C_2  and  C_4
REMARK    2  A    between atoms: C_4  and  C_5
REMARK    3  A    between atoms: C_5  and  C_6
REMARK    4  A    between atoms: C_6  and  C_7
REMARK    5  A    between atoms: C_7  and  C_8
REMARK    6  A    between atoms: C_8  and  C_9
REMARK    7  A    between atoms: C_9  and  C_10
REMARK    8  A    between atoms: C_10  and  C_11
REMARK                            x       y       z     vdW  Elec       q    Type
REMARK                         _______ _______ _______ _____ _____    ______ ____
ROOT
ATOM      1  C   UNL     1      -1.408   5.279  -6.251  0.00  0.00    +0.000 C 
ENDROOT
BRANCH   1   2
ATOM      2  C   UNL     1      -0.830   5.351  -7.643  0.00  0.00    +0.001 C 
BRANCH   2   3
ATOM      3  C   UNL     1       0.658   5.597  -7.648  0.00  0.00    +0.012 C 
BRANCH   3   4
ATOM      4  C   UNL     1       1.085   6.620  -6.627  0.00  0.00    +0.114 C 
BRANCH   4   6
ATOM      5  O   UNL     1       3.284   7.392  -6.236  0.00  0.00    -0.246 OA
ATOM      6  C   UNL     1       2.314   7.350  -7.035  0.00  0.00    +0.365 C 
ATOM      7  O   UNL     1       2.123   8.405  -7.932  0.00  0.00    -0.246 OA
ENDBRANCH   4   6
ENDBRANCH   3   4
ENDBRANCH   2   3
ENDBRANCH   1   2
BRANCH   1   8
ATOM      8  C   UNL     1      -2.501   6.322  -6.034  0.00  0.00    +0.001 C 
BRANCH   8   9
ATOM      9  C   UNL     1      -2.459   6.672  -4.572  0.00  0.00    +0.012 C 
BRANCH   9  10
ATOM     10  C   UNL     1      -1.335   6.040  -3.818  0.00  0.00    +0.114 C 
BRANCH  10  11
ATOM     11  C   UNL     1      -1.740   5.358  -2.580  0.00  0.00    +0.365 C 
ATOM     12  O   UNL     1      -0.818   5.001  -1.596  0.00  0.00    -0.246 OA
ATOM     13  O   UNL     1      -2.823   4.699  -2.587  0.00  0.00    -0.246 OA
ENDBRANCH  10  11
ENDBRANCH   9  10
ENDBRANCH   8   9
ENDBRANCH   1   8
TORSDOF 8
ENDMDL
MODEL 2
REMARK VINA RESULT:      -5.2      5.367      9.254
REMARK  Name = 
REMARK  8 active torsions:
REMARK  status: ('A' for Active; 'I' for Inactive)
REMARK    1  A    between atoms: C_2  and  C_4
REMARK    2  A    between atoms: C_4  and  C_5
REMARK    3  A    between atoms: C_5  and  C_6
REMARK    4  A    between atoms: C_6  and  C_7
REMARK    5  A    between atoms: C_7  and  C_8
REMARK    6  A    between atoms: C_8  and  C_9
REMARK    7  A    between atoms: C_9  and  C_10
REMARK    8  A    between atoms: C_10  and  C_11
REMARK                            x       y       z     vdW  Elec       q    Type
REMARK                         _______ _______ _______ _____ _____    ______ ____
ROOT
ATOM      1  C   UNL     1       6.202   5.688  -9.207  0.00  0.00    +0.000 C 
ENDROOT
BRANCH   1   2
ATOM      2  C   UNL     1       5.116   5.250  -8.256  0.00  0.00    +0.001 C 
BRANCH   2   3
ATOM      3  C   UNL     1       3.731   5.421  -8.827  0.00  0.00    +0.012 C 
BRANCH   3   4
ATOM      4  C   UNL     1       2.717   5.831  -7.791  0.00  0.00    +0.114 C 
BRANCH   4   6
ATOM      5  O   UNL     1       3.288   7.365  -6.087  0.00  0.00    -0.246 OA
ATOM      6  C   UNL     1       2.946   7.210  -7.286  0.00  0.00    +0.365 C 
ATOM      7  O   UNL     1       2.216   8.218  -7.924  0.00  0.00    -0.246 OA
ENDBRANCH   4   6
ENDBRANCH   3   4
ENDBRANCH   2   3
ENDBRANCH   1   2
BRANCH   1   8
ATOM      8  C   UNL     1       5.636   6.439 -10.410  0.00  0.00    +0.001 C 
BRANCH   8   9
ATOM      9  C   UNL     1       6.779   7.229 -10.982  0.00  0.00    +0.012 C 
BRANCH   9  10
ATOM     10  C   UNL     1       7.181   6.825 -12.364  0.00  0.00    +0.114 C 
BRANCH  10  11
ATOM     11  C   UNL     1       8.119   5.694 -12.418  0.00  0.00    +0.365 C 
ATOM     12  O   UNL     1       9.484   5.854 -12.182  0.00  0.00    -0.246 OA
ATOM     13  O   UNL     1       7.792   4.678 -13.102  0.00  0.00    -0.246 OA
ENDBRANCH  10  11
ENDBRANCH   9  10
ENDBRANCH   8   9
ENDBRANCH   1   8
TORSDOF 8
ENDMDL
MODEL 3
REMARK VINA RESULT:      -5.1      1.059      5.767
REMARK  Name = 
REMARK  8 active torsions:
REMARK  status: ('A' for Active; 'I' for Inactive)
REMARK    1  A    between atoms: C_2  and  C_4
REMARK    2  A    between atoms: C_4  and  C_5
REMARK    3  A    between atoms: C_5  and  C_6
REMARK    4  A    between atoms: C_6  and  C_7
REMARK    5  A    between atoms: C_7  and  C_8
REMARK    6  A    between atoms: C_8  and  C_9
REMARK    7  A    between atoms: C_9  and  C_10
REMARK    8  A    between atoms: C_10  and  C_11
REMARK                            x       y       z     vdW  Elec       q    Type
REMARK                         _______ _______ _______ _____ _____    ______ ____
ROOT
ATOM      1  C   UNL     1      -1.878   5.563  -6.190  0.00  0.00    +0.000 C 
ENDROOT
BRANCH   1   2
ATOM      2  C   UNL     1      -1.357   6.545  -5.170  0.00  0.00    +0.001 C 
BRANCH   2   3
ATOM      3  C   UNL     1      -2.430   7.049  -4.239  0.00  0.00    +0.012 C 
BRANCH   3   4
ATOM      4  C   UNL     1      -2.039   6.949  -2.787  0.00  0.00    +0.114 C 
BRANCH   4   6
ATOM      5  O   UNL     1      -0.934   5.030  -1.962  0.00  0.00    -0.246 OA
ATOM      6  C   UNL     1      -2.030   5.545  -2.296  0.00  0.00    +0.365 C 
ATOM      7  O   UNL     1      -3.049   4.724  -2.790  0.00  0.00    -0.246 OA
ENDBRANCH   4   6
ENDBRANCH   3   4
ENDBRANCH   2   3
ENDBRANCH   1   2
BRANCH   1   8
ATOM      8  C   UNL     1      -0.883   5.337  -7.324  0.00  0.00    +0.001 C 
BRANCH   8   9
ATOM      9  C   UNL     1       0.456   5.771  -6.796  0.00  0.00    +0.012 C 
BRANCH   9  10
ATOM     10  C   UNL     1       1.552   5.766  -7.811  0.00  0.00    +0.114 C 
BRANCH  10  11
ATOM     11  C   UNL     1       1.740   7.047  -8.509  0.00  0.00    +0.365 C 
ATOM     12  O   UNL     1       2.100   8.212  -7.832  0.00  0.00    -0.246 OA
ATOM     13  O   UNL     1       1.157   7.213  -9.623  0.00  0.00    -0.246 OA
ENDBRANCH  10  11
ENDBRANCH   9  10
ENDBRANCH   8   9
ENDBRANCH   1   8
TORSDOF 8
ENDMDL
MODEL 4
REMARK VINA RESULT:      -5.0      5.719      9.578
REMARK  Name = 
REMARK  8 active torsions:
REMARK  status: ('A' for Active; 'I' for Inactive)
REMARK    1  A    between atoms: C_2  and  C_4
REMARK    2  A    between atoms: C_4  and  C_5
REMARK    3  A    between atoms: C_5  and  C_6
REMARK    4  A    between atoms: C_6  and  C_7
REMARK    5  A    between atoms: C_7  and  C_8
REMARK    6  A    between atoms: C_8  and  C_9
REMARK    7  A    between atoms: C_9  and  C_10
REMARK    8  A    between atoms: C_10  and  C_11
REMARK                            x       y       z     vdW  Elec       q    Type
REMARK                         _______ _______ _______ _____ _____    ______ ____
ROOT
ATOM      1  C   UNL     1       7.067   5.873  -9.575  0.00  0.00    +0.000 C 
ENDROOT
BRANCH   1   2
ATOM      2  C   UNL     1       5.559   5.882  -9.548  0.00  0.00    +0.001 C 
BRANCH   2   3
ATOM      3  C   UNL     1       4.985   4.947  -8.514  0.00  0.00    +0.012 C 
BRANCH   3   4
ATOM      4  C   UNL     1       3.726   4.261  -8.980  0.00  0.00    +0.114 C 
BRANCH   4   6
ATOM      5  O   UNL     1       1.443   4.754  -8.627  0.00  0.00    -0.246 OA
ATOM      6  C   UNL     1       2.564   4.546  -8.098  0.00  0.00    +0.365 C 
ATOM      7  O   UNL     1       2.865   5.153  -6.875  0.00  0.00    -0.246 OA
ENDBRANCH   4   6
ENDBRANCH   3   4
ENDBRANCH   2   3
ENDBRANCH   1   2
BRANCH   1   8
ATOM      8  C   UNL     1       7.627   6.949 -10.501  0.00  0.00    +0.001 C 
BRANCH   8   9
ATOM      9  C   UNL     1       6.560   7.212 -11.526  0.00  0.00    +0.012 C 
BRANCH   9  10
ATOM     10  C   UNL     1       6.941   6.846 -12.924  0.00  0.00    +0.114 C 
BRANCH  10  11
ATOM     11  C   UNL     1       6.760   5.425 -13.252  0.00  0.00    +0.365 C 
ATOM     12  O   UNL     1       5.501   4.823 -13.261  0.00  0.00    -0.246 OA
ATOM     13  O   UNL     1       7.745   4.643 -13.091  0.00  0.00    -0.246 OA
ENDBRANCH  10  11
ENDBRANCH   9  10
ENDBRANCH   8   9
ENDBRANCH   1   8
TORSDOF 8
ENDMDL
MODEL 5
REMARK VINA RESULT:      -5.0      1.934      5.528
REMARK  Name = 
REMARK  8 active torsions:
REMARK  status: ('A' for Active; 'I' for Inactive)
REMARK    1  A    between atoms: C_2  and  C_4
REMARK    2  A    between atoms: C_4  and  C_5
REMARK    3  A    between atoms: C_5  and  C_6
REMARK    4  A    between atoms: C_6  and  C_7
REMARK    5  A    between atoms: C_7  and  C_8
REMARK    6  A    between atoms: C_8  and  C_9
REMARK    7  A    between atoms: C_9  and  C_10
REMARK    8  A    between atoms: C_10  and  C_11
REMARK                            x       y       z     vdW  Elec       q    Type
REMARK                         _______ _______ _______ _____ _____    ______ ____
ROOT
ATOM      1  C   UNL     1      -2.176   5.851  -6.206  0.00  0.00    +0.000 C 
ENDROOT
BRANCH   1   2
ATOM      2  C   UNL     1      -1.505   6.712  -5.165  0.00  0.00    +0.001 C 
BRANCH   2   3
ATOM      3  C   UNL     1      -2.477   7.302  -4.176  0.00  0.00    +0.012 C 
BRANCH   3   4
ATOM      4  C   UNL     1      -2.174   6.911  -2.752  0.00  0.00    +0.114 C 
BRANCH   4   6
ATOM      5  O   UNL     1      -2.936   4.675  -2.779  0.00  0.00    -0.246 OA
ATOM      6  C   UNL     1      -1.962   5.448  -2.598  0.00  0.00    +0.365 C 
ATOM      7  O   UNL     1      -0.947   5.073  -1.713  0.00  0.00    -0.246 OA
ENDBRANCH   4   6
ENDBRANCH   3   4
ENDBRANCH   2   3
ENDBRANCH   1   2
BRANCH   1   8
ATOM      8  C   UNL     1      -1.175   5.288  -7.211  0.00  0.00    +0.001 C 
BRANCH   8   9
ATOM      9  C   UNL     1       0.188   5.616  -6.670  0.00  0.00    +0.012 C 
BRANCH   9  10
ATOM     10  C   UNL     1       1.302   5.435  -7.648  0.00  0.00    +0.114 C 
BRANCH  10  11
ATOM     11  C   UNL     1       2.059   4.186  -7.485  0.00  0.00    +0.365 C 
ATOM     12  O   UNL     1       2.247   3.593  -6.236  0.00  0.00    -0.246 OA
ATOM     13  O   UNL     1       2.909   3.880  -8.375  0.00  0.00    -0.246 OA
ENDBRANCH  10  11
ENDBRANCH   9  10
ENDBRANCH   8   9
ENDBRANCH   1   8
TORSDOF 8
ENDMDL
MODEL 6
REMARK VINA RESULT:      -4.9      5.572      7.447
REMARK  Name = 
REMARK  8 active torsions:
REMARK  status: ('A' for Active; 'I' for Inactive)
REMARK    1  A    between atoms: C_2  and  C_4
REMARK    2  A    between atoms: C_4  and  C_5
REMARK    3  A    between atoms: C_5  and  C_6
REMARK    4  A    between atoms: C_6  and  C_7
REMARK    5  A    between atoms: C_7  and  C_8
REMARK    6  A    between atoms: C_8  and  C_9
REMARK    7  A    between atoms: C_9  and  C_10
REMARK    8  A    between atoms: C_10  and  C_11
REMARK                            x       y       z     vdW  Elec       q    Type
REMARK                         _______ _______ _______ _____ _____    ______ ____
ROOT
ATOM      1  C   UNL     1       5.279   5.975 -10.009  0.00  0.00    +0.000 C 
ENDROOT
BRANCH   1   2
ATOM      2  C   UNL     1       5.305   7.223 -10.857  0.00  0.00    +0.001 C 
BRANCH   2   3
ATOM      3  C   UNL     1       6.657   7.488 -11.469  0.00  0.00    +0.012 C 
BRANCH   3   4
ATOM      4  C   UNL     1       7.710   6.515 -11.006  0.00  0.00    +0.114 C 
BRANCH   4   6
ATOM      5  O   UNL     1       7.767   4.666 -12.476  0.00  0.00    -0.246 OA
ATOM      6  C   UNL     1       8.307   5.747 -12.130  0.00  0.00    +0.365 C 
ATOM      7  O   UNL     1       9.684   5.911 -12.312  0.00  0.00    -0.246 OA
ENDBRANCH   4   6
ENDBRANCH   3   4
ENDBRANCH   2   3
ENDBRANCH   1   2
BRANCH   1   8
ATOM      8  C   UNL     1       3.926   5.271 -10.073  0.00  0.00    +0.001 C 
BRANCH   8   9
ATOM      9  C   UNL     1       3.941   4.241  -8.978  0.00  0.00    +0.012 C 
BRANCH   9  10
ATOM     10  C   UNL     1       2.591   3.885  -8.447  0.00  0.00    +0.114 C 
BRANCH  10  11
ATOM     11  C   UNL     1       2.365   4.276  -7.047  0.00  0.00    +0.365 C 
ATOM     12  O   UNL     1       1.605   3.497  -6.175  0.00  0.00    -0.246 OA
ATOM     13  O   UNL     1       2.468   5.503  -6.745  0.00  0.00    -0.246 OA
ENDBRANCH  10  11
ENDBRANCH   9  10
ENDBRANCH   8   9
ENDBRANCH   1   8
TORSDOF 8
ENDMDL
MODEL 7
REMARK VINA RESULT:      -4.9      5.318      7.779
REMARK  Name = 
REMARK  8 active torsions:
REMARK  status: ('A' for Active; 'I' for Inactive)
REMARK    1  A    between atoms: C_2  and  C_4
REMARK    2  A    between atoms: C_4  and  C_5
REMARK    3  A    between atoms: C_5  and  C_6
REMARK    4  A    between atoms: C_6  and  C_7
REMARK    5  A    between atoms: C_7  and  C_8
REMARK    6  A    between atoms: C_8  and  C_9
REMARK    7  A    between atoms: C_9  and  C_10
REMARK    8  A    between atoms: C_10  and  C_11
REMARK                            x       y       z     vdW  Elec       q    Type
REMARK                         _______ _______ _______ _____ _____    ______ ____
ROOT
ATOM      1  C   UNL     1       5.983   6.095  -9.352  0.00  0.00    +0.000 C 
ENDROOT
BRANCH   1   2
ATOM      2  C   UNL     1       7.432   5.845  -9.691  0.00  0.00    +0.001 C 
BRANCH   2   3
ATOM      3  C   UNL     1       7.857   6.508 -10.977  0.00  0.00    +0.012 C 
BRANCH   3   4
ATOM      4  C   UNL     1       6.742   6.593 -11.988  0.00  0.00    +0.114 C 
BRANCH   4   6
ATOM      5  O   UNL     1       5.659   4.830 -13.127  0.00  0.00    -0.246 OA
ATOM      6  C   UNL     1       6.738   5.442 -12.928  0.00  0.00    +0.365 C 
ATOM      7  O   UNL     1       7.948   4.750 -13.043  0.00  0.00    -0.246 OA
ENDBRANCH   4   6
ENDBRANCH   3   4
ENDBRANCH   2   3
ENDBRANCH   1   2
BRANCH   1   8
ATOM      8  C   UNL     1       5.343   4.893  -8.665  0.00  0.00    +0.001 C 
BRANCH   8   9
ATOM      9  C   UNL     1       3.871   5.190  -8.591  0.00  0.00    +0.012 C 
BRANCH   9  10
ATOM     10  C   UNL     1       3.517   6.624  -8.816  0.00  0.00    +0.114 C 
BRANCH  10  11
ATOM     11  C   UNL     1       2.430   7.124  -7.962  0.00  0.00    +0.365 C 
ATOM     12  O   UNL     1       2.125   8.482  -7.872  0.00  0.00    -0.246 OA
ATOM     13  O   UNL     1       2.063   6.410  -6.981  0.00  0.00    -0.246 OA
ENDBRANCH  10  11
ENDBRANCH   9  10
ENDBRANCH   8   9
ENDBRANCH   1   8
TORSDOF 8
ENDMDL
MODEL 8
REMARK VINA RESULT:      -4.9      5.659      9.527
REMARK  Name = 
REMARK  8 active torsions:
REMARK  status: ('A' for Active; 'I' for Inactive)
REMARK    1  A    between atoms: C_2  and  C_4
REMARK    2  A    between atoms: C_4  and  C_5
REMARK    3  A    between atoms: C_5  and  C_6
REMARK    4  A    between atoms: C_6  and  C_7
REMARK    5  A    between atoms: C_7  and  C_8
REMARK    6  A    between atoms: C_8  and  C_9
REMARK    7  A    between atoms: C_9  and  C_10
REMARK    8  A    between atoms: C_10  and  C_11
REMARK                            x       y       z     vdW  Elec       q    Type
REMARK                         _______ _______ _______ _____ _____    ______ ____
ROOT
ATOM      1  C   UNL     1       5.559   5.834  -9.282  0.00  0.00    +0.000 C 
ENDROOT
BRANCH   1   2
ATOM      2  C   UNL     1       5.180   5.103  -8.018  0.00  0.00    +0.001 C 
BRANCH   2   3
ATOM      3  C   UNL     1       3.976   5.698  -7.334  0.00  0.00    +0.012 C 
BRANCH   3   4
ATOM      4  C   UNL     1       4.169   5.862  -5.848  0.00  0.00    +0.114 C 
BRANCH   4   6
ATOM      5  O   UNL     1       3.935   4.485  -3.942  0.00  0.00    -0.246 OA
ATOM      6  C   UNL     1       3.471   4.808  -5.065  0.00  0.00    +0.365 C 
ATOM      7  O   UNL     1       2.775   3.856  -5.816  0.00  0.00    -0.246 OA
ENDBRANCH   4   6
ENDBRANCH   3   4
ENDBRANCH   2   3
ENDBRANCH   1   2
BRANCH   1   8
ATOM      8  C   UNL     1       7.070   5.861  -9.493  0.00  0.00    +0.001 C 
BRANCH   8   9
ATOM      9  C   UNL     1       7.339   7.002 -10.435  0.00  0.00    +0.012 C 
BRANCH   9  10
ATOM     10  C   UNL     1       7.272   6.637 -11.882  0.00  0.00    +0.114 C 
BRANCH  10  11
ATOM     11  C   UNL     1       8.210   5.581 -12.288  0.00  0.00    +0.365 C 
ATOM     12  O   UNL     1       9.593   5.762 -12.242  0.00  0.00    -0.246 OA
ATOM     13  O   UNL     1       7.797   4.688 -13.088  0.00  0.00    -0.246 OA
ENDBRANCH  10  11
ENDBRANCH   9  10
ENDBRANCH   8   9
ENDBRANCH   1   8
TORSDOF 8
ENDMDL
MODEL 9
REMARK VINA RESULT:      -4.8      1.207      5.714
REMARK  Name = 
REMARK  8 active torsions:
REMARK  status: ('A' for Active; 'I' for Inactive)
REMARK    1  A    between atoms: C_2  and  C_4
REMARK    2  A    between atoms: C_4  and  C_5
REMARK    3  A    between atoms: C_5  and  C_6
REMARK    4  A    between atoms: C_6  and  C_7
REMARK    5  A    between atoms: C_7  and  C_8
REMARK    6  A    between atoms: C_8  and  C_9
REMARK    7  A    between atoms: C_9  and  C_10
REMARK    8  A    between atoms: C_10  and  C_11
REMARK                            x       y       z     vdW  Elec       q    Type
REMARK                         _______ _______ _______ _____ _____    ______ ____
ROOT
ATOM      1  C   UNL     1      -0.101   5.194  -5.606  0.00  0.00    +0.000 C 
ENDROOT
BRANCH   1   2
ATOM      2  C   UNL     1      -1.325   5.291  -6.482  0.00  0.00    +0.001 C 
BRANCH   2   3
ATOM      3  C   UNL     1      -2.456   6.046  -5.829  0.00  0.00    +0.012 C 
BRANCH   3   4
ATOM      4  C   UNL     1      -2.062   6.666  -4.513  0.00  0.00    +0.114 C 
BRANCH   4   6
ATOM      5  O   UNL     1      -3.033   7.008  -2.387  0.00  0.00    -0.246 OA
ATOM      6  C   UNL     1      -2.974   6.275  -3.406  0.00  0.00    +0.365 C 
ATOM      7  O   UNL     1      -3.219   4.905  -3.278  0.00  0.00    -0.246 OA
ENDBRANCH   4   6
ENDBRANCH   3   4
ENDBRANCH   2   3
ENDBRANCH   1   2
BRANCH   1   8
ATOM      8  C   UNL     1       1.080   4.570  -6.344  0.00  0.00    +0.001 C 
BRANCH   8   9
ATOM      9  C   UNL     1       1.149   5.260  -7.678  0.00  0.00    +0.012 C 
BRANCH   9  10
ATOM     10  C   UNL     1       2.415   6.015  -7.919  0.00  0.00    +0.114 C 
BRANCH  10  11
ATOM     11  C   UNL     1       2.484   7.319  -7.243  0.00  0.00    +0.365 C 
ATOM     12  O   UNL     1       2.136   8.506  -7.889  0.00  0.00    -0.246 OA
ATOM     13  O   UNL     1       3.264   7.439  -6.251  0.00  0.00    -0.246 OA
ENDBRANCH  10  11
ENDBRANCH   9  10
ENDBRANCH   8   9
ENDBRANCH   1   8
TORSDOF 8
ENDMDL
