MODEL 1
REMARK VINA RESULT:      -6.9      0.000      0.000
REMARK  Name = 
REMARK  5 active torsions:
REMARK  status: ('A' for Active; 'I' for Inactive)
REMARK    1  A    between atoms: N_2  and  C_4
REMARK    2  A    between atoms: C_4  and  C_5
REMARK    3  A    between atoms: C_5  and  C_6
REMARK    4  A    between atoms: C_6  and  C_8
REMARK    5  A    between atoms: C_6  and  C_14
REMARK                            x       y       z     vdW  Elec       q    Type
REMARK                         _______ _______ _______ _____ _____    ______ ____
ROOT
ATOM      1  C   UNL     1       1.159   5.876  -5.510  0.00  0.00    +0.166 C 
ATOM      2  O   UNL     1       1.096   4.539  -5.142  0.00  0.00    -0.217 OA
ENDROOT
BRANCH   1   3
ATOM      3  C   UNL     1      -0.194   6.475  -5.541  0.00  0.00    +0.020 A 
ATOM      4  C   UNL     1      -1.246   5.834  -6.181  0.00  0.00    +0.056 A 
ATOM      5 CL   UNL     1      -0.837   4.772  -7.502  0.00  0.00    -0.082 Cl
ATOM      6  C   UNL     1      -2.554   6.277  -6.065  0.00  0.00    +0.011 A 
ATOM      7  C   UNL     1      -2.796   7.273  -5.131  0.00  0.00    +0.001 A 
ATOM      8  C   UNL     1      -1.752   8.049  -4.644  0.00  0.00    -0.000 A 
ATOM      9  C   UNL     1      -0.500   7.454  -4.617  0.00  0.00    -0.001 A 
ENDBRANCH   1   3
BRANCH   1  10
ATOM     10  C   UNL     1       1.776   6.048  -6.861  0.00  0.00    +0.009 A 
ATOM     11  C   UNL     1       2.559   5.000  -7.315  0.00  0.00    -0.002 A 
ATOM     12  C   UNL     1       3.492   5.251  -8.314  0.00  0.00    -0.000 A 
ATOM     13  C   UNL     1       3.652   6.537  -8.762  0.00  0.00    -0.000 A 
ATOM     14  C   UNL     1       2.643   7.469  -8.558  0.00  0.00    -0.000 A 
ATOM     15  C   UNL     1       1.862   7.303  -7.427  0.00  0.00    -0.002 A 
ENDBRANCH   1  10
BRANCH   1  16
ATOM     16  C   UNL     1       2.032   6.659  -4.553  0.00  0.00    +0.056 C 
BRANCH  16  17
ATOM     17  C   UNL     1       2.714   5.709  -3.607  0.00  0.00    +0.075 C 
BRANCH  17  19
ATOM     18  C   UNL     1       4.747   4.898  -4.326  0.00  0.00    +0.090 C 
ATOM     19  N   UNL     1       4.136   5.964  -3.674  0.00  0.00    -0.270 NA
ATOM     20  C   UNL     1       4.297   7.234  -4.362  0.00  0.00    +0.090 C 
ENDBRANCH  17  19
ENDBRANCH  16  17
ENDBRANCH   1  16
TORSDOF 5
ENDMDL
MODEL 2
REMARK VINA RESULT:      -6.7      2.259      5.041
REMARK  Name = 
REMARK  5 active torsions:
REMARK  status: ('A' for Active; 'I' for Inactive)
REMARK    1  A    between atoms: N_2  and  C_4
REMARK    2  A    between atoms: C_4  and  C_5
REMARK    3  A    between atoms: C_5  and  C_6
REMARK    4  A    between atoms: C_6  and  C_8
REMARK    5  A    between atoms: C_6  and  C_14
REMARK                            x       y       z     vdW  Elec       q    Type
REMARK                         _______ _______ _______ _____ _____    ______ ____
ROOT
ATOM      1  C   UNL     1       1.821   4.630  -6.507  0.00  0.00    +0.166 C 
ATOM      2  O   UNL     1       1.800   3.276  -6.205  0.00  0.00    -0.217 OA
ENDROOT
BRANCH   1   3
ATOM      3  C   UNL     1       2.955   5.299  -5.832  0.00  0.00    +0.020 A 
ATOM      4  C   UNL     1       3.093   6.679  -5.860  0.00  0.00    +0.056 A 
ATOM      5 CL   UNL     1       2.405   7.513  -7.229  0.00  0.00    -0.082 Cl
ATOM      6  C   UNL     1       4.032   7.339  -5.084  0.00  0.00    +0.011 A 
ATOM      7  C   UNL     1       4.701   6.582  -4.135  0.00  0.00    +0.001 A 
ATOM      8  C   UNL     1       4.726   5.197  -4.230  0.00  0.00    -0.000 A 
ATOM      9  C   UNL     1       3.643   4.601  -4.858  0.00  0.00    -0.001 A 
ENDBRANCH   1   3
BRANCH   1  10
ATOM     10  C   UNL     1       0.559   5.309  -6.082  0.00  0.00    +0.009 A 
ATOM     11  C   UNL     1       0.365   5.445  -4.718  0.00  0.00    -0.002 A 
ATOM     12  C   UNL     1      -0.927   5.647  -4.246  0.00  0.00    -0.000 A 
ATOM     13  C   UNL     1      -1.967   5.634  -5.140  0.00  0.00    -0.000 A 
ATOM     14  C   UNL     1      -1.720   5.850  -6.489  0.00  0.00    -0.000 A 
ATOM     15  C   UNL     1      -0.489   5.439  -6.970  0.00  0.00    -0.002 A 
ENDBRANCH   1  10
BRANCH   1  16
ATOM     16  C   UNL     1       1.927   4.849  -8.001  0.00  0.00    +0.056 C 
BRANCH  16  17
ATOM     17  C   UNL     1       2.913   3.874  -8.582  0.00  0.00    +0.075 C 
BRANCH  17  19
ATOM     18  C   UNL     1       2.911   5.541 -10.171  0.00  0.00    +0.090 C 
ATOM     19  N   UNL     1       3.709   4.579  -9.561  0.00  0.00    -0.270 NA
ATOM     20  C   UNL     1       4.846   5.136  -8.848  0.00  0.00    +0.090 C 
ENDBRANCH  17  19
ENDBRANCH  16  17
ENDBRANCH   1  16
TORSDOF 5
ENDMDL
MODEL 3
REMARK VINA RESULT:      -6.6      3.712      7.004
REMARK  Name = 
REMARK  5 active torsions:
REMARK  status: ('A' for Active; 'I' for Inactive)
REMARK    1  A    between atoms: N_2  and  C_4
REMARK    2  A    between atoms: C_4  and  C_5
REMARK    3  A    between atoms: C_5  and  C_6
REMARK    4  A    between atoms: C_6  and  C_8
REMARK    5  A    between atoms: C_6  and  C_14
REMARK                            x       y       z     vdW  Elec       q    Type
REMARK                         _______ _______ _______ _____ _____    ______ ____
ROOT
ATOM      1  C   UNL     1       3.505   5.803 -10.040  0.00  0.00    +0.166 C 
ATOM      2  O   UNL     1       3.558   4.435 -10.271  0.00  0.00    -0.217 OA
ENDROOT
BRANCH   1   3
ATOM      3  C   UNL     1       4.857   6.399 -10.120  0.00  0.00    +0.020 A 
ATOM      4  C   UNL     1       5.948   5.783  -9.524  0.00  0.00    +0.056 A 
ATOM      5 CL   UNL     1       5.626   4.776  -8.137  0.00  0.00    -0.082 Cl
ATOM      6  C   UNL     1       7.246   6.219  -9.741  0.00  0.00    +0.011 A 
ATOM      7  C   UNL     1       7.427   7.175 -10.728  0.00  0.00    +0.001 A 
ATOM      8  C   UNL     1       6.353   7.932 -11.178  0.00  0.00    -0.000 A 
ATOM      9  C   UNL     1       5.102   7.340 -11.101  0.00  0.00    -0.001 A 
ENDBRANCH   1   3
BRANCH   1  10
ATOM     10  C   UNL     1       2.938   6.112  -8.691  0.00  0.00    +0.009 A 
ATOM     11  C   UNL     1       2.323   5.063  -8.030  0.00  0.00    -0.002 A 
ATOM     12  C   UNL     1       1.415   5.355  -7.019  0.00  0.00    -0.000 A 
ATOM     13  C   UNL     1       1.110   6.666  -6.762  0.00  0.00    -0.000 A 
ATOM     14  C   UNL     1       1.976   7.670  -7.176  0.00  0.00    -0.000 A 
ATOM     15  C   UNL     1       2.716   7.421  -8.319  0.00  0.00    -0.002 A 
ENDBRANCH   1  10
BRANCH   1  16
ATOM     16  C   UNL     1       2.596   6.485 -11.039  0.00  0.00    +0.056 C 
BRANCH  16  17
ATOM     17  C   UNL     1       1.926   5.447 -11.897  0.00  0.00    +0.075 C 
BRANCH  17  19
ATOM     18  C   UNL     1       0.047   4.565 -10.897  0.00  0.00    +0.090 C 
ATOM     19  N   UNL     1       0.498   5.588 -11.726  0.00  0.00    -0.270 NA
ATOM     20  C   UNL     1       0.274   6.916 -11.182  0.00  0.00    +0.090 C 
ENDBRANCH  17  19
ENDBRANCH  16  17
ENDBRANCH   1  16
TORSDOF 5
ENDMDL
MODEL 4
REMARK VINA RESULT:      -6.6      1.572      4.572
REMARK  Name = 
REMARK  5 active torsions:
REMARK  status: ('A' for Active; 'I' for Inactive)
REMARK    1  A    between atoms: N_2  and  C_4
REMARK    2  A    between atoms: C_4  and  C_5
REMARK    3  A    between atoms: C_5  and  C_6
REMARK    4  A    between atoms: C_6  and  C_8
REMARK    5  A    between atoms: C_6  and  C_14
REMARK                            x       y       z     vdW  Elec       q    Type
REMARK                         _______ _______ _______ _____ _____    ______ ____
ROOT
ATOM      1  C   UNL     1       1.685   6.066  -5.865  0.00  0.00    +0.166 C 
ATOM      2  O   UNL     1       2.389   7.208  -5.508  0.00  0.00    -0.217 OA
ENDROOT
BRANCH   1   3
ATOM      3  C   UNL     1       2.156   5.547  -7.168  0.00  0.00    +0.020 A 
ATOM      4  C   UNL     1       2.696   6.394  -8.125  0.00  0.00    +0.056 A 
ATOM      5 CL   UNL     1       2.162   8.054  -8.100  0.00  0.00    -0.082 Cl
ATOM      6  C   UNL     1       3.313   5.912  -9.268  0.00  0.00    +0.011 A 
ATOM      7  C   UNL     1       3.538   4.545  -9.327  0.00  0.00    +0.001 A 
ATOM      8  C   UNL     1       2.839   3.681  -8.496  0.00  0.00    -0.000 A 
ATOM      9  C   UNL     1       2.421   4.195  -7.278  0.00  0.00    -0.001 A 
ENDBRANCH   1   3
BRANCH   1  10
ATOM     10  C   UNL     1       0.218   6.336  -5.974  0.00  0.00    +0.009 A 
ATOM     11  C   UNL     1      -0.293   7.300  -5.122  0.00  0.00    -0.002 A 
ATOM     12  C   UNL     1      -1.657   7.293  -4.852  0.00  0.00    -0.000 A 
ATOM     13  C   UNL     1      -2.432   6.294  -5.382  0.00  0.00    -0.000 A 
ATOM     14  C   UNL     1      -1.977   5.580  -6.483  0.00  0.00    -0.000 A 
ATOM     15  C   UNL     1      -0.607   5.427  -6.604  0.00  0.00    -0.002 A 
ENDBRANCH   1  10
BRANCH   1  16
ATOM     16  C   UNL     1       1.831   4.989  -4.812  0.00  0.00    +0.056 C 
BRANCH  16  17
ATOM     17  C   UNL     1       2.565   5.548  -3.624  0.00  0.00    +0.075 C 
BRANCH  17  19
ATOM     18  C   UNL     1       4.710   4.953  -4.219  0.00  0.00    +0.090 C 
ATOM     19  N   UNL     1       3.674   4.666  -3.336  0.00  0.00    -0.270 NA
ATOM     20  C   UNL     1       4.024   4.882  -1.942  0.00  0.00    +0.090 C 
ENDBRANCH  17  19
ENDBRANCH  16  17
ENDBRANCH   1  16
TORSDOF 5
ENDMDL
MODEL 5
REMARK VINA RESULT:      -6.5      1.905      3.494
REMARK  Name = 
REMARK  5 active torsions:
REMARK  status: ('A' for Active; 'I' for Inactive)
REMARK    1  A    between atoms: N_2  and  C_4
REMARK    2  A    between atoms: C_4  and  C_5
REMARK    3  A    between atoms: C_5  and  C_6
REMARK    4  A    between atoms: C_6  and  C_8
REMARK    5  A    between atoms: C_6  and  C_14
REMARK                            x       y       z     vdW  Elec       q    Type
REMARK                         _______ _______ _______ _____ _____    ______ ____
ROOT
ATOM      1  C   UNL     1       1.908   6.690  -6.868  0.00  0.00    +0.166 C 
ATOM      2  O   UNL     1       2.164   7.992  -7.273  0.00  0.00    -0.217 OA
ENDROOT
BRANCH   1   3
ATOM      3  C   UNL     1       0.493   6.536  -6.463  0.00  0.00    +0.020 A 
ATOM      4  C   UNL     1      -0.365   5.699  -7.161  0.00  0.00    +0.056 A 
ATOM      5 CL   UNL     1      -0.008   5.431  -8.847  0.00  0.00    -0.082 Cl
ATOM      6  C   UNL     1      -1.634   5.394  -6.694  0.00  0.00    +0.011 A 
ATOM      7  C   UNL     1      -1.941   5.807  -5.407  0.00  0.00    +0.001 A 
ATOM      8  C   UNL     1      -1.191   6.798  -4.788  0.00  0.00    -0.000 A 
ATOM      9  C   UNL     1       0.134   6.908  -5.182  0.00  0.00    -0.001 A 
ENDBRANCH   1   3
BRANCH   1  10
ATOM     10  C   UNL     1       2.770   6.293  -5.712  0.00  0.00    +0.009 A 
ATOM     11  C   UNL     1       3.706   7.225  -5.296  0.00  0.00    -0.002 A 
ATOM     12  C   UNL     1       4.799   6.787  -4.558  0.00  0.00    -0.000 A 
ATOM     13  C   UNL     1       4.947   5.443  -4.330  0.00  0.00    -0.000 A 
ATOM     14  C   UNL     1       3.850   4.599  -4.441  0.00  0.00    -0.000 A 
ATOM     15  C   UNL     1       2.872   4.966  -5.349  0.00  0.00    -0.002 A 
ENDBRANCH   1  10
BRANCH   1  16
ATOM     16  C   UNL     1       2.223   5.708  -7.976  0.00  0.00    +0.056 C 
BRANCH  16  17
ATOM     17  C   UNL     1       3.353   6.242  -8.812  0.00  0.00    +0.075 C 
BRANCH  17  19
ATOM     18  C   UNL     1       5.359   5.248  -8.267  0.00  0.00    +0.090 C 
ATOM     19  N   UNL     1       4.248   5.143  -9.098  0.00  0.00    -0.270 NA
ATOM     20  C   UNL     1       3.485   3.923  -8.896  0.00  0.00    +0.090 C 
ENDBRANCH  17  19
ENDBRANCH  16  17
ENDBRANCH   1  16
TORSDOF 5
ENDMDL
MODEL 6
REMARK VINA RESULT:      -6.5      2.120      5.081
REMARK  Name = 
REMARK  5 active torsions:
REMARK  status: ('A' for Active; 'I' for Inactive)
REMARK    1  A    between atoms: N_2  and  C_4
REMARK    2  A    between atoms: C_4  and  C_5
REMARK    3  A    between atoms: C_5  and  C_6
REMARK    4  A    between atoms: C_6  and  C_8
REMARK    5  A    between atoms: C_6  and  C_14
REMARK                            x       y       z     vdW  Elec       q    Type
REMARK                         _______ _______ _______ _____ _____    ______ ____
ROOT
ATOM      1  C   UNL     1       1.293   5.489  -6.169  0.00  0.00    +0.166 C 
ATOM      2  O   UNL     1       1.190   4.120  -5.965  0.00  0.00    -0.217 OA
ENDROOT
BRANCH   1   3
ATOM      3  C   UNL     1       2.196   6.101  -5.168  0.00  0.00    +0.020 A 
ATOM      4  C   UNL     1       2.191   5.679  -3.847  0.00  0.00    +0.056 A 
ATOM      5 CL   UNL     1       0.700   5.008  -3.239  0.00  0.00    -0.082 Cl
ATOM      6  C   UNL     1       3.149   6.100  -2.939  0.00  0.00    +0.011 A 
ATOM      7  C   UNL     1       4.225   6.809  -3.450  0.00  0.00    +0.001 A 
ATOM      8  C   UNL     1       4.145   7.402  -4.703  0.00  0.00    -0.000 A 
ATOM      9  C   UNL     1       3.299   6.798  -5.621  0.00  0.00    -0.001 A 
ENDBRANCH   1   3
BRANCH   1  10
ATOM     10  C   UNL     1      -0.038   6.162  -6.069  0.00  0.00    +0.009 A 
ATOM     11  C   UNL     1      -0.078   7.339  -5.341  0.00  0.00    -0.002 A 
ATOM     12  C   UNL     1      -1.300   7.771  -4.840  0.00  0.00    -0.000 A 
ATOM     13  C   UNL     1      -2.407   6.984  -5.025  0.00  0.00    -0.000 A 
ATOM     14  C   UNL     1      -2.411   6.026  -6.031  0.00  0.00    -0.000 A 
ATOM     15  C   UNL     1      -1.191   5.461  -6.359  0.00  0.00    -0.002 A 
ENDBRANCH   1  10
BRANCH   1  16
ATOM     16  C   UNL     1       1.807   5.791  -7.560  0.00  0.00    +0.056 C 
BRANCH  16  17
ATOM     17  C   UNL     1       2.040   4.502  -8.299  0.00  0.00    +0.075 C 
BRANCH  17  19
ATOM     18  C   UNL     1       0.393   5.140  -9.776  0.00  0.00    +0.090 C 
ATOM     19  N   UNL     1       1.717   4.725  -9.690  0.00  0.00    -0.270 NA
ATOM     20  C   UNL     1       2.667   5.708 -10.184  0.00  0.00    +0.090 C 
ENDBRANCH  17  19
ENDBRANCH  16  17
ENDBRANCH   1  16
TORSDOF 5
ENDMDL
MODEL 7
REMARK VINA RESULT:      -6.5      1.780      5.226
REMARK  Name = 
REMARK  5 active torsions:
REMARK  status: ('A' for Active; 'I' for Inactive)
REMARK    1  A    between atoms: N_2  and  C_4
REMARK    2  A    between atoms: C_4  and  C_5
REMARK    3  A    between atoms: C_5  and  C_6
REMARK    4  A    between atoms: C_6  and  C_8
REMARK    5  A    between atoms: C_6  and  C_14
REMARK                            x       y       z     vdW  Elec       q    Type
REMARK                         _______ _______ _______ _____ _____    ______ ____
ROOT
ATOM      1  C   UNL     1       2.971   5.214  -6.698  0.00  0.00    +0.166 C 
ATOM      2  O   UNL     1       2.413   3.973  -6.423  0.00  0.00    -0.217 OA
ENDROOT
BRANCH   1   3
ATOM      3  C   UNL     1       3.786   5.160  -7.932  0.00  0.00    +0.020 A 
ATOM      4  C   UNL     1       3.191   5.194  -9.185  0.00  0.00    +0.056 A 
ATOM      5 CL   UNL     1       1.564   4.579  -9.303  0.00  0.00    -0.082 Cl
ATOM      6  C   UNL     1       3.934   5.334 -10.346  0.00  0.00    +0.011 A 
ATOM      7  C   UNL     1       5.280   5.630 -10.195  0.00  0.00    +0.001 A 
ATOM      8  C   UNL     1       5.918   5.402  -8.983  0.00  0.00    -0.000 A 
ATOM      9  C   UNL     1       5.129   5.471  -7.845  0.00  0.00    -0.001 A 
ENDBRANCH   1   3
BRANCH   1  10
ATOM     10  C   UNL     1       3.848   5.683  -5.580  0.00  0.00    +0.009 A 
ATOM     11  C   UNL     1       4.112   4.762  -4.581  0.00  0.00    -0.002 A 
ATOM     12  C   UNL     1       4.525   5.229  -3.339  0.00  0.00    -0.000 A 
ATOM     13  C   UNL     1       4.588   6.583  -3.128  0.00  0.00    -0.000 A 
ATOM     14  C   UNL     1       4.666   7.446  -4.213  0.00  0.00    -0.000 A 
ATOM     15  C   UNL     1       4.053   7.032  -5.383  0.00  0.00    -0.002 A 
ENDBRANCH   1  10
BRANCH   1  16
ATOM     16  C   UNL     1       1.896   6.268  -6.851  0.00  0.00    +0.056 C 
BRANCH  16  17
ATOM     17  C   UNL     1       0.643   5.810  -6.158  0.00  0.00    +0.075 C 
BRANCH  17  19
ATOM     18  C   UNL     1      -0.652   7.314  -4.990  0.00  0.00    +0.090 C 
ATOM     19  N   UNL     1       0.516   6.563  -4.930  0.00  0.00    -0.270 NA
ATOM     20  C   UNL     1       0.529   5.595  -3.846  0.00  0.00    +0.090 C 
ENDBRANCH  17  19
ENDBRANCH  16  17
ENDBRANCH   1  16
TORSDOF 5
ENDMDL
MODEL 8
REMARK VINA RESULT:      -6.4      3.413      5.283
REMARK  Name = 
REMARK  5 active torsions:
REMARK  status: ('A' for Active; 'I' for Inactive)
REMARK    1  A    between atoms: N_2  and  C_4
REMARK    2  A    between atoms: C_4  and  C_5
REMARK    3  A    between atoms: C_5  and  C_6
REMARK    4  A    between atoms: C_6  and  C_8
REMARK    5  A    between atoms: C_6  and  C_14
REMARK                            x       y       z     vdW  Elec       q    Type
REMARK                         _______ _______ _______ _____ _____    ______ ____
ROOT
ATOM      1  C   UNL     1       3.885   5.671  -9.619  0.00  0.00    +0.166 C 
ATOM      2  O   UNL     1       3.981   4.297  -9.452  0.00  0.00    -0.217 OA
ENDROOT
BRANCH   1   3
ATOM      3  C   UNL     1       2.709   6.016 -10.450  0.00  0.00    +0.020 A 
ATOM      4  C   UNL     1       2.548   5.483 -11.720  0.00  0.00    +0.056 A 
ATOM      5 CL   UNL     1       3.999   5.036 -12.578  0.00  0.00    -0.082 Cl
ATOM      6  C   UNL     1       1.373   5.639 -12.438  0.00  0.00    +0.011 A 
ATOM      7  C   UNL     1       0.296   6.188 -11.761  0.00  0.00    +0.001 A 
ATOM      8  C   UNL     1       0.493   6.899 -10.584  0.00  0.00    -0.000 A 
ATOM      9  C   UNL     1       1.597   6.544  -9.824  0.00  0.00    -0.001 A 
ENDBRANCH   1   3
BRANCH   1  10
ATOM     10  C   UNL     1       5.103   6.232 -10.281  0.00  0.00    +0.009 A 
ATOM     11  C   UNL     1       6.299   5.589 -10.010  0.00  0.00    -0.002 A 
ATOM     12  C   UNL     1       7.487   6.281 -10.211  0.00  0.00    -0.000 A 
ATOM     13  C   UNL     1       7.430   7.594 -10.601  0.00  0.00    -0.000 A 
ATOM     14  C   UNL     1       6.275   8.088 -11.193  0.00  0.00    -0.000 A 
ATOM     15  C   UNL     1       5.080   7.508 -10.805  0.00  0.00    -0.002 A 
ENDBRANCH   1  10
BRANCH   1  16
ATOM     16  C   UNL     1       3.779   6.373  -8.283  0.00  0.00    +0.056 C 
BRANCH  16  17
ATOM     17  C   UNL     1       4.068   5.393  -7.179  0.00  0.00    +0.075 C 
BRANCH  17  19
ATOM     18  C   UNL     1       2.538   6.839  -6.244  0.00  0.00    +0.090 C 
ATOM     19  N   UNL     1       3.040   5.544  -6.174  0.00  0.00    -0.270 NA
ATOM     20  C   UNL     1       2.045   4.520  -6.443  0.00  0.00    +0.090 C 
ENDBRANCH  17  19
ENDBRANCH  16  17
ENDBRANCH   1  16
TORSDOF 5
ENDMDL
MODEL 9
REMARK VINA RESULT:      -6.2      3.192      4.474
REMARK  Name = 
REMARK  5 active torsions:
REMARK  status: ('A' for Active; 'I' for Inactive)
REMARK    1  A    between atoms: N_2  and  C_4
REMARK    2  A    between atoms: C_4  and  C_5
REMARK    3  A    between atoms: C_5  and  C_6
REMARK    4  A    between atoms: C_6  and  C_8
REMARK    5  A    between atoms: C_6  and  C_14
REMARK                            x       y       z     vdW  Elec       q    Type
REMARK                         _______ _______ _______ _____ _____    ______ ____
ROOT
ATOM      1  C   UNL     1       1.691   5.354  -8.655  0.00  0.00    +0.166 C 
ATOM      2  O   UNL     1       2.311   4.112  -8.666  0.00  0.00    -0.217 OA
ENDROOT
BRANCH   1   3
ATOM      3  C   UNL     1       0.844   5.505  -7.451  0.00  0.00    +0.020 A 
ATOM      4  C   UNL     1       1.354   6.044  -6.279  0.00  0.00    +0.056 A 
ATOM      5 CL   UNL     1       3.066   5.855  -6.004  0.00  0.00    -0.082 Cl
ATOM      6  C   UNL     1       0.541   6.368  -5.205  0.00  0.00    +0.011 A 
ATOM      7  C   UNL     1      -0.828   6.310  -5.418  0.00  0.00    +0.001 A 
ATOM      8  C   UNL     1      -1.342   5.594  -6.491  0.00  0.00    -0.000 A 
ATOM      9  C   UNL     1      -0.528   5.481  -7.607  0.00  0.00    -0.001 A 
ENDBRANCH   1   3
BRANCH   1  10
ATOM     10  C   UNL     1       0.828   5.548  -9.860  0.00  0.00    +0.009 A 
ATOM     11  C   UNL     1       0.674   4.450 -10.689  0.00  0.00    -0.002 A 
ATOM     12  C   UNL     1       0.277   4.660 -12.004  0.00  0.00    -0.000 A 
ATOM     13  C   UNL     1       0.121   5.947 -12.451  0.00  0.00    -0.000 A 
ATOM     14  C   UNL     1      -0.065   6.976 -11.538  0.00  0.00    -0.000 A 
ATOM     15  C   UNL     1       0.529   6.822 -10.297  0.00  0.00    -0.002 A 
ENDBRANCH   1  10
BRANCH   1  16
ATOM     16  C   UNL     1       2.714   6.469  -8.693  0.00  0.00    +0.056 C 
BRANCH  16  17
ATOM     17  C   UNL     1       3.967   5.976  -9.361  0.00  0.00    +0.075 C 
BRANCH  17  19
ATOM     18  C   UNL     1       5.208   7.413 -10.665  0.00  0.00    +0.090 C 
ATOM     19  N   UNL     1       4.064   6.622 -10.651  0.00  0.00    -0.270 NA
ATOM     20  C   UNL     1       4.078   5.563 -11.646  0.00  0.00    +0.090 C 
ENDBRANCH  17  19
ENDBRANCH  16  17
ENDBRANCH   1  16
TORSDOF 5
ENDMDL
