MODEL 1
REMARK VINA RESULT:      -8.5      0.000      0.000
REMARK  Name = 
REMARK  9 active torsions:
REMARK  status: ('A' for Active; 'I' for Inactive)
REMARK    1  A    between atoms: O_2  and  C_3
REMARK    2  A    between atoms: C_8  and  O_9
REMARK    3  A    between atoms: O_9  and  C_10
REMARK    4  A    between atoms: C_10  and  C_11
REMARK    5  A    between atoms: C_11  and  C_13
REMARK    6  A    between atoms: C_13  and  N_14
REMARK    7  A    between atoms: N_17  and  C_18
REMARK    8  A    between atoms: C_18  and  C_19
REMARK    9  A    between atoms: N_21  and  C_22
REMARK                            x       y       z     vdW  Elec       q    Type
REMARK                         _______ _______ _______ _____ _____    ______ ____
ROOT
ATOM      1  N   UNL     1       1.778   5.921  -6.472  0.00  0.00    -0.268 NA
ATOM      2  C   UNL     1       2.868   6.780  -6.886  0.00  0.00    +0.090 C 
ATOM      3  C   UNL     1       3.933   5.797  -7.380  0.00  0.00    +0.090 C 
ATOM      4  N   UNL     1       3.462   5.511  -8.737  0.00  0.00    -0.263 NA
ATOM      5  C   UNL     1       2.125   5.004  -8.753  0.00  0.00    +0.090 C 
ATOM      6  C   UNL     1       1.381   4.995  -7.485  0.00  0.00    +0.090 C 
ENDROOT
BRANCH   4   7
ATOM      7  C   UNL     1       3.555   6.854  -9.317  0.00  0.00    +0.161 C 
BRANCH   7   8
ATOM      8  C   UNL     1       4.626   6.878 -10.322  0.00  0.00    +0.262 C 
ATOM      9  N   UNL     1       5.095   5.597 -10.703  0.00  0.00    -0.179 NA
ATOM     10  O   UNL     1       5.016   7.958 -10.805  0.00  0.00    -0.271 OA
BRANCH   9  11
ATOM     11  C   UNL     1       6.247   5.515 -11.507  0.00  0.00    +0.065 A 
ATOM     12  C   UNL     1       6.075   5.503 -12.867  0.00  0.00    -0.007 A 
ATOM     13  C   UNL     1       4.831   4.862 -13.384  0.00  0.00    +0.032 C 
ATOM     14  C   UNL     1       7.086   5.958 -13.673  0.00  0.00    -0.003 A 
ATOM     15  C   UNL     1       8.356   6.029 -13.116  0.00  0.00    -0.001 A 
ATOM     16  C   UNL     1       8.556   5.810 -11.757  0.00  0.00    -0.003 A 
ATOM     17  C   UNL     1       7.473   5.670 -10.894  0.00  0.00    -0.007 A 
ATOM     18  C   UNL     1       7.653   5.262  -9.464  0.00  0.00    +0.032 C 
ENDBRANCH   9  11
ENDBRANCH   7   8
ENDBRANCH   4   7
BRANCH   1  19
ATOM     19  C   UNL     1       2.050   5.271  -5.216  0.00  0.00    +0.109 C 
BRANCH  19  20
ATOM     20  C   UNL     1       2.217   6.482  -4.109  0.00  0.00    +0.211 C 
ATOM     21  O   UNL     1       3.557   5.951  -3.630  0.00  0.00    -0.218 OA
BRANCH  20  22
ATOM     22  C   UNL     1       1.383   5.637  -2.965  0.00  0.00    +0.240 C 
BRANCH  22  23
ATOM     23  O   UNL     1       0.169   5.282  -3.611  0.00  0.00    -0.470 OA
BRANCH  23  25
ATOM     24  C   UNL     1      -2.008   6.097  -4.115  0.00  0.00    +0.172 A 
ATOM     25  C   UNL     1      -0.926   6.074  -3.246  0.00  0.00    +0.172 A 
ATOM     26  C   UNL     1      -1.052   6.621  -1.977  0.00  0.00    +0.040 A 
ATOM     27  C   UNL     1      -2.268   6.921  -1.440  0.00  0.00    +0.003 A 
ATOM     28  C   UNL     1      -3.382   6.573  -2.196  0.00  0.00    +0.003 A 
ATOM     29  C   UNL     1      -3.250   6.374  -3.565  0.00  0.00    +0.040 A 
BRANCH  24  31
ATOM     30  C   UNL     1      -2.069   5.537  -6.287  0.00  0.00    +0.253 C 
ATOM     31  O   UNL     1      -1.803   5.708  -5.413  0.00  0.00    -0.468 OA
ENDBRANCH  24  31
ENDBRANCH  23  25
ENDBRANCH  22  23
ENDBRANCH  20  22
ENDBRANCH  19  20
ENDBRANCH   1  19
TORSDOF 9
ENDMDL
MODEL 2
REMARK VINA RESULT:      -8.3      2.050      3.367
REMARK  Name = 
REMARK  9 active torsions:
REMARK  status: ('A' for Active; 'I' for Inactive)
REMARK    1  A    between atoms: O_2  and  C_3
REMARK    2  A    between atoms: C_8  and  O_9
REMARK    3  A    between atoms: O_9  and  C_10
REMARK    4  A    between atoms: C_10  and  C_11
REMARK    5  A    between atoms: C_11  and  C_13
REMARK    6  A    between atoms: C_13  and  N_14
REMARK    7  A    between atoms: N_17  and  C_18
REMARK    8  A    between atoms: C_18  and  C_19
REMARK    9  A    between atoms: N_21  and  C_22
REMARK                            x       y       z     vdW  Elec       q    Type
REMARK                         _______ _______ _______ _____ _____    ______ ____
ROOT
ATOM      1  N   UNL     1       4.059   5.749  -3.359  0.00  0.00    -0.268 NA
ATOM      2  C   UNL     1       4.486   4.825  -4.388  0.00  0.00    +0.090 C 
ATOM      3  C   UNL     1       3.212   4.579  -5.201  0.00  0.00    +0.090 C 
ATOM      4  N   UNL     1       3.191   5.753  -6.075  0.00  0.00    -0.263 NA
ATOM      5  C   UNL     1       3.205   6.979  -5.339  0.00  0.00    +0.090 C 
ATOM      6  C   UNL     1       3.397   6.902  -3.884  0.00  0.00    +0.090 C 
ENDROOT
BRANCH   4   7
ATOM      7  C   UNL     1       4.438   5.534  -6.813  0.00  0.00    +0.161 C 
BRANCH   7   8
ATOM      8  C   UNL     1       4.136   5.353  -8.239  0.00  0.00    +0.262 C 
ATOM      9  N   UNL     1       3.903   6.561  -8.942  0.00  0.00    -0.179 NA
ATOM     10  O   UNL     1       4.147   4.217  -8.749  0.00  0.00    -0.271 OA
BRANCH   9  11
ATOM     11  C   UNL     1       3.414   6.489 -10.259  0.00  0.00    +0.065 A 
ATOM     12  C   UNL     1       4.330   6.472 -11.279  0.00  0.00    -0.007 A 
ATOM     13  C   UNL     1       5.599   7.226 -11.059  0.00  0.00    +0.032 C 
ATOM     14  C   UNL     1       3.996   5.881 -12.469  0.00  0.00    -0.003 A 
ATOM     15  C   UNL     1       2.643   5.691 -12.723  0.00  0.00    -0.001 A 
ATOM     16  C   UNL     1       1.689   5.936 -11.741  0.00  0.00    -0.003 A 
ATOM     17  C   UNL     1       2.072   6.223 -10.435  0.00  0.00    -0.007 A 
ATOM     18  C   UNL     1       1.080   6.660  -9.401  0.00  0.00    +0.032 C 
ENDBRANCH   9  11
ENDBRANCH   7   8
ENDBRANCH   4   7
BRANCH   1  19
ATOM     19  C   UNL     1       3.288   5.098  -2.332  0.00  0.00    +0.109 C 
BRANCH  19  20
ATOM     20  C   UNL     1       2.295   6.259  -1.710  0.00  0.00    +0.211 C 
ATOM     21  O   UNL     1       2.844   6.072  -0.306  0.00  0.00    -0.218 OA
BRANCH  20  22
ATOM     22  C   UNL     1       1.077   5.175  -1.464  0.00  0.00    +0.240 C 
BRANCH  22  23
ATOM     23  O   UNL     1       0.452   5.060  -2.734  0.00  0.00    -0.470 OA
BRANCH  23  25
ATOM     24  C   UNL     1      -1.344   5.802  -4.104  0.00  0.00    +0.172 A 
ATOM     25  C   UNL     1      -0.723   5.809  -2.863  0.00  0.00    +0.172 A 
ATOM     26  C   UNL     1      -1.385   6.340  -1.765  0.00  0.00    +0.040 A 
ATOM     27  C   UNL     1      -2.725   6.592  -1.786  0.00  0.00    +0.003 A 
ATOM     28  C   UNL     1      -3.410   6.213  -2.935  0.00  0.00    +0.003 A 
ATOM     29  C   UNL     1      -2.712   6.031  -4.124  0.00  0.00    +0.040 A 
BRANCH  24  31
ATOM     30  C   UNL     1      -0.456   5.316  -6.107  0.00  0.00    +0.253 C 
ATOM     31  O   UNL     1      -0.604   5.433  -5.197  0.00  0.00    -0.468 OA
ENDBRANCH  24  31
ENDBRANCH  23  25
ENDBRANCH  22  23
ENDBRANCH  20  22
ENDBRANCH  19  20
ENDBRANCH   1  19
TORSDOF 9
ENDMDL
MODEL 3
REMARK VINA RESULT:      -8.2      1.086      1.839
REMARK  Name = 
REMARK  9 active torsions:
REMARK  status: ('A' for Active; 'I' for Inactive)
REMARK    1  A    between atoms: O_2  and  C_3
REMARK    2  A    between atoms: C_8  and  O_9
REMARK    3  A    between atoms: O_9  and  C_10
REMARK    4  A    between atoms: C_10  and  C_11
REMARK    5  A    between atoms: C_11  and  C_13
REMARK    6  A    between atoms: C_13  and  N_14
REMARK    7  A    between atoms: N_17  and  C_18
REMARK    8  A    between atoms: C_18  and  C_19
REMARK    9  A    between atoms: N_21  and  C_22
REMARK                            x       y       z     vdW  Elec       q    Type
REMARK                         _______ _______ _______ _____ _____    ______ ____
ROOT
ATOM      1  N   UNL     1       2.623   5.525  -5.854  0.00  0.00    -0.268 NA
ATOM      2  C   UNL     1       3.442   6.498  -6.547  0.00  0.00    +0.090 C 
ATOM      3  C   UNL     1       4.555   5.650  -7.172  0.00  0.00    +0.090 C 
ATOM      4  N   UNL     1       3.897   5.143  -8.377  0.00  0.00    -0.263 NA
ATOM      5  C   UNL     1       2.695   4.428  -8.080  0.00  0.00    +0.090 C 
ATOM      6  C   UNL     1       2.217   4.440  -6.690  0.00  0.00    +0.090 C 
ENDROOT
BRANCH   4   7
ATOM      7  C   UNL     1       3.635   6.410  -9.065  0.00  0.00    +0.161 C 
BRANCH   7   8
ATOM      8  C   UNL     1       4.611   6.587 -10.150  0.00  0.00    +0.262 C 
ATOM      9  N   UNL     1       5.133   5.376 -10.666  0.00  0.00    -0.179 NA
ATOM     10  O   UNL     1       4.882   7.725 -10.577  0.00  0.00    -0.271 OA
BRANCH   9  11
ATOM     11  C   UNL     1       6.214   5.438 -11.565  0.00  0.00    +0.065 A 
ATOM     12  C   UNL     1       5.926   5.512 -12.903  0.00  0.00    -0.007 A 
ATOM     13  C   UNL     1       4.687   4.820 -13.366  0.00  0.00    +0.032 C 
ATOM     14  C   UNL     1       6.829   6.099 -13.750  0.00  0.00    -0.003 A 
ATOM     15  C   UNL     1       8.135   6.224 -13.293  0.00  0.00    -0.001 A 
ATOM     16  C   UNL     1       8.466   5.921 -11.977  0.00  0.00    -0.003 A 
ATOM     17  C   UNL     1       7.475   5.639 -11.043  0.00  0.00    -0.007 A 
ATOM     18  C   UNL     1       7.805   5.142  -9.669  0.00  0.00    +0.032 C 
ENDBRANCH   9  11
ENDBRANCH   7   8
ENDBRANCH   4   7
BRANCH   1  19
ATOM     19  C   UNL     1       3.239   5.071  -4.634  0.00  0.00    +0.109 C 
BRANCH  19  20
ATOM     20  C   UNL     1       2.797   6.159  -3.475  0.00  0.00    +0.211 C 
ATOM     21  O   UNL     1       3.663   5.491  -2.421  0.00  0.00    -0.218 OA
BRANCH  20  22
ATOM     22  C   UNL     1       1.469   5.273  -3.060  0.00  0.00    +0.240 C 
BRANCH  22  23
ATOM     23  O   UNL     1       0.509   6.246  -2.672  0.00  0.00    -0.470 OA
BRANCH  23  25
ATOM     24  C   UNL     1      -1.724   7.004  -2.976  0.00  0.00    +0.172 A 
ATOM     25  C   UNL     1      -0.678   6.204  -3.413  0.00  0.00    +0.172 A 
ATOM     26  C   UNL     1      -0.751   5.595  -4.658  0.00  0.00    +0.040 A 
ATOM     27  C   UNL     1      -1.670   5.974  -5.591  0.00  0.00    +0.003 A 
ATOM     28  C   UNL     1      -2.475   7.058  -5.264  0.00  0.00    +0.003 A 
ATOM     29  C   UNL     1      -2.643   7.413  -3.930  0.00  0.00    +0.040 A 
BRANCH  24  31
ATOM     30  C   UNL     1      -1.984   7.463  -0.795  0.00  0.00    +0.253 C 
ATOM     31  O   UNL     1      -1.701   7.449  -1.680  0.00  0.00    -0.468 OA
ENDBRANCH  24  31
ENDBRANCH  23  25
ENDBRANCH  22  23
ENDBRANCH  20  22
ENDBRANCH  19  20
ENDBRANCH   1  19
TORSDOF 9
ENDMDL
MODEL 4
REMARK VINA RESULT:      -7.9      1.711     10.213
REMARK  Name = 
REMARK  9 active torsions:
REMARK  status: ('A' for Active; 'I' for Inactive)
REMARK    1  A    between atoms: O_2  and  C_3
REMARK    2  A    between atoms: C_8  and  O_9
REMARK    3  A    between atoms: O_9  and  C_10
REMARK    4  A    between atoms: C_10  and  C_11
REMARK    5  A    between atoms: C_11  and  C_13
REMARK    6  A    between atoms: C_13  and  N_14
REMARK    7  A    between atoms: N_17  and  C_18
REMARK    8  A    between atoms: C_18  and  C_19
REMARK    9  A    between atoms: N_21  and  C_22
REMARK                            x       y       z     vdW  Elec       q    Type
REMARK                         _______ _______ _______ _____ _____    ______ ____
ROOT
ATOM      1  N   UNL     1       2.640   5.489  -9.457  0.00  0.00    -0.268 NA
ATOM      2  C   UNL     1       1.987   6.547  -8.714  0.00  0.00    +0.090 C 
ATOM      3  C   UNL     1       0.648   5.926  -8.307  0.00  0.00    +0.090 C 
ATOM      4  N   UNL     1       1.031   5.148  -7.127  0.00  0.00    -0.263 NA
ATOM      5  C   UNL     1       2.067   4.205  -7.410  0.00  0.00    +0.090 C 
ATOM      6  C   UNL     1       2.693   4.254  -8.740  0.00  0.00    +0.090 C 
ENDROOT
BRANCH   4   7
ATOM      7  C   UNL     1       1.490   6.234  -6.256  0.00  0.00    +0.161 C 
BRANCH   7   8
ATOM      8  C   UNL     1       0.441   6.552  -5.278  0.00  0.00    +0.262 C 
ATOM      9  N   UNL     1      -0.007   5.440  -4.524  0.00  0.00    -0.179 NA
ATOM     10  O   UNL     1       0.051   7.725  -5.128  0.00  0.00    -0.271 OA
BRANCH   9  11
ATOM     11  C   UNL     1      -1.141   5.596  -3.705  0.00  0.00    +0.065 A 
ATOM     12  C   UNL     1      -0.937   5.760  -2.359  0.00  0.00    -0.007 A 
ATOM     13  C   UNL     1       0.248   5.072  -1.767  0.00  0.00    +0.032 C 
ATOM     14  C   UNL     1      -1.873   6.431  -1.617  0.00  0.00    -0.003 A 
ATOM     15  C   UNL     1      -3.144   6.556  -2.166  0.00  0.00    -0.001 A 
ATOM     16  C   UNL     1      -3.399   6.166  -3.476  0.00  0.00    -0.003 A 
ATOM     17  C   UNL     1      -2.360   5.790  -4.321  0.00  0.00    -0.007 A 
ATOM     18  C   UNL     1      -2.617   5.203  -5.674  0.00  0.00    +0.032 C 
ENDBRANCH   9  11
ENDBRANCH   7   8
ENDBRANCH   4   7
BRANCH   1  19
ATOM     19  C   UNL     1       2.083   5.331 -10.775  0.00  0.00    +0.109 C 
BRANCH  19  20
ATOM     20  C   UNL     1       2.722   6.551 -11.683  0.00  0.00    +0.211 C 
ATOM     21  O   UNL     1       1.557   6.526 -12.658  0.00  0.00    -0.218 OA
BRANCH  20  22
ATOM     22  C   UNL     1       3.607   5.497 -12.591  0.00  0.00    +0.240 C 
BRANCH  22  23
ATOM     23  O   UNL     1       4.669   5.105 -11.731  0.00  0.00    -0.470 OA
BRANCH  23  25
ATOM     24  C   UNL     1       6.777   5.880 -10.952  0.00  0.00    +0.172 A 
ATOM     25  C   UNL     1       5.889   5.733 -12.007  0.00  0.00    +0.172 A 
ATOM     26  C   UNL     1       6.315   5.983 -13.304  0.00  0.00    +0.040 A 
ATOM     27  C   UNL     1       7.637   6.088 -13.620  0.00  0.00    +0.003 A 
ATOM     28  C   UNL     1       8.540   5.848 -12.591  0.00  0.00    +0.003 A 
ATOM     29  C   UNL     1       8.124   5.959 -11.270  0.00  0.00    +0.040 A 
BRANCH  24  31
ATOM     30  C   UNL     1       6.197   5.405  -8.836  0.00  0.00    +0.253 C 
ATOM     31  O   UNL     1       6.285   5.796  -9.675  0.00  0.00    -0.468 OA
ENDBRANCH  24  31
ENDBRANCH  23  25
ENDBRANCH  22  23
ENDBRANCH  20  22
ENDBRANCH  19  20
ENDBRANCH   1  19
TORSDOF 9
ENDMDL
MODEL 5
REMARK VINA RESULT:      -7.9      2.333      4.141
REMARK  Name = 
REMARK  9 active torsions:
REMARK  status: ('A' for Active; 'I' for Inactive)
REMARK    1  A    between atoms: O_2  and  C_3
REMARK    2  A    between atoms: C_8  and  O_9
REMARK    3  A    between atoms: O_9  and  C_10
REMARK    4  A    between atoms: C_10  and  C_11
REMARK    5  A    between atoms: C_11  and  C_13
REMARK    6  A    between atoms: C_13  and  N_14
REMARK    7  A    between atoms: N_17  and  C_18
REMARK    8  A    between atoms: C_18  and  C_19
REMARK    9  A    between atoms: N_21  and  C_22
REMARK                            x       y       z     vdW  Elec       q    Type
REMARK                         _______ _______ _______ _____ _____    ______ ____
ROOT
ATOM      1  N   UNL     1       4.454   5.484  -3.512  0.00  0.00    -0.268 NA
ATOM      2  C   UNL     1       4.427   4.608  -4.664  0.00  0.00    +0.090 C 
ATOM      3  C   UNL     1       3.049   4.867  -5.280  0.00  0.00    +0.090 C 
ATOM      4  N   UNL     1       3.294   6.090  -6.046  0.00  0.00    -0.263 NA
ATOM      5  C   UNL     1       3.794   7.151  -5.229  0.00  0.00    +0.090 C 
ATOM      6  C   UNL     1       4.135   6.839  -3.833  0.00  0.00    +0.090 C 
ENDROOT
BRANCH   4   7
ATOM      7  C   UNL     1       4.301   5.592  -6.988  0.00  0.00    +0.161 C 
BRANCH   7   8
ATOM      8  C   UNL     1       3.657   5.287  -8.273  0.00  0.00    +0.262 C 
ATOM      9  N   UNL     1       3.210   6.427  -8.985  0.00  0.00    -0.179 NA
ATOM     10  O   UNL     1       3.582   4.112  -8.679  0.00  0.00    -0.271 OA
BRANCH   9  11
ATOM     11  C   UNL     1       2.409   6.235 -10.126  0.00  0.00    +0.065 A 
ATOM     12  C   UNL     1       1.049   6.268  -9.962  0.00  0.00    -0.007 A 
ATOM     13  C   UNL     1       0.514   5.777  -8.658  0.00  0.00    +0.032 C 
ATOM     14  C   UNL     1       0.256   6.626 -11.021  0.00  0.00    -0.003 A 
ATOM     15  C   UNL     1       0.820   6.548 -12.288  0.00  0.00    -0.001 A 
ATOM     16  C   UNL     1       2.174   6.281 -12.454  0.00  0.00    -0.003 A 
ATOM     17  C   UNL     1       3.030   6.243 -11.358  0.00  0.00    -0.007 A 
ATOM     18  C   UNL     1       4.452   5.789 -11.483  0.00  0.00    +0.032 C 
ENDBRANCH   9  11
ENDBRANCH   7   8
ENDBRANCH   4   7
BRANCH   1  19
ATOM     19  C   UNL     1       3.651   4.978  -2.429  0.00  0.00    +0.109 C 
BRANCH  19  20
ATOM     20  C   UNL     1       2.852   6.283  -1.813  0.00  0.00    +0.211 C 
ATOM     21  O   UNL     1       2.820   5.689  -0.415  0.00  0.00    -0.218 OA
BRANCH  20  22
ATOM     22  C   UNL     1       1.382   5.646  -2.203  0.00  0.00    +0.240 C 
BRANCH  22  23
ATOM     23  O   UNL     1       0.759   6.659  -2.981  0.00  0.00    -0.470 OA
BRANCH  23  25
ATOM     24  C   UNL     1      -1.613   6.776  -3.102  0.00  0.00    +0.172 A 
ATOM     25  C   UNL     1      -0.428   6.254  -3.602  0.00  0.00    +0.172 A 
ATOM     26  C   UNL     1      -0.434   5.565  -4.807  0.00  0.00    +0.040 A 
ATOM     27  C   UNL     1      -1.493   5.623  -5.663  0.00  0.00    +0.003 A 
ATOM     28  C   UNL     1      -2.533   6.475  -5.307  0.00  0.00    +0.003 A 
ATOM     29  C   UNL     1      -2.682   6.861  -3.980  0.00  0.00    +0.040 A 
BRANCH  24  31
ATOM     30  C   UNL     1      -1.951   7.427  -0.981  0.00  0.00    +0.253 C 
ATOM     31  O   UNL     1      -1.606   7.297  -1.835  0.00  0.00    -0.468 OA
ENDBRANCH  24  31
ENDBRANCH  23  25
ENDBRANCH  22  23
ENDBRANCH  20  22
ENDBRANCH  19  20
ENDBRANCH   1  19
TORSDOF 9
ENDMDL
MODEL 6
REMARK VINA RESULT:      -7.9      2.164      9.368
REMARK  Name = 
REMARK  9 active torsions:
REMARK  status: ('A' for Active; 'I' for Inactive)
REMARK    1  A    between atoms: O_2  and  C_3
REMARK    2  A    between atoms: C_8  and  O_9
REMARK    3  A    between atoms: O_9  and  C_10
REMARK    4  A    between atoms: C_10  and  C_11
REMARK    5  A    between atoms: C_11  and  C_13
REMARK    6  A    between atoms: C_13  and  N_14
REMARK    7  A    between atoms: N_17  and  C_18
REMARK    8  A    between atoms: C_18  and  C_19
REMARK    9  A    between atoms: N_21  and  C_22
REMARK                            x       y       z     vdW  Elec       q    Type
REMARK                         _______ _______ _______ _____ _____    ______ ____
ROOT
ATOM      1  N   UNL     1       0.490   5.486 -11.549  0.00  0.00    -0.268 NA
ATOM      2  C   UNL     1       0.284   4.540 -10.472  0.00  0.00    +0.090 C 
ATOM      3  C   UNL     1       1.632   4.524  -9.745  0.00  0.00    +0.090 C 
ATOM      4  N   UNL     1       1.525   5.714  -8.901  0.00  0.00    -0.263 NA
ATOM      5  C   UNL     1       1.268   6.898  -9.660  0.00  0.00    +0.090 C 
ATOM      6  C   UNL     1       0.996   6.745 -11.097  0.00  0.00    +0.090 C 
ENDROOT
BRANCH   4   7
ATOM      7  C   UNL     1       0.379   5.326  -8.073  0.00  0.00    +0.161 C 
BRANCH   7   8
ATOM      8  C   UNL     1       0.819   5.156  -6.681  0.00  0.00    +0.262 C 
ATOM      9  N   UNL     1       0.870   6.360  -5.936  0.00  0.00    -0.179 NA
ATOM     10  O   UNL     1       1.065   4.022  -6.230  0.00  0.00    -0.271 OA
BRANCH   9  11
ATOM     11  C   UNL     1       1.463   6.336  -4.660  0.00  0.00    +0.065 A 
ATOM     12  C   UNL     1       0.655   6.063  -3.587  0.00  0.00    -0.007 A 
ATOM     13  C   UNL     1      -0.763   6.520  -3.676  0.00  0.00    +0.032 C 
ATOM     14  C   UNL     1       1.203   5.506  -2.461  0.00  0.00    -0.003 A 
ATOM     15  C   UNL     1       2.580   5.615  -2.308  0.00  0.00    -0.001 A 
ATOM     16  C   UNL     1       3.377   6.116  -3.332  0.00  0.00    -0.003 A 
ATOM     17  C   UNL     1       2.840   6.373  -4.589  0.00  0.00    -0.007 A 
ATOM     18  C   UNL     1       3.627   7.072  -5.655  0.00  0.00    +0.032 C 
ENDBRANCH   9  11
ENDBRANCH   7   8
ENDBRANCH   4   7
BRANCH   1  19
ATOM     19  C   UNL     1       1.286   4.931 -12.613  0.00  0.00    +0.109 C 
BRANCH  19  20
ATOM     20  C   UNL     1       2.095   6.203 -13.281  0.00  0.00    +0.211 C 
ATOM     21  O   UNL     1       1.635   5.847 -14.684  0.00  0.00    -0.218 OA
BRANCH  20  22
ATOM     22  C   UNL     1       3.483   5.325 -13.427  0.00  0.00    +0.240 C 
BRANCH  22  23
ATOM     23  O   UNL     1       4.095   5.426 -12.149  0.00  0.00    -0.470 OA
BRANCH  23  25
ATOM     24  C   UNL     1       6.175   5.690 -11.027  0.00  0.00    +0.172 A 
ATOM     25  C   UNL     1       5.428   5.852 -12.185  0.00  0.00    +0.172 A 
ATOM     26  C   UNL     1       6.062   6.194 -13.371  0.00  0.00    +0.040 A 
ATOM     27  C   UNL     1       7.414   6.096 -13.518  0.00  0.00    +0.003 A 
ATOM     28  C   UNL     1       8.117   5.558 -12.446  0.00  0.00    +0.003 A 
ATOM     29  C   UNL     1       7.548   5.563 -11.177  0.00  0.00    +0.040 A 
BRANCH  24  31
ATOM     30  C   UNL     1       5.448   5.436  -8.919  0.00  0.00    +0.253 C 
ATOM     31  O   UNL     1       5.505   5.524  -9.843  0.00  0.00    -0.468 OA
ENDBRANCH  24  31
ENDBRANCH  23  25
ENDBRANCH  22  23
ENDBRANCH  20  22
ENDBRANCH  19  20
ENDBRANCH   1  19
TORSDOF 9
ENDMDL
MODEL 7
REMARK VINA RESULT:      -7.8      2.616      9.391
REMARK  Name = 
REMARK  9 active torsions:
REMARK  status: ('A' for Active; 'I' for Inactive)
REMARK    1  A    between atoms: O_2  and  C_3
REMARK    2  A    between atoms: C_8  and  O_9
REMARK    3  A    between atoms: O_9  and  C_10
REMARK    4  A    between atoms: C_10  and  C_11
REMARK    5  A    between atoms: C_11  and  C_13
REMARK    6  A    between atoms: C_13  and  N_14
REMARK    7  A    between atoms: N_17  and  C_18
REMARK    8  A    between atoms: C_18  and  C_19
REMARK    9  A    between atoms: N_21  and  C_22
REMARK                            x       y       z     vdW  Elec       q    Type
REMARK                         _______ _______ _______ _____ _____    ______ ____
ROOT
ATOM      1  N   UNL     1       3.962   5.934  -8.657  0.00  0.00    -0.268 NA
ATOM      2  C   UNL     1       3.176   6.763  -7.768  0.00  0.00    +0.090 C 
ATOM      3  C   UNL     1       1.731   6.435  -8.154  0.00  0.00    +0.090 C 
ATOM      4  N   UNL     1       1.504   5.193  -7.415  0.00  0.00    -0.263 NA
ATOM      5  C   UNL     1       2.457   4.180  -7.749  0.00  0.00    +0.090 C 
ATOM      6  C   UNL     1       3.580   4.557  -8.620  0.00  0.00    +0.090 C 
ENDROOT
BRANCH   4   7
ATOM      7  C   UNL     1       1.673   5.686  -6.046  0.00  0.00    +0.161 C 
BRANCH   7   8
ATOM      8  C   UNL     1       0.369   5.703  -5.369  0.00  0.00    +0.262 C 
ATOM      9  N   UNL     1       0.306   6.568  -4.250  0.00  0.00    -0.179 NA
ATOM     10  O   UNL     1      -0.583   5.035  -5.814  0.00  0.00    -0.271 OA
BRANCH   9  11
ATOM     11  C   UNL     1      -0.828   6.510  -3.418  0.00  0.00    +0.065 A 
ATOM     12  C   UNL     1      -1.945   7.200  -3.815  0.00  0.00    -0.007 A 
ATOM     13  C   UNL     1      -1.723   8.458  -4.586  0.00  0.00    +0.032 C 
ATOM     14  C   UNL     1      -3.178   6.777  -3.392  0.00  0.00    -0.003 A 
ATOM     15  C   UNL     1      -3.213   5.940  -2.284  0.00  0.00    -0.001 A 
ATOM     16  C   UNL     1      -2.043   5.423  -1.739  0.00  0.00    -0.003 A 
ATOM     17  C   UNL     1      -0.821   5.601  -2.381  0.00  0.00    -0.007 A 
ATOM     18  C   UNL     1       0.472   5.210  -1.737  0.00  0.00    +0.032 C 
ENDBRANCH   9  11
ENDBRANCH   7   8
ENDBRANCH   4   7
BRANCH   1  19
ATOM     19  C   UNL     1       3.990   6.454  -9.999  0.00  0.00    +0.109 C 
BRANCH  19  20
ATOM     20  C   UNL     1       4.562   5.230 -10.945  0.00  0.00    +0.211 C 
ATOM     21  O   UNL     1       5.960   5.823 -10.985  0.00  0.00    -0.218 OA
BRANCH  20  22
ATOM     22  C   UNL     1       4.109   6.004 -12.329  0.00  0.00    +0.240 C 
BRANCH  22  23
ATOM     23  O   UNL     1       3.085   5.180 -12.869  0.00  0.00    -0.470 OA
BRANCH  23  25
ATOM     24  C   UNL     1       0.913   6.048 -12.442  0.00  0.00    +0.172 A 
ATOM     25  C   UNL     1       1.968   5.886 -13.330  0.00  0.00    +0.172 A 
ATOM     26  C   UNL     1       1.985   6.605 -14.516  0.00  0.00    +0.040 A 
ATOM     27  C   UNL     1       1.165   7.675 -14.721  0.00  0.00    +0.003 A 
ATOM     28  C   UNL     1       0.369   8.060 -13.648  0.00  0.00    +0.003 A 
ATOM     29  C   UNL     1       0.095   7.151 -12.633  0.00  0.00    +0.040 A 
BRANCH  24  31
ATOM     30  C   UNL     1       0.437   4.541 -10.849  0.00  0.00    +0.253 C 
ATOM     31  O   UNL     1       0.836   5.201 -11.367  0.00  0.00    -0.468 OA
ENDBRANCH  24  31
ENDBRANCH  23  25
ENDBRANCH  22  23
ENDBRANCH  20  22
ENDBRANCH  19  20
ENDBRANCH   1  19
TORSDOF 9
ENDMDL
MODEL 8
REMARK VINA RESULT:      -7.8      1.775      9.886
REMARK  Name = 
REMARK  9 active torsions:
REMARK  status: ('A' for Active; 'I' for Inactive)
REMARK    1  A    between atoms: O_2  and  C_3
REMARK    2  A    between atoms: C_8  and  O_9
REMARK    3  A    between atoms: O_9  and  C_10
REMARK    4  A    between atoms: C_10  and  C_11
REMARK    5  A    between atoms: C_11  and  C_13
REMARK    6  A    between atoms: C_13  and  N_14
REMARK    7  A    between atoms: N_17  and  C_18
REMARK    8  A    between atoms: C_18  and  C_19
REMARK    9  A    between atoms: N_21  and  C_22
REMARK                            x       y       z     vdW  Elec       q    Type
REMARK                         _______ _______ _______ _____ _____    ______ ____
ROOT
ATOM      1  N   UNL     1       2.346   4.978  -9.017  0.00  0.00    -0.268 NA
ATOM      2  C   UNL     1       2.020   6.070  -8.124  0.00  0.00    +0.090 C 
ATOM      3  C   UNL     1       0.813   5.545  -7.341  0.00  0.00    +0.090 C 
ATOM      4  N   UNL     1       1.461   4.723  -6.318  0.00  0.00    -0.263 NA
ATOM      5  C   UNL     1       2.295   3.709  -6.883  0.00  0.00    +0.090 C 
ATOM      6  C   UNL     1       2.510   3.731  -8.338  0.00  0.00    +0.090 C 
ENDROOT
BRANCH   4   7
ATOM      7  C   UNL     1       2.236   5.757  -5.626  0.00  0.00    +0.161 C 
BRANCH   7   8
ATOM      8  C   UNL     1       1.486   6.224  -4.451  0.00  0.00    +0.262 C 
ATOM      9  N   UNL     1       0.362   5.426  -4.124  0.00  0.00    -0.179 NA
ATOM     10  O   UNL     1       1.878   7.212  -3.803  0.00  0.00    -0.271 OA
BRANCH   9  11
ATOM     11  C   UNL     1      -0.532   5.895  -3.144  0.00  0.00    +0.065 A 
ATOM     12  C   UNL     1      -0.141   5.810  -1.832  0.00  0.00    -0.007 A 
ATOM     13  C   UNL     1       0.742   4.664  -1.464  0.00  0.00    +0.032 C 
ATOM     14  C   UNL     1      -0.665   6.687  -0.920  0.00  0.00    -0.003 A 
ATOM     15  C   UNL     1      -1.839   7.341  -1.273  0.00  0.00    -0.001 A 
ATOM     16  C   UNL     1      -2.360   7.234  -2.558  0.00  0.00    -0.003 A 
ATOM     17  C   UNL     1      -1.639   6.601  -3.566  0.00  0.00    -0.007 A 
ATOM     18  C   UNL     1      -2.242   6.318  -4.907  0.00  0.00    +0.032 C 
ENDBRANCH   9  11
ENDBRANCH   7   8
ENDBRANCH   4   7
BRANCH   1  19
ATOM     19  C   UNL     1       1.420   4.882 -10.115  0.00  0.00    +0.109 C 
BRANCH  19  20
ATOM     20  C   UNL     1       1.667   6.233 -11.030  0.00  0.00    +0.211 C 
ATOM     21  O   UNL     1       0.794   5.710 -12.158  0.00  0.00    -0.218 OA
BRANCH  20  22
ATOM     22  C   UNL     1       3.039   5.607 -11.696  0.00  0.00    +0.240 C 
BRANCH  22  23
ATOM     23  O   UNL     1       3.988   6.660 -11.591  0.00  0.00    -0.470 OA
BRANCH  23  25
ATOM     24  C   UNL     1       6.278   6.454 -12.197  0.00  0.00    +0.172 A 
ATOM     25  C   UNL     1       5.279   6.235 -11.259  0.00  0.00    +0.172 A 
ATOM     26  C   UNL     1       5.618   5.838  -9.973  0.00  0.00    +0.040 A 
ATOM     27  C   UNL     1       6.896   5.930  -9.506  0.00  0.00    +0.003 A 
ATOM     28  C   UNL     1       7.826   6.520 -10.354  0.00  0.00    +0.003 A 
ATOM     29  C   UNL     1       7.574   6.575 -11.720  0.00  0.00    +0.040 A 
BRANCH  24  31
ATOM     30  C   UNL     1       5.681   6.411 -14.360  0.00  0.00    +0.253 C 
ATOM     31  O   UNL     1       5.906   6.675 -13.498  0.00  0.00    -0.468 OA
ENDBRANCH  24  31
ENDBRANCH  23  25
ENDBRANCH  22  23
ENDBRANCH  20  22
ENDBRANCH  19  20
ENDBRANCH   1  19
TORSDOF 9
ENDMDL
MODEL 9
REMARK VINA RESULT:      -7.7      1.720     10.141
REMARK  Name = 
REMARK  9 active torsions:
REMARK  status: ('A' for Active; 'I' for Inactive)
REMARK    1  A    between atoms: O_2  and  C_3
REMARK    2  A    between atoms: C_8  and  O_9
REMARK    3  A    between atoms: O_9  and  C_10
REMARK    4  A    between atoms: C_10  and  C_11
REMARK    5  A    between atoms: C_11  and  C_13
REMARK    6  A    between atoms: C_13  and  N_14
REMARK    7  A    between atoms: N_17  and  C_18
REMARK    8  A    between atoms: C_18  and  C_19
REMARK    9  A    between atoms: N_21  and  C_22
REMARK                            x       y       z     vdW  Elec       q    Type
REMARK                         _______ _______ _______ _____ _____    ______ ____
ROOT
ATOM      1  N   UNL     1       1.850   5.264  -9.092  0.00  0.00    -0.268 NA
ATOM      2  C   UNL     1       2.248   4.393  -8.006  0.00  0.00    +0.090 C 
ATOM      3  C   UNL     1       3.349   5.187  -7.296  0.00  0.00    +0.090 C 
ATOM      4  N   UNL     1       2.564   6.095  -6.459  0.00  0.00    -0.263 NA
ATOM      5  C   UNL     1       1.653   6.888  -7.225  0.00  0.00    +0.090 C 
ATOM      6  C   UNL     1       1.516   6.584  -8.657  0.00  0.00    +0.090 C 
ENDROOT
BRANCH   4   7
ATOM      7  C   UNL     1       1.873   5.117  -5.614  0.00  0.00    +0.161 C 
BRANCH   7   8
ATOM      8  C   UNL     1       1.325   5.795  -4.431  0.00  0.00    +0.262 C 
ATOM      9  N   UNL     1       0.074   5.291  -4.000  0.00  0.00    -0.179 NA
ATOM     10  O   UNL     1       1.970   6.696  -3.863  0.00  0.00    -0.271 OA
BRANCH   9  11
ATOM     11  C   UNL     1      -0.627   5.995  -3.003  0.00  0.00    +0.065 A 
ATOM     12  C   UNL     1      -1.570   6.904  -3.409  0.00  0.00    -0.007 A 
ATOM     13  C   UNL     1      -1.315   7.611  -4.698  0.00  0.00    +0.032 C 
ATOM     14  C   UNL     1      -2.615   7.202  -2.573  0.00  0.00    -0.003 A 
ATOM     15  C   UNL     1      -2.459   6.887  -1.229  0.00  0.00    -0.001 A 
ATOM     16  C   UNL     1      -1.364   6.152  -0.787  0.00  0.00    -0.003 A 
ATOM     17  C   UNL     1      -0.481   5.578  -1.696  0.00  0.00    -0.007 A 
ATOM     18  C   UNL     1       0.796   4.932  -1.255  0.00  0.00    +0.032 C 
ENDBRANCH   9  11
ENDBRANCH   7   8
ENDBRANCH   4   7
BRANCH   1  19
ATOM     19  C   UNL     1       2.814   5.271 -10.161  0.00  0.00    +0.109 C 
BRANCH  19  20
ATOM     20  C   UNL     1       2.169   6.225 -11.343  0.00  0.00    +0.211 C 
ATOM     21  O   UNL     1       1.221   5.131 -11.803  0.00  0.00    -0.218 OA
BRANCH  20  22
ATOM     22  C   UNL     1       3.333   5.781 -12.424  0.00  0.00    +0.240 C 
BRANCH  22  23
ATOM     23  O   UNL     1       4.442   5.421 -11.612  0.00  0.00    -0.470 OA
BRANCH  23  25
ATOM     24  C   UNL     1       6.719   5.936 -11.159  0.00  0.00    +0.172 A 
ATOM     25  C   UNL     1       5.668   5.923 -12.065  0.00  0.00    +0.172 A 
ATOM     26  C   UNL     1       5.914   6.172 -13.407  0.00  0.00    +0.040 A 
ATOM     27  C   UNL     1       7.175   6.144 -13.925  0.00  0.00    +0.003 A 
ATOM     28  C   UNL     1       8.194   5.772 -13.055  0.00  0.00    +0.003 A 
ATOM     29  C   UNL     1       8.001   5.879 -11.683  0.00  0.00    +0.040 A 
BRANCH  24  31
ATOM     30  C   UNL     1       6.505   5.508  -8.966  0.00  0.00    +0.253 C 
ATOM     31  O   UNL     1       6.422   5.859  -9.823  0.00  0.00    -0.468 OA
ENDBRANCH  24  31
ENDBRANCH  23  25
ENDBRANCH  22  23
ENDBRANCH  20  22
ENDBRANCH  19  20
ENDBRANCH   1  19
TORSDOF 9
ENDMDL
