MODEL 1
REMARK VINA RESULT:      -2.7      0.000      0.000
REMARK  Name = 
REMARK  0 active torsions:
REMARK  status: ('A' for Active; 'I' for Inactive)
REMARK                            x       y       z     vdW  Elec       q    Type
REMARK                         _______ _______ _______ _____ _____    ______ ____
ROOT
ATOM      1  O   UNL     1       9.410   5.953 -12.370  0.00  0.00    -0.197 OA
ATOM      2  C   UNL     1       8.308   5.466 -11.992  0.00  0.00    +0.592 C 
ATOM      3  O   UNL     1       7.988   5.362 -10.646  0.00  0.00    -0.197 OA
ATOM      4  O   UNL     1       7.670   4.614 -12.890  0.00  0.00    -0.197 OA
ENDROOT
TORSDOF 0
ENDMDL
MODEL 2
REMARK VINA RESULT:      -2.7      0.103      2.003
REMARK  Name = 
REMARK  0 active torsions:
REMARK  status: ('A' for Active; 'I' for Inactive)
REMARK                            x       y       z     vdW  Elec       q    Type
REMARK                         _______ _______ _______ _____ _____    ______ ____
ROOT
ATOM      1  O   UNL     1       7.674   4.590 -12.775  0.00  0.00    -0.197 OA
ATOM      2  C   UNL     1       8.243   5.424 -12.016  0.00  0.00    +0.592 C 
ATOM      3  O   UNL     1       9.474   5.973 -12.342  0.00  0.00    -0.197 OA
ATOM      4  O   UNL     1       7.867   5.395 -10.676  0.00  0.00    -0.197 OA
ENDROOT
TORSDOF 0
ENDMDL
MODEL 3
REMARK VINA RESULT:      -2.7      0.096      2.030
REMARK  Name = 
REMARK  0 active torsions:
REMARK  status: ('A' for Active; 'I' for Inactive)
REMARK                            x       y       z     vdW  Elec       q    Type
REMARK                         _______ _______ _______ _____ _____    ______ ____
ROOT
ATOM      1  O   UNL     1       7.950   5.363 -10.762  0.00  0.00    -0.197 OA
ATOM      2  C   UNL     1       8.250   5.428 -11.987  0.00  0.00    +0.592 C 
ATOM      3  O   UNL     1       7.642   4.607 -12.924  0.00  0.00    -0.197 OA
ATOM      4  O   UNL     1       9.503   5.957 -12.287  0.00  0.00    -0.197 OA
ENDROOT
TORSDOF 0
ENDMDL
MODEL 4
REMARK VINA RESULT:      -2.5     13.737     14.596
REMARK  Name = 
REMARK  0 active torsions:
REMARK  status: ('A' for Active; 'I' for Inactive)
REMARK                            x       y       z     vdW  Elec       q    Type
REMARK                         _______ _______ _______ _____ _____    ______ ____
ROOT
ATOM      1  O   UNL     1      -2.545   4.752  -2.247  0.00  0.00    -0.197 OA
ATOM      2  C   UNL     1      -3.144   5.449  -3.114  0.00  0.00    +0.592 C 
ATOM      3  O   UNL     1      -2.740   5.456  -4.440  0.00  0.00    -0.197 OA
ATOM      4  O   UNL     1      -3.861   6.544  -2.637  0.00  0.00    -0.197 OA
ENDROOT
TORSDOF 0
ENDMDL
MODEL 5
REMARK VINA RESULT:      -2.5      1.705      2.493
REMARK  Name = 
REMARK  0 active torsions:
REMARK  status: ('A' for Active; 'I' for Inactive)
REMARK                            x       y       z     vdW  Elec       q    Type
REMARK                         _______ _______ _______ _____ _____    ______ ____
ROOT
ATOM      1  O   UNL     1       7.899   4.566 -12.633  0.00  0.00    -0.197 OA
ATOM      2  C   UNL     1       6.915   5.335 -12.825  0.00  0.00    +0.592 C 
ATOM      3  O   UNL     1       5.797   4.915 -13.530  0.00  0.00    -0.197 OA
ATOM      4  O   UNL     1       7.178   6.701 -12.756  0.00  0.00    -0.197 OA
ENDROOT
TORSDOF 0
ENDMDL
MODEL 6
REMARK VINA RESULT:      -2.4     14.271     14.653
REMARK  Name = 
REMARK  0 active torsions:
REMARK  status: ('A' for Active; 'I' for Inactive)
REMARK                            x       y       z     vdW  Elec       q    Type
REMARK                         _______ _______ _______ _____ _____    ______ ____
ROOT
ATOM      1  O   UNL     1      -2.982   4.692  -2.889  0.00  0.00    -0.197 OA
ATOM      2  C   UNL     1      -2.448   5.491  -2.069  0.00  0.00    +0.592 C 
ATOM      3  O   UNL     1      -2.827   6.823  -2.007  0.00  0.00    -0.197 OA
ATOM      4  O   UNL     1      -1.181   5.143  -1.605  0.00  0.00    -0.197 OA
ENDROOT
TORSDOF 0
ENDMDL
MODEL 7
REMARK VINA RESULT:      -2.4      1.779      2.228
REMARK  Name = 
REMARK  0 active torsions:
REMARK  status: ('A' for Active; 'I' for Inactive)
REMARK                            x       y       z     vdW  Elec       q    Type
REMARK                         _______ _______ _______ _____ _____    ______ ____
ROOT
ATOM      1  O   UNL     1       6.858   6.657 -12.940  0.00  0.00    -0.197 OA
ATOM      2  C   UNL     1       6.753   5.401 -12.850  0.00  0.00    +0.592 C 
ATOM      3  O   UNL     1       7.868   4.593 -12.687  0.00  0.00    -0.197 OA
ATOM      4  O   UNL     1       5.604   4.838 -13.401  0.00  0.00    -0.197 OA
ENDROOT
TORSDOF 0
ENDMDL
MODEL 8
REMARK VINA RESULT:      -2.3     13.574     13.889
REMARK  Name = 
REMARK  0 active torsions:
REMARK  status: ('A' for Active; 'I' for Inactive)
REMARK                            x       y       z     vdW  Elec       q    Type
REMARK                         _______ _______ _______ _____ _____    ______ ____
ROOT
ATOM      1  O   UNL     1      -0.748   5.005  -1.701  0.00  0.00    -0.197 OA
ATOM      2  C   UNL     1      -1.587   5.433  -2.543  0.00  0.00    +0.592 C 
ATOM      3  O   UNL     1      -1.570   6.751  -2.974  0.00  0.00    -0.197 OA
ATOM      4  O   UNL     1      -2.782   4.724  -2.638  0.00  0.00    -0.197 OA
ENDROOT
TORSDOF 0
ENDMDL
MODEL 9
REMARK VINA RESULT:      -2.3     13.785     13.974
REMARK  Name = 
REMARK  0 active torsions:
REMARK  status: ('A' for Active; 'I' for Inactive)
REMARK                            x       y       z     vdW  Elec       q    Type
REMARK                         _______ _______ _______ _____ _____    ______ ____
ROOT
ATOM      1  O   UNL     1      -1.708   6.634  -2.845  0.00  0.00    -0.197 OA
ATOM      2  C   UNL     1      -1.793   5.506  -2.283  0.00  0.00    +0.592 C 
ATOM      3  O   UNL     1      -0.694   4.918  -1.676  0.00  0.00    -0.197 OA
ATOM      4  O   UNL     1      -2.832   4.682  -2.709  0.00  0.00    -0.197 OA
ENDROOT
TORSDOF 0
ENDMDL
