MODEL 1
REMARK VINA RESULT:      -6.9      0.000      0.000
REMARK  Name = 
REMARK  6 active torsions:
REMARK  status: ('A' for Active; 'I' for Inactive)
REMARK    1  A    between atoms: C_7  and  C_8
REMARK    2  A    between atoms: C_8  and  S_9
REMARK    3  A    between atoms: S_9  and  C_10
REMARK    4  A    between atoms: C_10  and  C_11
REMARK    5  A    between atoms: C_11  and  C_12
REMARK    6  A    between atoms: N_14  and  S_15
REMARK                            x       y       z     vdW  Elec       q    Type
REMARK                         _______ _______ _______ _____ _____    ______ ____
ROOT
ATOM      1  C   UNL     1       3.600   4.200  -8.902  0.00  0.00    +0.104 C 
ENDROOT
BRANCH   1   8
ATOM      2  N   UNL     1       7.347   4.853 -12.556  0.00  0.00    +0.136 NA
ATOM      3  C   UNL     1       8.198   5.420 -11.756  0.00  0.00    +0.541 C 
ATOM      4  N   UNL     1       7.776   5.956 -10.499  0.00  0.00    -0.033 NA
ATOM      5  C   UNL     1       6.357   5.991 -10.291  0.00  0.00    +0.273 A 
ATOM      6  S   UNL     1       5.185   7.037 -10.988  0.00  0.00    -0.029 S 
ATOM      7  C   UNL     1       3.814   6.445 -10.135  0.00  0.00    +0.055 A 
ATOM      8  C   UNL     1       4.370   5.308  -9.555  0.00  0.00    +0.080 A 
ATOM      9  N   UNL     1       5.660   5.544  -9.217  0.00  0.00    -0.209 NA
ATOM     10  N   UNL     1       9.437   5.831 -12.338  0.00  0.00    +0.136 NA
ENDBRANCH   1   8
BRANCH   1  11
ATOM     11  S   UNL     1       1.884   4.720  -8.726  0.00  0.00    -0.133 S 
BRANCH  11  12
ATOM     12  C   UNL     1       1.589   5.521  -7.126  0.00  0.00    +0.071 C 
BRANCH  12  13
ATOM     13  C   UNL     1       0.092   5.522  -6.839  0.00  0.00    +0.140 C 
BRANCH  13  14
ATOM     14  C   UNL     1      -0.056   5.846  -5.395  0.00  0.00    +0.420 C 
ATOM     15  N   UNL     1      -1.300   5.594  -4.732  0.00  0.00    +0.143 NA
ATOM     16  N   UNL     1       0.896   6.406  -4.709  0.00  0.00    +0.194 NA
BRANCH  15  17
ATOM     17  S   UNL     1      -1.297   5.560  -3.019  0.00  0.00    +0.246 S 
ATOM     18  O   UNL     1      -1.217   6.921  -2.408  0.00  0.00    -0.112 OA
ATOM     19  O   UNL     1      -0.111   4.754  -2.540  0.00  0.00    -0.112 OA
ATOM     20  N   UNL     1      -2.769   4.809  -2.495  0.00  0.00    +0.079 NA
ENDBRANCH  15  17
ENDBRANCH  13  14
ENDBRANCH  12  13
ENDBRANCH  11  12
ENDBRANCH   1  11
TORSDOF 6
ENDMDL
MODEL 2
REMARK VINA RESULT:      -6.8      5.603      6.476
REMARK  Name = 
REMARK  6 active torsions:
REMARK  status: ('A' for Active; 'I' for Inactive)
REMARK    1  A    between atoms: C_7  and  C_8
REMARK    2  A    between atoms: C_8  and  S_9
REMARK    3  A    between atoms: S_9  and  C_10
REMARK    4  A    between atoms: C_10  and  C_11
REMARK    5  A    between atoms: C_11  and  C_12
REMARK    6  A    between atoms: N_14  and  S_15
REMARK                            x       y       z     vdW  Elec       q    Type
REMARK                         _______ _______ _______ _____ _____    ______ ____
ROOT
ATOM      1  C   UNL     1       3.394   4.403  -9.092  0.00  0.00    +0.104 C 
ENDROOT
BRANCH   1   8
ATOM      2  N   UNL     1       7.279   4.956 -12.616  0.00  0.00    +0.136 NA
ATOM      3  C   UNL     1       8.158   5.380 -11.760  0.00  0.00    +0.541 C 
ATOM      4  N   UNL     1       7.757   5.861 -10.475  0.00  0.00    -0.033 NA
ATOM      5  C   UNL     1       6.343   6.017 -10.292  0.00  0.00    +0.273 A 
ATOM      6  S   UNL     1       5.292   7.218 -10.931  0.00  0.00    -0.029 S 
ATOM      7  C   UNL     1       3.850   6.700 -10.151  0.00  0.00    +0.055 A 
ATOM      8  C   UNL     1       4.281   5.476  -9.646  0.00  0.00    +0.080 A 
ATOM      9  N   UNL     1       5.579   5.562  -9.267  0.00  0.00    -0.209 NA
ATOM     10  N   UNL     1       9.445   5.712 -12.287  0.00  0.00    +0.136 NA
ENDBRANCH   1   8
BRANCH   1  11
ATOM     11  S   UNL     1       1.783   5.121  -8.726  0.00  0.00    -0.133 S 
BRANCH  11  12
ATOM     12  C   UNL     1       0.605   4.845 -10.077  0.00  0.00    +0.071 C 
BRANCH  12  13
ATOM     13  C   UNL     1       0.178   6.191 -10.647  0.00  0.00    +0.140 C 
BRANCH  13  14
ATOM     14  C   UNL     1       0.724   6.252 -12.029  0.00  0.00    +0.420 C 
ATOM     15  N   UNL     1       1.564   5.197 -12.510  0.00  0.00    +0.143 NA
ATOM     16  N   UNL     1       0.508   7.263 -12.817  0.00  0.00    +0.194 NA
BRANCH  15  17
ATOM     17  S   UNL     1       1.803   5.076 -14.203  0.00  0.00    +0.246 S 
ATOM     18  O   UNL     1       0.554   5.320 -14.987  0.00  0.00    -0.112 OA
ATOM     19  O   UNL     1       2.309   3.691 -14.534  0.00  0.00    -0.112 OA
ATOM     20  N   UNL     1       2.981   6.260 -14.665  0.00  0.00    +0.079 NA
ENDBRANCH  15  17
ENDBRANCH  13  14
ENDBRANCH  12  13
ENDBRANCH  11  12
ENDBRANCH   1  11
TORSDOF 6
ENDMDL
MODEL 3
REMARK VINA RESULT:      -6.6      2.487      2.766
REMARK  Name = 
REMARK  6 active torsions:
REMARK  status: ('A' for Active; 'I' for Inactive)
REMARK    1  A    between atoms: C_7  and  C_8
REMARK    2  A    between atoms: C_8  and  S_9
REMARK    3  A    between atoms: S_9  and  C_10
REMARK    4  A    between atoms: C_10  and  C_11
REMARK    5  A    between atoms: C_11  and  C_12
REMARK    6  A    between atoms: N_14  and  S_15
REMARK                            x       y       z     vdW  Elec       q    Type
REMARK                         _______ _______ _______ _____ _____    ______ ____
ROOT
ATOM      1  C   UNL     1       3.596   4.198  -8.846  0.00  0.00    +0.104 C 
ENDROOT
BRANCH   1   8
ATOM      2  N   UNL     1       7.340   4.841 -12.505  0.00  0.00    +0.136 NA
ATOM      3  C   UNL     1       8.193   5.408 -11.706  0.00  0.00    +0.541 C 
ATOM      4  N   UNL     1       7.774   5.945 -10.450  0.00  0.00    -0.033 NA
ATOM      5  C   UNL     1       6.355   5.983 -10.240  0.00  0.00    +0.273 A 
ATOM      6  S   UNL     1       5.183   7.030 -10.937  0.00  0.00    -0.029 S 
ATOM      7  C   UNL     1       3.812   6.442 -10.082  0.00  0.00    +0.055 A 
ATOM      8  C   UNL     1       4.367   5.304  -9.501  0.00  0.00    +0.080 A 
ATOM      9  N   UNL     1       5.659   5.539  -9.165  0.00  0.00    -0.209 NA
ATOM     10  N   UNL     1       9.432   5.816 -12.291  0.00  0.00    +0.136 NA
ENDBRANCH   1   8
BRANCH   1  11
ATOM     11  S   UNL     1       2.393   4.926  -7.719  0.00  0.00    -0.133 S 
BRANCH  11  12
ATOM     12  C   UNL     1       2.513   4.207  -6.058  0.00  0.00    +0.071 C 
BRANCH  12  13
ATOM     13  C   UNL     1       3.535   4.994  -5.248  0.00  0.00    +0.140 C 
BRANCH  13  14
ATOM     14  C   UNL     1       2.941   5.187  -3.899  0.00  0.00    +0.420 C 
ATOM     15  N   UNL     1       3.740   4.974  -2.731  0.00  0.00    +0.143 NA
ATOM     16  N   UNL     1       1.689   5.497  -3.731  0.00  0.00    +0.194 NA
BRANCH  15  17
ATOM     17  S   UNL     1       3.173   5.620  -1.248  0.00  0.00    +0.246 S 
ATOM     18  O   UNL     1       2.719   7.039  -1.365  0.00  0.00    -0.112 OA
ATOM     19  O   UNL     1       4.284   5.560  -0.224  0.00  0.00    -0.112 OA
ATOM     20  N   UNL     1       1.833   4.657  -0.720  0.00  0.00    +0.079 NA
ENDBRANCH  15  17
ENDBRANCH  13  14
ENDBRANCH  12  13
ENDBRANCH  11  12
ENDBRANCH   1  11
TORSDOF 6
ENDMDL
MODEL 4
REMARK VINA RESULT:      -6.6      5.366      8.099
REMARK  Name = 
REMARK  6 active torsions:
REMARK  status: ('A' for Active; 'I' for Inactive)
REMARK    1  A    between atoms: C_7  and  C_8
REMARK    2  A    between atoms: C_8  and  S_9
REMARK    3  A    between atoms: S_9  and  C_10
REMARK    4  A    between atoms: C_10  and  C_11
REMARK    5  A    between atoms: C_11  and  C_12
REMARK    6  A    between atoms: N_14  and  S_15
REMARK                            x       y       z     vdW  Elec       q    Type
REMARK                         _______ _______ _______ _____ _____    ______ ____
ROOT
ATOM      1  C   UNL     1       1.862   6.730  -8.498  0.00  0.00    +0.104 C 
ENDROOT
BRANCH   1   8
ATOM      2  N   UNL     1       2.305   5.811 -13.673  0.00  0.00    +0.136 NA
ATOM      3  C   UNL     1       1.406   6.678 -14.026  0.00  0.00    +0.541 C 
ATOM      4  N   UNL     1       0.476   7.198 -13.073  0.00  0.00    -0.033 NA
ATOM      5  C   UNL     1       0.490   6.559 -11.788  0.00  0.00    +0.273 A 
ATOM      6  S   UNL     1      -0.108   5.012 -11.339  0.00  0.00    -0.029 S 
ATOM      7  C   UNL     1       0.238   5.111  -9.658  0.00  0.00    +0.055 A 
ATOM      8  C   UNL     1       1.019   6.264  -9.645  0.00  0.00    +0.080 A 
ATOM      9  N   UNL     1       0.559   7.144 -10.567  0.00  0.00    -0.209 NA
ATOM     10  N   UNL     1       1.136   6.774 -15.426  0.00  0.00    +0.136 NA
ENDBRANCH   1   8
BRANCH   1  11
ATOM     11  S   UNL     1       2.664   5.298  -7.755  0.00  0.00    -0.133 S 
BRANCH  11  12
ATOM     12  C   UNL     1       3.968   4.631  -8.828  0.00  0.00    +0.071 C 
BRANCH  12  13
ATOM     13  C   UNL     1       5.106   5.640  -8.911  0.00  0.00    +0.140 C 
BRANCH  13  14
ATOM     14  C   UNL     1       5.314   5.917 -10.357  0.00  0.00    +0.420 C 
ATOM     15  N   UNL     1       6.537   5.526 -10.989  0.00  0.00    +0.143 NA
ATOM     16  N   UNL     1       4.437   6.556 -11.074  0.00  0.00    +0.194 NA
BRANCH  15  17
ATOM     17  S   UNL     1       6.564   5.456 -12.701  0.00  0.00    +0.246 S 
ATOM     18  O   UNL     1       5.379   4.750 -13.275  0.00  0.00    -0.112 OA
ATOM     19  O   UNL     1       7.812   4.729 -13.148  0.00  0.00    -0.112 OA
ATOM     20  N   UNL     1       6.580   7.080 -13.305  0.00  0.00    +0.079 NA
ENDBRANCH  15  17
ENDBRANCH  13  14
ENDBRANCH  12  13
ENDBRANCH  11  12
ENDBRANCH   1  11
TORSDOF 6
ENDMDL
MODEL 5
REMARK VINA RESULT:      -6.5      2.548      3.131
REMARK  Name = 
REMARK  6 active torsions:
REMARK  status: ('A' for Active; 'I' for Inactive)
REMARK    1  A    between atoms: C_7  and  C_8
REMARK    2  A    between atoms: C_8  and  S_9
REMARK    3  A    between atoms: S_9  and  C_10
REMARK    4  A    between atoms: C_10  and  C_11
REMARK    5  A    between atoms: C_11  and  C_12
REMARK    6  A    between atoms: N_14  and  S_15
REMARK                            x       y       z     vdW  Elec       q    Type
REMARK                         _______ _______ _______ _____ _____    ______ ____
ROOT
ATOM      1  C   UNL     1       3.541   4.309  -8.985  0.00  0.00    +0.104 C 
ENDROOT
BRANCH   1   8
ATOM      2  N   UNL     1       7.411   4.825 -12.532  0.00  0.00    +0.136 NA
ATOM      3  C   UNL     1       8.250   5.384 -11.714  0.00  0.00    +0.541 C 
ATOM      4  N   UNL     1       7.803   5.947 -10.478  0.00  0.00    -0.033 NA
ATOM      5  C   UNL     1       6.380   6.017 -10.314  0.00  0.00    +0.273 A 
ATOM      6  S   UNL     1       5.253   7.079 -11.060  0.00  0.00    -0.029 S 
ATOM      7  C   UNL     1       3.844   6.531 -10.242  0.00  0.00    +0.055 A 
ATOM      8  C   UNL     1       4.356   5.390  -9.629  0.00  0.00    +0.080 A 
ATOM      9  N   UNL     1       5.641   5.601  -9.256  0.00  0.00    -0.209 NA
ATOM     10  N   UNL     1       9.515   5.759 -12.265  0.00  0.00    +0.136 NA
ENDBRANCH   1   8
BRANCH   1  11
ATOM     11  S   UNL     1       1.798   4.734  -9.141  0.00  0.00    -0.133 S 
BRANCH  11  12
ATOM     12  C   UNL     1       1.093   5.258  -7.554  0.00  0.00    +0.071 C 
BRANCH  12  13
ATOM     13  C   UNL     1       1.619   6.646  -7.211  0.00  0.00    +0.140 C 
BRANCH  13  14
ATOM     14  C   UNL     1       2.263   6.530  -5.876  0.00  0.00    +0.420 C 
ATOM     15  N   UNL     1       3.689   6.598  -5.764  0.00  0.00    +0.143 NA
ATOM     16  N   UNL     1       1.579   6.314  -4.791  0.00  0.00    +0.194 NA
BRANCH  15  17
ATOM     17  S   UNL     1       4.354   6.904  -4.215  0.00  0.00    +0.246 S 
ATOM     18  O   UNL     1       3.524   7.839  -3.397  0.00  0.00    -0.112 OA
ATOM     19  O   UNL     1       5.730   7.508  -4.376  0.00  0.00    -0.112 OA
ATOM     20  N   UNL     1       4.469   5.393  -3.373  0.00  0.00    +0.079 NA
ENDBRANCH  15  17
ENDBRANCH  13  14
ENDBRANCH  12  13
ENDBRANCH  11  12
ENDBRANCH   1  11
TORSDOF 6
ENDMDL
MODEL 6
REMARK VINA RESULT:      -6.3      4.704      9.364
REMARK  Name = 
REMARK  6 active torsions:
REMARK  status: ('A' for Active; 'I' for Inactive)
REMARK    1  A    between atoms: C_7  and  C_8
REMARK    2  A    between atoms: C_8  and  S_9
REMARK    3  A    between atoms: S_9  and  C_10
REMARK    4  A    between atoms: C_10  and  C_11
REMARK    5  A    between atoms: C_11  and  C_12
REMARK    6  A    between atoms: N_14  and  S_15
REMARK                            x       y       z     vdW  Elec       q    Type
REMARK                         _______ _______ _______ _____ _____    ______ ____
ROOT
ATOM      1  C   UNL     1       2.278   3.682  -6.677  0.00  0.00    +0.104 C 
ENDROOT
BRANCH   1   8
ATOM      2  N   UNL     1       2.992   4.928  -1.601  0.00  0.00    +0.136 NA
ATOM      3  C   UNL     1       1.757   5.267  -1.386  0.00  0.00    +0.541 C 
ATOM      4  N   UNL     1       0.871   5.537  -2.475  0.00  0.00    -0.033 NA
ATOM      5  C   UNL     1       1.487   5.595  -3.769  0.00  0.00    +0.273 A 
ATOM      6  S   UNL     1       2.486   6.822  -4.441  0.00  0.00    -0.029 S 
ATOM      7  C   UNL     1       2.688   6.128  -6.000  0.00  0.00    +0.055 A 
ATOM      8  C   UNL     1       2.145   4.866  -5.768  0.00  0.00    +0.080 A 
ATOM      9  N   UNL     1       1.105   4.961  -4.905  0.00  0.00    -0.209 NA
ATOM     10  N   UNL     1       1.449   5.734  -0.071  0.00  0.00    +0.136 NA
ENDBRANCH   1   8
BRANCH   1  11
ATOM     11  S   UNL     1       2.341   4.268  -8.379  0.00  0.00    -0.133 S 
BRANCH  11  12
ATOM     12  C   UNL     1       4.041   4.300  -9.012  0.00  0.00    +0.071 C 
BRANCH  12  13
ATOM     13  C   UNL     1       4.497   5.748  -9.141  0.00  0.00    +0.140 C 
BRANCH  13  14
ATOM     14  C   UNL     1       4.850   5.949 -10.571  0.00  0.00    +0.420 C 
ATOM     15  N   UNL     1       6.162   5.612 -11.035  0.00  0.00    +0.143 NA
ATOM     16  N   UNL     1       4.021   6.475 -11.423  0.00  0.00    +0.194 NA
BRANCH  15  17
ATOM     17  S   UNL     1       6.389   5.438 -12.725  0.00  0.00    +0.246 S 
ATOM     18  O   UNL     1       5.285   4.680 -13.388  0.00  0.00    -0.112 OA
ATOM     19  O   UNL     1       7.687   4.704 -12.978  0.00  0.00    -0.112 OA
ATOM     20  N   UNL     1       6.464   7.022 -13.423  0.00  0.00    +0.079 NA
ENDBRANCH  15  17
ENDBRANCH  13  14
ENDBRANCH  12  13
ENDBRANCH  11  12
ENDBRANCH   1  11
TORSDOF 6
ENDMDL
MODEL 7
REMARK VINA RESULT:      -6.3      5.176      6.767
REMARK  Name = 
REMARK  6 active torsions:
REMARK  status: ('A' for Active; 'I' for Inactive)
REMARK    1  A    between atoms: C_7  and  C_8
REMARK    2  A    between atoms: C_8  and  S_9
REMARK    3  A    between atoms: S_9  and  C_10
REMARK    4  A    between atoms: C_10  and  C_11
REMARK    5  A    between atoms: C_11  and  C_12
REMARK    6  A    between atoms: N_14  and  S_15
REMARK                            x       y       z     vdW  Elec       q    Type
REMARK                         _______ _______ _______ _____ _____    ______ ____
ROOT
ATOM      1  C   UNL     1       2.825   4.708  -5.299  0.00  0.00    +0.104 C 
ENDROOT
BRANCH   1   8
ATOM      2  N   UNL     1       4.269   5.690  -0.321  0.00  0.00    +0.136 NA
ATOM      3  C   UNL     1       3.437   6.672  -0.146  0.00  0.00    +0.541 C 
ATOM      4  N   UNL     1       2.817   7.314  -1.263  0.00  0.00    -0.033 NA
ATOM      5  C   UNL     1       3.321   6.931  -2.551  0.00  0.00    +0.273 A 
ATOM      6  S   UNL     1       4.812   7.346  -3.299  0.00  0.00    -0.029 S 
ATOM      7  C   UNL     1       4.544   6.553  -4.800  0.00  0.00    +0.055 A 
ATOM      8  C   UNL     1       3.400   5.825  -4.482  0.00  0.00    +0.080 A 
ATOM      9  N   UNL     1       2.615   6.540  -3.640  0.00  0.00    -0.209 NA
ATOM     10  N   UNL     1       3.483   7.319   1.127  0.00  0.00    +0.136 NA
ENDBRANCH   1   8
BRANCH   1  11
ATOM     11  S   UNL     1       2.374   5.355  -6.918  0.00  0.00    -0.133 S 
BRANCH  11  12
ATOM     12  C   UNL     1       0.869   6.365  -6.839  0.00  0.00    +0.071 C 
BRANCH  12  13
ATOM     13  C   UNL     1      -0.344   5.468  -7.053  0.00  0.00    +0.140 C 
BRANCH  13  14
ATOM     14  C   UNL     1      -1.188   5.611  -5.837  0.00  0.00    +0.420 C 
ATOM     15  N   UNL     1      -0.605   5.436  -4.541  0.00  0.00    +0.143 NA
ATOM     16  N   UNL     1      -2.466   5.841  -5.903  0.00  0.00    +0.194 NA
BRANCH  15  17
ATOM     17  S   UNL     1      -1.475   6.031  -3.189  0.00  0.00    +0.246 S 
ATOM     18  O   UNL     1      -2.155   7.333  -3.460  0.00  0.00    -0.112 OA
ATOM     19  O   UNL     1      -0.521   6.225  -2.032  0.00  0.00    -0.112 OA
ATOM     20  N   UNL     1      -2.680   4.859  -2.768  0.00  0.00    +0.079 NA
ENDBRANCH  15  17
ENDBRANCH  13  14
ENDBRANCH  12  13
ENDBRANCH  11  12
ENDBRANCH   1  11
TORSDOF 6
ENDMDL
MODEL 8
REMARK VINA RESULT:      -6.3      4.529      9.568
REMARK  Name = 
REMARK  6 active torsions:
REMARK  status: ('A' for Active; 'I' for Inactive)
REMARK    1  A    between atoms: C_7  and  C_8
REMARK    2  A    between atoms: C_8  and  S_9
REMARK    3  A    between atoms: S_9  and  C_10
REMARK    4  A    between atoms: C_10  and  C_11
REMARK    5  A    between atoms: C_11  and  C_12
REMARK    6  A    between atoms: N_14  and  S_15
REMARK                            x       y       z     vdW  Elec       q    Type
REMARK                         _______ _______ _______ _____ _____    ______ ____
ROOT
ATOM      1  C   UNL     1       2.443   6.764  -7.101  0.00  0.00    +0.104 C 
ENDROOT
BRANCH   1   8
ATOM      2  N   UNL     1      -1.961   7.994  -4.471  0.00  0.00    +0.136 NA
ATOM      3  C   UNL     1      -1.855   7.033  -3.604  0.00  0.00    +0.541 C 
ATOM      4  N   UNL     1      -0.985   5.924  -3.842  0.00  0.00    -0.033 NA
ATOM      5  C   UNL     1      -0.411   5.864  -5.156  0.00  0.00    +0.273 A 
ATOM      6  S   UNL     1      -1.155   5.439  -6.646  0.00  0.00    -0.029 S 
ATOM      7  C   UNL     1       0.243   5.549  -7.640  0.00  0.00    +0.055 A 
ATOM      8  C   UNL     1       1.124   6.150  -6.744  0.00  0.00    +0.080 A 
ATOM      9  N   UNL     1       0.892   5.692  -5.490  0.00  0.00    -0.209 NA
ATOM     10  N   UNL     1      -2.905   6.934  -2.639  0.00  0.00    +0.136 NA
ENDBRANCH   1   8
BRANCH   1  11
ATOM     11  S   UNL     1       3.729   5.517  -6.907  0.00  0.00    -0.133 S 
BRANCH  11  12
ATOM     12  C   UNL     1       4.543   5.146  -8.485  0.00  0.00    +0.071 C 
BRANCH  12  13
ATOM     13  C   UNL     1       3.493   5.105  -9.588  0.00  0.00    +0.140 C 
BRANCH  13  14
ATOM     14  C   UNL     1       4.183   5.521 -10.838  0.00  0.00    +0.420 C 
ATOM     15  N   UNL     1       5.602   5.369 -10.952  0.00  0.00    +0.143 NA
ATOM     16  N   UNL     1       3.550   6.073 -11.830  0.00  0.00    +0.194 NA
BRANCH  15  17
ATOM     17  S   UNL     1       6.288   5.436 -12.521  0.00  0.00    +0.246 S 
ATOM     18  O   UNL     1       5.414   4.824 -13.567  0.00  0.00    -0.112 OA
ATOM     19  O   UNL     1       7.609   4.701 -12.517  0.00  0.00    -0.112 OA
ATOM     20  N   UNL     1       6.542   7.102 -12.925  0.00  0.00    +0.079 NA
ENDBRANCH  15  17
ENDBRANCH  13  14
ENDBRANCH  12  13
ENDBRANCH  11  12
ENDBRANCH   1  11
TORSDOF 6
ENDMDL
MODEL 9
REMARK VINA RESULT:      -6.2      5.412      8.630
REMARK  Name = 
REMARK  6 active torsions:
REMARK  status: ('A' for Active; 'I' for Inactive)
REMARK    1  A    between atoms: C_7  and  C_8
REMARK    2  A    between atoms: C_8  and  S_9
REMARK    3  A    between atoms: S_9  and  C_10
REMARK    4  A    between atoms: C_10  and  C_11
REMARK    5  A    between atoms: C_11  and  C_12
REMARK    6  A    between atoms: N_14  and  S_15
REMARK                            x       y       z     vdW  Elec       q    Type
REMARK                         _______ _______ _______ _____ _____    ______ ____
ROOT
ATOM      1  C   UNL     1      -2.529   5.925  -3.425  0.00  0.00    +0.104 C 
ENDROOT
BRANCH   1   8
ATOM      2  N   UNL     1       2.484   6.634  -1.944  0.00  0.00    +0.136 NA
ATOM      3  C   UNL     1       2.555   5.547  -1.238  0.00  0.00    +0.541 C 
ATOM      4  N   UNL     1       1.369   4.860  -0.828  0.00  0.00    -0.033 NA
ATOM      5  C   UNL     1       0.139   5.552  -1.083  0.00  0.00    +0.273 A 
ATOM      6  S   UNL     1      -0.524   6.919  -0.278  0.00  0.00    -0.029 S 
ATOM      7  C   UNL     1      -2.001   7.007  -1.153  0.00  0.00    +0.055 A 
ATOM      8  C   UNL     1      -1.728   6.094  -2.170  0.00  0.00    +0.080 A 
ATOM      9  N   UNL     1      -0.977   5.075  -1.687  0.00  0.00    -0.209 NA
ATOM     10  N   UNL     1       3.796   5.306  -0.572  0.00  0.00    +0.136 NA
ENDBRANCH   1   8
BRANCH   1  11
ATOM     11  S   UNL     1      -1.777   6.919  -4.725  0.00  0.00    -0.133 S 
BRANCH  11  12
ATOM     12  C   UNL     1       0.003   6.599  -4.866  0.00  0.00    +0.071 C 
BRANCH  12  13
ATOM     13  C   UNL     1       0.214   5.199  -5.428  0.00  0.00    +0.140 C 
BRANCH  13  14
ATOM     14  C   UNL     1       1.672   5.068  -5.688  0.00  0.00    +0.420 C 
ATOM     15  N   UNL     1       2.533   6.196  -5.497  0.00  0.00    +0.143 NA
ATOM     16  N   UNL     1       2.200   3.969  -6.137  0.00  0.00    +0.194 NA
BRANCH  15  17
ATOM     17  S   UNL     1       4.217   5.900  -5.374  0.00  0.00    +0.246 S 
ATOM     18  O   UNL     1       4.994   7.110  -4.969  0.00  0.00    -0.112 OA
ATOM     19  O   UNL     1       4.737   5.429  -6.714  0.00  0.00    -0.112 OA
ATOM     20  N   UNL     1       4.461   4.667  -4.181  0.00  0.00    +0.079 NA
ENDBRANCH  15  17
ENDBRANCH  13  14
ENDBRANCH  12  13
ENDBRANCH  11  12
ENDBRANCH   1  11
TORSDOF 6
ENDMDL
