MODEL 1
REMARK VINA RESULT:      -6.9      0.000      0.000
REMARK  Name = 
REMARK  4 active torsions:
REMARK  status: ('A' for Active; 'I' for Inactive)
REMARK    1  A    between atoms: C_2  and  C_4
REMARK    2  A    between atoms: C_4  and  C_5
REMARK    3  A    between atoms: C_8  and  C_9
REMARK    4  A    between atoms: C_9  and  C_11
REMARK                            x       y       z     vdW  Elec       q    Type
REMARK                         _______ _______ _______ _____ _____    ______ ____
ROOT
ATOM      1  C   UNL     1       6.077   6.017 -10.395  0.00  0.00    -0.022 A 
ATOM      2  C   UNL     1       6.106   5.467  -9.122  0.00  0.00    -0.005 A 
ATOM      3  C   UNL     1       4.977   5.502  -8.313  0.00  0.00    -0.004 A 
ATOM      4  C   UNL     1       3.970   6.433  -8.548  0.00  0.00    -0.012 A 
ATOM      5  C   UNL     1       3.869   6.862  -9.861  0.00  0.00    -0.004 A 
ATOM      6  C   UNL     1       4.870   6.588 -10.774  0.00  0.00    -0.005 A 
ENDROOT
BRANCH   4   7
ATOM      7  C   UNL     1       2.523   5.928  -7.991  0.00  0.00    +0.126 C 
ATOM      8  C   UNL     1       1.722   6.663  -9.246  0.00  0.00    +0.017 C 
BRANCH   7   9
ATOM      9  C   UNL     1       2.365   7.250  -7.052  0.00  0.00    +0.368 C 
ATOM     10  O   UNL     1       2.087   8.370  -7.840  0.00  0.00    -0.245 OA
ATOM     11  O   UNL     1       3.368   7.363  -6.283  0.00  0.00    -0.245 OA
ENDBRANCH   7   9
ENDBRANCH   4   7
BRANCH   1  12
ATOM     12  C   UNL     1       7.366   6.546 -10.934  0.00  0.00    +0.026 C 
BRANCH  12  14
ATOM     13  C   UNL     1       9.126   5.847 -12.027  0.00  0.00    +0.000 C 
ATOM     14  C   UNL     1       8.090   5.515 -11.777  0.00  0.00    +0.004 C 
ATOM     15  C   UNL     1       7.302   5.420 -13.078  0.00  0.00    +0.000 C 
ENDBRANCH  12  14
ENDBRANCH   1  12
TORSDOF 4
ENDMDL
MODEL 2
REMARK VINA RESULT:      -6.8      3.247      5.980
REMARK  Name = 
REMARK  4 active torsions:
REMARK  status: ('A' for Active; 'I' for Inactive)
REMARK    1  A    between atoms: C_2  and  C_4
REMARK    2  A    between atoms: C_4  and  C_5
REMARK    3  A    between atoms: C_8  and  C_9
REMARK    4  A    between atoms: C_9  and  C_11
REMARK                            x       y       z     vdW  Elec       q    Type
REMARK                         _______ _______ _______ _____ _____    ______ ____
ROOT
ATOM      1  C   UNL     1       4.335   5.842  -8.670  0.00  0.00    -0.022 A 
ATOM      2  C   UNL     1       5.619   5.346  -8.502  0.00  0.00    -0.005 A 
ATOM      3  C   UNL     1       6.604   5.604  -9.447  0.00  0.00    -0.004 A 
ATOM      4  C   UNL     1       6.257   5.961 -10.746  0.00  0.00    -0.012 A 
ATOM      5  C   UNL     1       5.027   6.586 -10.870  0.00  0.00    -0.004 A 
ATOM      6  C   UNL     1       4.126   6.585  -9.823  0.00  0.00    -0.005 A 
ENDROOT
BRANCH   4   7
ATOM      7  C   UNL     1       7.426   6.832 -11.477  0.00  0.00    +0.126 C 
ATOM      8  C   UNL     1       6.609   6.816 -12.923  0.00  0.00    +0.017 C 
BRANCH   7   9
ATOM      9  C   UNL     1       8.254   5.486 -11.874  0.00  0.00    +0.368 C 
ATOM     10  O   UNL     1       9.562   5.815 -12.239  0.00  0.00    -0.245 OA
ATOM     11  O   UNL     1       7.606   4.810 -12.728  0.00  0.00    -0.245 OA
ENDBRANCH   7   9
ENDBRANCH   4   7
BRANCH   1  12
ATOM     12  C   UNL     1       3.219   5.052  -8.067  0.00  0.00    +0.026 C 
BRANCH  12  14
ATOM     13  C   UNL     1       2.409   4.516  -6.108  0.00  0.00    +0.000 C 
ATOM     14  C   UNL     1       3.212   5.151  -6.554  0.00  0.00    +0.004 C 
ATOM     15  C   UNL     1       2.891   6.606  -6.238  0.00  0.00    +0.000 C 
ENDBRANCH  12  14
ENDBRANCH   1  12
TORSDOF 4
ENDMDL
MODEL 3
REMARK VINA RESULT:      -6.7      1.465      2.169
REMARK  Name = 
REMARK  4 active torsions:
REMARK  status: ('A' for Active; 'I' for Inactive)
REMARK    1  A    between atoms: C_2  and  C_4
REMARK    2  A    between atoms: C_4  and  C_5
REMARK    3  A    between atoms: C_8  and  C_9
REMARK    4  A    between atoms: C_9  and  C_11
REMARK                            x       y       z     vdW  Elec       q    Type
REMARK                         _______ _______ _______ _____ _____    ______ ____
ROOT
ATOM      1  C   UNL     1       6.563   6.973 -10.480  0.00  0.00    -0.022 A 
ATOM      2  C   UNL     1       5.266   7.368 -10.769  0.00  0.00    -0.005 A 
ATOM      3  C   UNL     1       4.190   6.803 -10.095  0.00  0.00    -0.004 A 
ATOM      4  C   UNL     1       4.322   5.569  -9.467  0.00  0.00    -0.012 A 
ATOM      5  C   UNL     1       5.608   5.258  -9.058  0.00  0.00    -0.004 A 
ATOM      6  C   UNL     1       6.689   5.997  -9.501  0.00  0.00    -0.005 A 
ENDROOT
BRANCH   4   7
ATOM      7  C   UNL     1       3.265   5.389  -8.238  0.00  0.00    +0.126 C 
ATOM      8  C   UNL     1       3.010   3.793  -8.620  0.00  0.00    +0.017 C 
BRANCH   7   9
ATOM      9  C   UNL     1       2.017   5.862  -9.174  0.00  0.00    +0.368 C 
ATOM     10  O   UNL     1       1.226   6.788  -8.489  0.00  0.00    -0.245 OA
ATOM     11  O   UNL     1       1.401   4.850  -9.625  0.00  0.00    -0.245 OA
ENDBRANCH   7   9
ENDBRANCH   4   7
BRANCH   1  12
ATOM     12  C   UNL     1       7.562   7.066 -11.587  0.00  0.00    +0.026 C 
BRANCH  12  14
ATOM     13  C   UNL     1       9.180   5.738 -12.223  0.00  0.00    +0.000 C 
ATOM     14  C   UNL     1       8.089   5.701 -11.987  0.00  0.00    +0.004 C 
ATOM     15  C   UNL     1       7.344   5.330 -13.263  0.00  0.00    +0.000 C 
ENDBRANCH  12  14
ENDBRANCH   1  12
TORSDOF 4
ENDMDL
MODEL 4
REMARK VINA RESULT:      -6.7      4.428      6.765
REMARK  Name = 
REMARK  4 active torsions:
REMARK  status: ('A' for Active; 'I' for Inactive)
REMARK    1  A    between atoms: C_2  and  C_4
REMARK    2  A    between atoms: C_4  and  C_5
REMARK    3  A    between atoms: C_8  and  C_9
REMARK    4  A    between atoms: C_9  and  C_11
REMARK                            x       y       z     vdW  Elec       q    Type
REMARK                         _______ _______ _______ _____ _____    ______ ____
ROOT
ATOM      1  C   UNL     1       0.587   6.077  -7.001  0.00  0.00    -0.022 A 
ATOM      2  C   UNL     1      -0.608   5.429  -7.272  0.00  0.00    -0.005 A 
ATOM      3  C   UNL     1      -1.693   5.560  -6.413  0.00  0.00    -0.004 A 
ATOM      4  C   UNL     1      -1.500   5.948  -5.091  0.00  0.00    -0.012 A 
ATOM      5  C   UNL     1      -0.370   6.717  -4.868  0.00  0.00    -0.004 A 
ATOM      6  C   UNL     1       0.608   6.833  -5.837  0.00  0.00    -0.005 A 
ENDROOT
BRANCH   4   7
ATOM      7  C   UNL     1      -2.823   6.666  -4.462  0.00  0.00    +0.126 C 
ATOM      8  C   UNL     1      -1.995   8.081  -4.196  0.00  0.00    +0.017 C 
BRANCH   7   9
ATOM      9  C   UNL     1      -2.471   6.122  -2.967  0.00  0.00    +0.368 C 
ATOM     10  O   UNL     1      -2.738   4.753  -2.878  0.00  0.00    -0.245 OA
ATOM     11  O   UNL     1      -3.040   6.844  -2.094  0.00  0.00    -0.245 OA
ENDBRANCH   7   9
ENDBRANCH   4   7
BRANCH   1  12
ATOM     12  C   UNL     1       1.836   5.433  -7.507  0.00  0.00    +0.026 C 
BRANCH  12  14
ATOM     13  C   UNL     1       2.818   6.926  -8.768  0.00  0.00    +0.000 C 
ATOM     14  C   UNL     1       2.931   6.450  -7.764  0.00  0.00    +0.004 C 
ATOM     15  C   UNL     1       4.235   5.662  -7.762  0.00  0.00    +0.000 C 
ENDBRANCH  12  14
ENDBRANCH   1  12
TORSDOF 4
ENDMDL
MODEL 5
REMARK VINA RESULT:      -6.6      5.607      7.382
REMARK  Name = 
REMARK  4 active torsions:
REMARK  status: ('A' for Active; 'I' for Inactive)
REMARK    1  A    between atoms: C_2  and  C_4
REMARK    2  A    between atoms: C_4  and  C_5
REMARK    3  A    between atoms: C_8  and  C_9
REMARK    4  A    between atoms: C_9  and  C_11
REMARK                            x       y       z     vdW  Elec       q    Type
REMARK                         _______ _______ _______ _____ _____    ______ ____
ROOT
ATOM      1  C   UNL     1      -0.173   5.901  -7.225  0.00  0.00    -0.022 A 
ATOM      2  C   UNL     1      -1.459   5.510  -6.887  0.00  0.00    -0.005 A 
ATOM      3  C   UNL     1      -1.942   5.708  -5.599  0.00  0.00    -0.004 A 
ATOM      4  C   UNL     1      -1.061   5.876  -4.536  0.00  0.00    -0.012 A 
ATOM      5  C   UNL     1       0.173   6.403  -4.879  0.00  0.00    -0.004 A 
ATOM      6  C   UNL     1       0.566   6.478  -6.202  0.00  0.00    -0.005 A 
ENDROOT
BRANCH   4   7
ATOM      7  C   UNL     1      -1.730   6.719  -3.311  0.00  0.00    +0.126 C 
ATOM      8  C   UNL     1      -0.768   5.960  -2.190  0.00  0.00    +0.017 C 
BRANCH   7   9
ATOM      9  C   UNL     1      -2.909   5.610  -3.122  0.00  0.00    +0.368 C 
ATOM     10  O   UNL     1      -4.118   6.240  -2.817  0.00  0.00    -0.245 OA
ATOM     11  O   UNL     1      -2.540   4.715  -2.302  0.00  0.00    -0.245 OA
ENDBRANCH   7   9
ENDBRANCH   4   7
BRANCH   1  12
ATOM     12  C   UNL     1       0.509   5.125  -8.305  0.00  0.00    +0.026 C 
BRANCH  12  14
ATOM     13  C   UNL     1       0.147   4.687 -10.417  0.00  0.00    +0.000 C 
ATOM     14  C   UNL     1       0.008   5.516  -9.681  0.00  0.00    +0.004 C 
ATOM     15  C   UNL     1       0.880   6.685 -10.121  0.00  0.00    +0.000 C 
ENDBRANCH  12  14
ENDBRANCH   1  12
TORSDOF 4
ENDMDL
MODEL 6
REMARK VINA RESULT:      -6.5      5.119      8.776
REMARK  Name = 
REMARK  4 active torsions:
REMARK  status: ('A' for Active; 'I' for Inactive)
REMARK    1  A    between atoms: C_2  and  C_4
REMARK    2  A    between atoms: C_4  and  C_5
REMARK    3  A    between atoms: C_8  and  C_9
REMARK    4  A    between atoms: C_9  and  C_11
REMARK                            x       y       z     vdW  Elec       q    Type
REMARK                         _______ _______ _______ _____ _____    ______ ____
ROOT
ATOM      1  C   UNL     1      -1.904   6.868  -5.308  0.00  0.00    -0.022 A 
ATOM      2  C   UNL     1      -0.642   7.328  -4.963  0.00  0.00    -0.005 A 
ATOM      3  C   UNL     1       0.479   6.906  -5.666  0.00  0.00    -0.004 A 
ATOM      4  C   UNL     1       0.445   5.727  -6.403  0.00  0.00    -0.012 A 
ATOM      5  C   UNL     1      -0.810   5.362  -6.860  0.00  0.00    -0.004 A 
ATOM      6  C   UNL     1      -1.947   5.978  -6.371  0.00  0.00    -0.005 A 
ENDROOT
BRANCH   4   7
ATOM      7  C   UNL     1       1.525   5.735  -7.625  0.00  0.00    +0.126 C 
ATOM      8  C   UNL     1       0.346   5.390  -8.742  0.00  0.00    +0.017 C 
BRANCH   7   9
ATOM      9  C   UNL     1       1.855   4.153  -7.413  0.00  0.00    +0.368 C 
ATOM     10  O   UNL     1       2.362   3.935  -6.129  0.00  0.00    -0.245 OA
ATOM     11  O   UNL     1       2.578   3.726  -8.363  0.00  0.00    -0.245 OA
ENDBRANCH   7   9
ENDBRANCH   4   7
BRANCH   1  12
ATOM     12  C   UNL     1      -2.918   6.788  -4.213  0.00  0.00    +0.026 C 
BRANCH  12  14
ATOM     13  C   UNL     1      -2.893   5.035  -2.907  0.00  0.00    +0.000 C 
ATOM     14  C   UNL     1      -2.392   6.028  -3.012  0.00  0.00    +0.004 C 
ATOM     15  C   UNL     1      -2.761   6.870  -1.797  0.00  0.00    +0.000 C 
ENDBRANCH  12  14
ENDBRANCH   1  12
TORSDOF 4
ENDMDL
MODEL 7
REMARK VINA RESULT:      -6.2      5.277      7.570
REMARK  Name = 
REMARK  4 active torsions:
REMARK  status: ('A' for Active; 'I' for Inactive)
REMARK    1  A    between atoms: C_2  and  C_4
REMARK    2  A    between atoms: C_4  and  C_5
REMARK    3  A    between atoms: C_8  and  C_9
REMARK    4  A    between atoms: C_9  and  C_11
REMARK                            x       y       z     vdW  Elec       q    Type
REMARK                         _______ _______ _______ _____ _____    ______ ____
ROOT
ATOM      1  C   UNL     1       0.617   5.567  -5.461  0.00  0.00    -0.022 A 
ATOM      2  C   UNL     1       0.774   5.594  -4.084  0.00  0.00    -0.005 A 
ATOM      3  C   UNL     1      -0.218   6.131  -3.272  0.00  0.00    -0.004 A 
ATOM      4  C   UNL     1      -1.149   7.023  -3.794  0.00  0.00    -0.012 A 
ATOM      5  C   UNL     1      -1.394   6.883  -5.149  0.00  0.00    -0.004 A 
ATOM      6  C   UNL     1      -0.567   6.109  -5.941  0.00  0.00    -0.005 A 
ENDROOT
BRANCH   4   7
ATOM      7  C   UNL     1      -2.544   7.020  -2.949  0.00  0.00    +0.126 C 
ATOM      8  C   UNL     1      -1.740   7.251  -1.515  0.00  0.00    +0.017 C 
BRANCH   7   9
ATOM      9  C   UNL     1      -2.493   5.400  -2.772  0.00  0.00    +0.368 C 
ATOM     10  O   UNL     1      -3.467   4.797  -3.573  0.00  0.00    -0.245 OA
ATOM     11  O   UNL     1      -2.536   5.094  -1.542  0.00  0.00    -0.245 OA
ENDBRANCH   7   9
ENDBRANCH   4   7
BRANCH   1  12
ATOM     12  C   UNL     1       1.862   5.624  -6.285  0.00  0.00    +0.026 C 
BRANCH  12  14
ATOM     13  C   UNL     1       2.586   7.308  -7.479  0.00  0.00    +0.000 C 
ATOM     14  C   UNL     1       2.390   7.040  -6.412  0.00  0.00    +0.004 C 
ATOM     15  C   UNL     1       3.722   7.052  -5.672  0.00  0.00    +0.000 C 
ENDBRANCH  12  14
ENDBRANCH   1  12
TORSDOF 4
ENDMDL
MODEL 8
REMARK VINA RESULT:      -6.2      1.849      2.608
REMARK  Name = 
REMARK  4 active torsions:
REMARK  status: ('A' for Active; 'I' for Inactive)
REMARK    1  A    between atoms: C_2  and  C_4
REMARK    2  A    between atoms: C_4  and  C_5
REMARK    3  A    between atoms: C_8  and  C_9
REMARK    4  A    between atoms: C_9  and  C_11
REMARK                            x       y       z     vdW  Elec       q    Type
REMARK                         _______ _______ _______ _____ _____    ______ ____
ROOT
ATOM      1  C   UNL     1       4.676   5.494  -9.822  0.00  0.00    -0.022 A 
ATOM      2  C   UNL     1       5.262   5.324  -8.577  0.00  0.00    -0.005 A 
ATOM      3  C   UNL     1       4.567   5.650  -7.419  0.00  0.00    -0.004 A 
ATOM      4  C   UNL     1       3.493   6.534  -7.468  0.00  0.00    -0.012 A 
ATOM      5  C   UNL     1       2.832   6.581  -8.685  0.00  0.00    -0.004 A 
ATOM      6  C   UNL     1       3.385   6.005  -9.812  0.00  0.00    -0.005 A 
ENDROOT
BRANCH   4   7
ATOM      7  C   UNL     1       2.441   6.291  -6.246  0.00  0.00    +0.126 C 
ATOM      8  C   UNL     1       3.518   6.882  -5.129  0.00  0.00    +0.017 C 
BRANCH   7   9
ATOM      9  C   UNL     1       2.972   4.767  -6.023  0.00  0.00    +0.368 C 
ATOM     10  O   UNL     1       2.037   3.854  -6.521  0.00  0.00    -0.245 OA
ATOM     11  O   UNL     1       3.309   4.594  -4.813  0.00  0.00    -0.245 OA
ENDBRANCH   7   9
ENDBRANCH   4   7
BRANCH   1  12
ATOM     12  C   UNL     1       5.591   5.774 -10.969  0.00  0.00    +0.026 C 
BRANCH  12  14
ATOM     13  C   UNL     1       6.317   7.813 -11.283  0.00  0.00    +0.000 C 
ATOM     14  C   UNL     1       6.545   6.912 -10.664  0.00  0.00    +0.004 C 
ATOM     15  C   UNL     1       7.927   6.408 -11.060  0.00  0.00    +0.000 C 
ENDBRANCH  12  14
ENDBRANCH   1  12
TORSDOF 4
ENDMDL
MODEL 9
REMARK VINA RESULT:      -6.0      3.656      5.756
REMARK  Name = 
REMARK  4 active torsions:
REMARK  status: ('A' for Active; 'I' for Inactive)
REMARK    1  A    between atoms: C_2  and  C_4
REMARK    2  A    between atoms: C_4  and  C_5
REMARK    3  A    between atoms: C_8  and  C_9
REMARK    4  A    between atoms: C_9  and  C_11
REMARK                            x       y       z     vdW  Elec       q    Type
REMARK                         _______ _______ _______ _____ _____    ______ ____
ROOT
ATOM      1  C   UNL     1       2.470   5.185  -5.750  0.00  0.00    -0.022 A 
ATOM      2  C   UNL     1       2.098   6.152  -4.829  0.00  0.00    -0.005 A 
ATOM      3  C   UNL     1       0.756   6.399  -4.568  0.00  0.00    -0.004 A 
ATOM      4  C   UNL     1      -0.219   6.033  -5.490  0.00  0.00    -0.012 A 
ATOM      5  C   UNL     1       0.121   4.968  -6.307  0.00  0.00    -0.004 A 
ATOM      6  C   UNL     1       1.425   4.514  -6.370  0.00  0.00    -0.005 A 
ENDROOT
BRANCH   4   7
ATOM      7  C   UNL     1      -1.669   5.782  -4.786  0.00  0.00    +0.126 C 
ATOM      8  C   UNL     1      -2.441   5.762  -6.256  0.00  0.00    +0.017 C 
BRANCH   7   9
ATOM      9  C   UNL     1      -1.923   7.383  -4.619  0.00  0.00    +0.368 C 
ATOM     10  O   UNL     1      -2.166   7.694  -3.278  0.00  0.00    -0.245 OA
ATOM     11  O   UNL     1      -2.811   7.772  -5.436  0.00  0.00    -0.245 OA
ENDBRANCH   7   9
ENDBRANCH   4   7
BRANCH   1  12
ATOM     12  C   UNL     1       3.765   5.394  -6.466  0.00  0.00    +0.026 C 
BRANCH  12  14
ATOM     13  C   UNL     1       4.541   5.067  -8.484  0.00  0.00    +0.000 C 
ATOM     14  C   UNL     1       3.590   5.348  -7.971  0.00  0.00    +0.004 C 
ATOM     15  C   UNL     1       3.235   6.770  -8.389  0.00  0.00    +0.000 C 
ENDBRANCH  12  14
ENDBRANCH   1  12
TORSDOF 4
ENDMDL
