MODEL 1
REMARK VINA RESULT:      -8.0      0.000      0.000
REMARK  Name = 
REMARK  14 active torsions:
REMARK  status: ('A' for Active; 'I' for Inactive)
REMARK    1  A    between atoms: O_2  and  C_3
REMARK    2  A    between atoms: C_6  and  C_7
REMARK    3  A    between atoms: C_7  and  C_8
REMARK    4  A    between atoms: C_8  and  N_9
REMARK    5  A    between atoms: N_9  and  C_11
REMARK    6  A    between atoms: C_11  and  C_12
REMARK    7  A    between atoms: C_12  and  C_13
REMARK    8  A    between atoms: C_13  and  C_14
REMARK    9  A    between atoms: C_14  and  C_15
REMARK   10  A    between atoms: C_14  and  C_17
REMARK   11  A    between atoms: C_14  and  C_27
REMARK   12  A    between atoms: C_20  and  O_21
REMARK   13  A    between atoms: C_23  and  O_24
REMARK   14  A    between atoms: C_31  and  O_32
REMARK                            x       y       z     vdW  Elec       q    Type
REMARK                         _______ _______ _______ _____ _____    ______ ____
ROOT
ATOM      1  C   UNL     1       1.877   4.875  -7.035  0.00  0.00    +0.020 C 
ENDROOT
BRANCH   1   2
ATOM      2  C   UNL     1       2.139   6.119  -6.217  0.00  0.00    +0.098 C 
BRANCH   2   3
ATOM      3  C   UNL     1       1.029   6.281  -5.230  0.00  0.00    -0.006 A 
ATOM      4  C   UNL     1       0.908   5.345  -4.226  0.00  0.00    +0.037 A 
ATOM      5  C   UNL     1      -0.195   5.445  -3.390  0.00  0.00    +0.172 A 
ATOM      6  C   UNL     1      -1.312   6.182  -3.768  0.00  0.00    +0.172 A 
ATOM      7  C   UNL     1      -1.154   7.119  -4.781  0.00  0.00    +0.040 A 
ATOM      8  C   UNL     1       0.005   7.149  -5.528  0.00  0.00    +0.000 A 
BRANCH   6   9
ATOM      9  O   UNL     1      -2.571   5.672  -3.435  0.00  0.00    -0.468 OA
ATOM     10  C   UNL     1      -3.475   6.369  -2.614  0.00  0.00    +0.253 C 
ENDBRANCH   6   9
BRANCH   5  11
ATOM     11  O   UNL     1      -0.213   4.850  -2.125  0.00  0.00    -0.468 OA
ATOM     12  C   UNL     1      -0.058   5.660  -0.986  0.00  0.00    +0.253 C 
ENDBRANCH   5  11
ENDBRANCH   2   3
BRANCH   2  13
ATOM     13  C   UNL     1       3.479   6.004  -5.544  0.00  0.00    +0.017 C 
ATOM     14  C   UNL     1       3.930   7.276  -4.885  0.00  0.00    +0.001 C 
ATOM     15  C   UNL     1       4.488   5.479  -6.544  0.00  0.00    +0.001 C 
ENDBRANCH   2  13
BRANCH   2  16
ATOM     16  C   UNL     1       2.162   7.284  -7.119  0.00  0.00    +0.075 C 
ATOM     17  N   UNL     1       2.045   8.158  -7.884  0.00  0.00    -0.196 NA
ENDBRANCH   2  16
ENDBRANCH   1   2
BRANCH   1  18
ATOM     18  C   UNL     1       0.990   5.297  -8.197  0.00  0.00    +0.019 C 
BRANCH  18  19
ATOM     19  C   UNL     1       1.547   4.658  -9.457  0.00  0.00    +0.072 C 
BRANCH  19  20
ATOM     20  N   UNL     1       1.432   5.633 -10.535  0.00  0.00    -0.271 NA
ATOM     21  C   UNL     1       0.455   5.245 -11.523  0.00  0.00    +0.090 C 
BRANCH  20  22
ATOM     22  C   UNL     1       2.735   5.781 -11.134  0.00  0.00    +0.077 C 
BRANCH  22  23
ATOM     23  C   UNL     1       3.800   5.214 -10.214  0.00  0.00    +0.044 C 
BRANCH  23  27
ATOM     24  C   UNL     1       7.610   6.137 -11.743  0.00  0.00    +0.172 A 
ATOM     25  C   UNL     1       6.675   5.529 -12.562  0.00  0.00    +0.172 A 
ATOM     26  C   UNL     1       5.381   5.418 -12.117  0.00  0.00    +0.036 A 
ATOM     27  C   UNL     1       5.116   5.631 -10.786  0.00  0.00    -0.018 A 
ATOM     28  C   UNL     1       6.065   6.183  -9.942  0.00  0.00    -0.001 A 
ATOM     29  C   UNL     1       7.266   6.603 -10.487  0.00  0.00    +0.040 A 
BRANCH  24  31
ATOM     30  C   UNL     1       9.553   5.804 -12.194  0.00  0.00    +0.253 C 
ATOM     31  O   UNL     1       8.968   6.132 -12.068  0.00  0.00    -0.468 OA
ENDBRANCH  24  31
BRANCH  25  32
ATOM     32  O   UNL     1       7.086   5.074 -13.815  0.00  0.00    -0.468 OA
ATOM     33  C   UNL     1       6.904   5.946 -14.927  0.00  0.00    +0.253 C 
ENDBRANCH  25  32
ENDBRANCH  23  27
ENDBRANCH  22  23
ENDBRANCH  20  22
ENDBRANCH  19  20
ENDBRANCH  18  19
ENDBRANCH   1  18
TORSDOF 14
ENDMDL
MODEL 2
REMARK VINA RESULT:      -7.4      2.303      9.587
REMARK  Name = 
REMARK  14 active torsions:
REMARK  status: ('A' for Active; 'I' for Inactive)
REMARK    1  A    between atoms: O_2  and  C_3
REMARK    2  A    between atoms: C_6  and  C_7
REMARK    3  A    between atoms: C_7  and  C_8
REMARK    4  A    between atoms: C_8  and  N_9
REMARK    5  A    between atoms: N_9  and  C_11
REMARK    6  A    between atoms: C_11  and  C_12
REMARK    7  A    between atoms: C_12  and  C_13
REMARK    8  A    between atoms: C_13  and  C_14
REMARK    9  A    between atoms: C_14  and  C_15
REMARK   10  A    between atoms: C_14  and  C_17
REMARK   11  A    between atoms: C_14  and  C_27
REMARK   12  A    between atoms: C_20  and  O_21
REMARK   13  A    between atoms: C_23  and  O_24
REMARK   14  A    between atoms: C_31  and  O_32
REMARK                            x       y       z     vdW  Elec       q    Type
REMARK                         _______ _______ _______ _____ _____    ______ ____
ROOT
ATOM      1  C   UNL     1       2.207   6.857  -6.076  0.00  0.00    +0.020 C 
ENDROOT
BRANCH   1   2
ATOM      2  C   UNL     1       3.199   5.755  -6.372  0.00  0.00    +0.098 C 
BRANCH   2   3
ATOM      3  C   UNL     1       3.691   5.923  -7.772  0.00  0.00    -0.006 A 
ATOM      4  C   UNL     1       2.759   6.068  -8.777  0.00  0.00    +0.037 A 
ATOM      5  C   UNL     1       3.230   6.106 -10.082  0.00  0.00    +0.172 A 
ATOM      6  C   UNL     1       4.500   5.634 -10.397  0.00  0.00    +0.172 A 
ATOM      7  C   UNL     1       5.414   5.504  -9.359  0.00  0.00    +0.040 A 
ATOM      8  C   UNL     1       5.004   5.621  -8.049  0.00  0.00    +0.000 A 
BRANCH   6   9
ATOM      9  O   UNL     1       4.655   4.938 -11.600  0.00  0.00    -0.468 OA
ATOM     10  C   UNL     1       5.447   5.422 -12.655  0.00  0.00    +0.253 C 
ENDBRANCH   6   9
BRANCH   5  11
ATOM     11  O   UNL     1       2.471   6.655 -11.120  0.00  0.00    -0.468 OA
ATOM     12  C   UNL     1       1.276   6.020 -11.501  0.00  0.00    +0.253 C 
ENDBRANCH   5  11
ENDBRANCH   2   3
BRANCH   2  13
ATOM     13  C   UNL     1       4.319   5.807  -5.370  0.00  0.00    +0.017 C 
ATOM     14  C   UNL     1       4.229   4.741  -4.315  0.00  0.00    +0.001 C 
ATOM     15  C   UNL     1       4.390   7.201  -4.782  0.00  0.00    +0.001 C 
ENDBRANCH   2  13
BRANCH   2  16
ATOM     16  C   UNL     1       2.515   4.455  -6.248  0.00  0.00    +0.075 C 
ATOM     17  N   UNL     1       2.028   3.395  -6.290  0.00  0.00    -0.196 NA
ENDBRANCH   2  16
ENDBRANCH   1   2
BRANCH   1  18
ATOM     18  C   UNL     1       1.155   6.260  -5.152  0.00  0.00    +0.019 C 
BRANCH  18  19
ATOM     19  C   UNL     1      -0.193   6.824  -5.563  0.00  0.00    +0.072 C 
BRANCH  19  20
ATOM     20  N   UNL     1      -1.174   5.751  -5.449  0.00  0.00    -0.271 NA
ATOM     21  C   UNL     1      -1.641   5.296  -6.735  0.00  0.00    +0.090 C 
BRANCH  20  22
ATOM     22  C   UNL     1      -2.270   6.241  -4.650  0.00  0.00    +0.077 C 
BRANCH  22  23
ATOM     23  C   UNL     1      -2.488   5.336  -3.452  0.00  0.00    +0.044 C 
BRANCH  23  27
ATOM     24  C   UNL     1      -0.581   6.934  -0.058  0.00  0.00    +0.172 A 
ATOM     25  C   UNL     1       0.065   5.971  -0.813  0.00  0.00    +0.172 A 
ATOM     26  C   UNL     1      -0.477   5.608  -2.021  0.00  0.00    +0.036 A 
ATOM     27  C   UNL     1      -1.770   5.974  -2.307  0.00  0.00    -0.018 A 
ATOM     28  C   UNL     1      -2.448   6.892  -1.522  0.00  0.00    -0.001 A 
ATOM     29  C   UNL     1      -1.763   7.507  -0.489  0.00  0.00    +0.040 A 
BRANCH  24  31
ATOM     30  C   UNL     1      -0.306   7.331   1.906  0.00  0.00    +0.253 C 
ATOM     31  O   UNL     1      -0.172   7.225   1.245  0.00  0.00    -0.468 OA
ENDBRANCH  24  31
BRANCH  25  32
ATOM     32  O   UNL     1       1.251   5.426  -0.321  0.00  0.00    -0.468 OA
ATOM     33  C   UNL     1       2.410   5.514  -1.146  0.00  0.00    +0.253 C 
ENDBRANCH  25  32
ENDBRANCH  23  27
ENDBRANCH  22  23
ENDBRANCH  20  22
ENDBRANCH  19  20
ENDBRANCH  18  19
ENDBRANCH   1  18
TORSDOF 14
ENDMDL
MODEL 3
REMARK VINA RESULT:      -7.4      1.678      9.627
REMARK  Name = 
REMARK  14 active torsions:
REMARK  status: ('A' for Active; 'I' for Inactive)
REMARK    1  A    between atoms: O_2  and  C_3
REMARK    2  A    between atoms: C_6  and  C_7
REMARK    3  A    between atoms: C_7  and  C_8
REMARK    4  A    between atoms: C_8  and  N_9
REMARK    5  A    between atoms: N_9  and  C_11
REMARK    6  A    between atoms: C_11  and  C_12
REMARK    7  A    between atoms: C_12  and  C_13
REMARK    8  A    between atoms: C_13  and  C_14
REMARK    9  A    between atoms: C_14  and  C_15
REMARK   10  A    between atoms: C_14  and  C_17
REMARK   11  A    between atoms: C_14  and  C_27
REMARK   12  A    between atoms: C_20  and  O_21
REMARK   13  A    between atoms: C_23  and  O_24
REMARK   14  A    between atoms: C_31  and  O_32
REMARK                            x       y       z     vdW  Elec       q    Type
REMARK                         _______ _______ _______ _____ _____    ______ ____
ROOT
ATOM      1  C   UNL     1       3.975   5.523  -7.161  0.00  0.00    +0.020 C 
ENDROOT
BRANCH   1   2
ATOM      2  C   UNL     1       3.260   5.994  -8.407  0.00  0.00    +0.098 C 
BRANCH   2   3
ATOM      3  C   UNL     1       4.257   6.101  -9.514  0.00  0.00    -0.006 A 
ATOM      4  C   UNL     1       3.812   5.948 -10.809  0.00  0.00    +0.037 A 
ATOM      5  C   UNL     1       4.769   5.936 -11.815  0.00  0.00    +0.172 A 
ATOM      6  C   UNL     1       6.106   5.693 -11.525  0.00  0.00    +0.172 A 
ATOM      7  C   UNL     1       6.521   5.860 -10.209  0.00  0.00    +0.040 A 
ATOM      8  C   UNL     1       5.595   6.036  -9.203  0.00  0.00    +0.000 A 
BRANCH   6   9
ATOM      9  O   UNL     1       6.836   4.914 -12.428  0.00  0.00    -0.468 OA
ATOM     10  C   UNL     1       7.970   5.401 -13.100  0.00  0.00    +0.253 C 
ENDBRANCH   6   9
BRANCH   5  11
ATOM     11  O   UNL     1       4.436   6.208 -13.146  0.00  0.00    -0.468 OA
ATOM     12  C   UNL     1       3.632   5.293 -13.849  0.00  0.00    +0.253 C 
ENDBRANCH   5  11
ENDBRANCH   2   3
BRANCH   2  13
ATOM     13  C   UNL     1       2.150   5.035  -8.739  0.00  0.00    +0.017 C 
ATOM     14  C   UNL     1       0.822   5.432  -8.159  0.00  0.00    +0.001 C 
ATOM     15  C   UNL     1       2.567   3.637  -8.330  0.00  0.00    +0.001 C 
ENDBRANCH   2  13
BRANCH   2  16
ATOM     16  C   UNL     1       2.676   7.321  -8.146  0.00  0.00    +0.075 C 
ATOM     17  N   UNL     1       2.114   8.339  -8.051  0.00  0.00    -0.196 NA
ENDBRANCH   2  16
ENDBRANCH   1   2
BRANCH   1  18
ATOM     18  C   UNL     1       3.386   6.308  -5.998  0.00  0.00    +0.019 C 
BRANCH  18  19
ATOM     19  C   UNL     1       4.539   6.808  -5.146  0.00  0.00    +0.072 C 
BRANCH  19  20
ATOM     20  N   UNL     1       4.285   6.395  -3.772  0.00  0.00    -0.271 NA
ATOM     21  C   UNL     1       4.659   5.023  -3.533  0.00  0.00    +0.090 C 
BRANCH  20  22
ATOM     22  C   UNL     1       2.883   6.597  -3.504  0.00  0.00    +0.077 C 
BRANCH  22  23
ATOM     23  C   UNL     1       2.364   5.503  -2.589  0.00  0.00    +0.044 C 
BRANCH  23  27
ATOM     24  C   UNL     1      -1.819   5.741  -2.979  0.00  0.00    +0.172 A 
ATOM     25  C   UNL     1      -1.018   5.955  -4.086  0.00  0.00    +0.172 A 
ATOM     26  C   UNL     1       0.323   5.677  -3.993  0.00  0.00    +0.036 A 
ATOM     27  C   UNL     1       0.878   5.489  -2.750  0.00  0.00    -0.018 A 
ATOM     28  C   UNL     1       0.086   5.334  -1.625  0.00  0.00    -0.001 A 
ATOM     29  C   UNL     1      -1.287   5.282  -1.788  0.00  0.00    +0.040 A 
BRANCH  24  31
ATOM     30  C   UNL     1      -3.654   6.549  -2.715  0.00  0.00    +0.253 C 
ATOM     31  O   UNL     1      -3.153   6.157  -2.960  0.00  0.00    -0.468 OA
ENDBRANCH  24  31
BRANCH  25  32
ATOM     32  O   UNL     1      -1.614   6.425  -5.256  0.00  0.00    -0.468 OA
ATOM     33  C   UNL     1      -2.284   5.476  -6.083  0.00  0.00    +0.253 C 
ENDBRANCH  25  32
ENDBRANCH  23  27
ENDBRANCH  22  23
ENDBRANCH  20  22
ENDBRANCH  19  20
ENDBRANCH  18  19
ENDBRANCH   1  18
TORSDOF 14
ENDMDL
MODEL 4
REMARK VINA RESULT:      -7.4      1.476      2.448
REMARK  Name = 
REMARK  14 active torsions:
REMARK  status: ('A' for Active; 'I' for Inactive)
REMARK    1  A    between atoms: O_2  and  C_3
REMARK    2  A    between atoms: C_6  and  C_7
REMARK    3  A    between atoms: C_7  and  C_8
REMARK    4  A    between atoms: C_8  and  N_9
REMARK    5  A    between atoms: N_9  and  C_11
REMARK    6  A    between atoms: C_11  and  C_12
REMARK    7  A    between atoms: C_12  and  C_13
REMARK    8  A    between atoms: C_13  and  C_14
REMARK    9  A    between atoms: C_14  and  C_15
REMARK   10  A    between atoms: C_14  and  C_17
REMARK   11  A    between atoms: C_14  and  C_27
REMARK   12  A    between atoms: C_20  and  O_21
REMARK   13  A    between atoms: C_23  and  O_24
REMARK   14  A    between atoms: C_31  and  O_32
REMARK                            x       y       z     vdW  Elec       q    Type
REMARK                         _______ _______ _______ _____ _____    ______ ____
ROOT
ATOM      1  C   UNL     1       1.689   6.989  -5.586  0.00  0.00    +0.020 C 
ENDROOT
BRANCH   1   2
ATOM      2  C   UNL     1       2.460   6.230  -4.530  0.00  0.00    +0.098 C 
BRANCH   2   3
ATOM      3  C   UNL     1       1.495   5.735  -3.503  0.00  0.00    -0.006 A 
ATOM      4  C   UNL     1       0.149   5.806  -3.786  0.00  0.00    +0.037 A 
ATOM      5  C   UNL     1      -0.735   5.451  -2.775  0.00  0.00    +0.172 A 
ATOM      6  C   UNL     1      -0.322   5.409  -1.448  0.00  0.00    +0.172 A 
ATOM      7  C   UNL     1       1.043   5.335  -1.200  0.00  0.00    +0.040 A 
ATOM      8  C   UNL     1       1.949   5.525  -2.221  0.00  0.00    +0.000 A 
BRANCH   6   9
ATOM      9  O   UNL     1      -1.218   5.859  -0.474  0.00  0.00    -0.468 OA
ATOM     10  C   UNL     1      -1.755   7.158  -0.484  0.00  0.00    +0.253 C 
ENDBRANCH   6   9
BRANCH   5  11
ATOM     11  O   UNL     1      -2.055   5.082  -3.052  0.00  0.00    -0.468 OA
ATOM     12  C   UNL     1      -2.623   5.451  -4.284  0.00  0.00    +0.253 C 
ENDBRANCH   5  11
ENDBRANCH   2   3
BRANCH   2  13
ATOM     13  C   UNL     1       3.221   5.105  -5.177  0.00  0.00    +0.017 C 
ATOM     14  C   UNL     1       2.336   4.054  -5.783  0.00  0.00    +0.001 C 
ATOM     15  C   UNL     1       4.200   4.532  -4.174  0.00  0.00    +0.001 C 
ENDBRANCH   2  13
BRANCH   2  16
ATOM     16  C   UNL     1       3.422   7.146  -3.894  0.00  0.00    +0.075 C 
ATOM     17  N   UNL     1       4.113   7.841  -3.259  0.00  0.00    -0.196 NA
ENDBRANCH   2  16
ENDBRANCH   1   2
BRANCH   1  18
ATOM     18  C   UNL     1       2.650   7.225  -6.742  0.00  0.00    +0.019 C 
BRANCH  18  19
ATOM     19  C   UNL     1       1.821   7.500  -7.984  0.00  0.00    +0.072 C 
BRANCH  19  20
ATOM     20  N   UNL     1       2.300   6.617  -9.040  0.00  0.00    -0.271 NA
ATOM     21  C   UNL     1       1.437   5.479  -9.238  0.00  0.00    +0.090 C 
BRANCH  20  22
ATOM     22  C   UNL     1       3.633   6.194  -8.688  0.00  0.00    +0.077 C 
BRANCH  22  23
ATOM     23  C   UNL     1       4.050   5.016  -9.548  0.00  0.00    +0.044 C 
BRANCH  23  27
ATOM     24  C   UNL     1       7.541   6.011 -11.677  0.00  0.00    +0.172 A 
ATOM     25  C   UNL     1       6.455   5.484 -12.354  0.00  0.00    +0.172 A 
ATOM     26  C   UNL     1       5.262   5.355 -11.688  0.00  0.00    +0.036 A 
ATOM     27  C   UNL     1       5.251   5.461 -10.319  0.00  0.00    -0.018 A 
ATOM     28  C   UNL     1       6.354   5.929  -9.624  0.00  0.00    -0.001 A 
ATOM     29  C   UNL     1       7.446   6.377 -10.347  0.00  0.00    +0.040 A 
BRANCH  24  31
ATOM     30  C   UNL     1       9.477   5.848 -12.236  0.00  0.00    +0.253 C 
ATOM     31  O   UNL     1       8.816   6.015 -12.247  0.00  0.00    -0.468 OA
ENDBRANCH  24  31
BRANCH  25  32
ATOM     32  O   UNL     1       6.617   5.128 -13.693  0.00  0.00    -0.468 OA
ATOM     33  C   UNL     1       6.317   6.112 -14.679  0.00  0.00    +0.253 C 
ENDBRANCH  25  32
ENDBRANCH  23  27
ENDBRANCH  22  23
ENDBRANCH  20  22
ENDBRANCH  19  20
ENDBRANCH  18  19
ENDBRANCH   1  18
TORSDOF 14
ENDMDL
MODEL 5
REMARK VINA RESULT:      -7.3      1.529     10.081
REMARK  Name = 
REMARK  14 active torsions:
REMARK  status: ('A' for Active; 'I' for Inactive)
REMARK    1  A    between atoms: O_2  and  C_3
REMARK    2  A    between atoms: C_6  and  C_7
REMARK    3  A    between atoms: C_7  and  C_8
REMARK    4  A    between atoms: C_8  and  N_9
REMARK    5  A    between atoms: N_9  and  C_11
REMARK    6  A    between atoms: C_11  and  C_12
REMARK    7  A    between atoms: C_12  and  C_13
REMARK    8  A    between atoms: C_13  and  C_14
REMARK    9  A    between atoms: C_14  and  C_15
REMARK   10  A    between atoms: C_14  and  C_17
REMARK   11  A    between atoms: C_14  and  C_27
REMARK   12  A    between atoms: C_20  and  O_21
REMARK   13  A    between atoms: C_23  and  O_24
REMARK   14  A    between atoms: C_31  and  O_32
REMARK                            x       y       z     vdW  Elec       q    Type
REMARK                         _______ _______ _______ _____ _____    ______ ____
ROOT
ATOM      1  C   UNL     1       3.317   6.905  -8.656  0.00  0.00    +0.020 C 
ENDROOT
BRANCH   1   2
ATOM      2  C   UNL     1       3.461   5.814  -9.693  0.00  0.00    +0.098 C 
BRANCH   2   3
ATOM      3  C   UNL     1       4.433   6.272 -10.731  0.00  0.00    -0.006 A 
ATOM      4  C   UNL     1       4.702   5.429 -11.787  0.00  0.00    +0.037 A 
ATOM      5  C   UNL     1       5.692   5.821 -12.679  0.00  0.00    +0.172 A 
ATOM      6  C   UNL     1       6.627   6.789 -12.327  0.00  0.00    +0.172 A 
ATOM      7  C   UNL     1       6.320   7.623 -11.259  0.00  0.00    +0.040 A 
ATOM      8  C   UNL     1       5.241   7.348 -10.447  0.00  0.00    +0.000 A 
BRANCH   6   9
ATOM      9  O   UNL     1       7.945   6.607 -12.757  0.00  0.00    -0.468 OA
ATOM     10  C   UNL     1       8.862   5.802 -12.060  0.00  0.00    +0.253 C 
ENDBRANCH   6   9
BRANCH   5  11
ATOM     11  O   UNL     1       5.765   5.294 -13.972  0.00  0.00    -0.468 OA
ATOM     12  C   UNL     1       5.560   6.148 -15.070  0.00  0.00    +0.253 C 
ENDBRANCH   5  11
ENDBRANCH   2   3
BRANCH   2  13
ATOM     13  C   UNL     1       3.908   4.543  -9.024  0.00  0.00    +0.017 C 
ATOM     14  C   UNL     1       2.772   3.642  -8.631  0.00  0.00    +0.001 C 
ATOM     15  C   UNL     1       4.804   4.891  -7.853  0.00  0.00    +0.001 C 
ENDBRANCH   2  13
BRANCH   2  16
ATOM     16  C   UNL     1       2.149   5.581 -10.322  0.00  0.00    +0.075 C 
ATOM     17  N   UNL     1       1.093   5.548 -10.817  0.00  0.00    -0.196 NA
ENDBRANCH   2  16
ENDBRANCH   1   2
BRANCH   1  18
ATOM     18  C   UNL     1       1.826   7.066  -8.399  0.00  0.00    +0.019 C 
BRANCH  18  19
ATOM     19  C   UNL     1       1.576   6.775  -6.930  0.00  0.00    +0.072 C 
BRANCH  19  20
ATOM     20  N   UNL     1       0.904   5.484  -6.844  0.00  0.00    -0.271 NA
ATOM     21  C   UNL     1      -0.514   5.586  -7.088  0.00  0.00    +0.090 C 
BRANCH  20  22
ATOM     22  C   UNL     1       1.159   4.942  -5.532  0.00  0.00    +0.077 C 
BRANCH  22  23
ATOM     23  C   UNL     1       1.643   6.037  -4.600  0.00  0.00    +0.044 C 
BRANCH  23  27
ATOM     24  C   UNL     1      -0.642   5.856  -1.072  0.00  0.00    +0.172 A 
ATOM     25  C   UNL     1      -1.170   5.364  -2.252  0.00  0.00    +0.172 A 
ATOM     26  C   UNL     1      -0.346   5.244  -3.344  0.00  0.00    +0.036 A 
ATOM     27  C   UNL     1       0.871   5.882  -3.330  0.00  0.00    -0.018 A 
ATOM     28  C   UNL     1       1.382   6.432  -2.167  0.00  0.00    -0.001 A 
ATOM     29  C   UNL     1       0.681   6.249  -0.988  0.00  0.00    +0.040 A 
BRANCH  24  31
ATOM     30  C   UNL     1      -1.657   6.564   0.528  0.00  0.00    +0.253 C 
ATOM     31  O   UNL     1      -1.463   6.154   0.018  0.00  0.00    -0.468 OA
ENDBRANCH  24  31
BRANCH  25  32
ATOM     32  O   UNL     1      -2.514   4.991  -2.274  0.00  0.00    -0.468 OA
ATOM     33  C   UNL     1      -3.428   5.855  -2.945  0.00  0.00    +0.253 C 
ENDBRANCH  25  32
ENDBRANCH  23  27
ENDBRANCH  22  23
ENDBRANCH  20  22
ENDBRANCH  19  20
ENDBRANCH  18  19
ENDBRANCH   1  18
TORSDOF 14
ENDMDL
MODEL 6
REMARK VINA RESULT:      -7.2      2.014      2.924
REMARK  Name = 
REMARK  14 active torsions:
REMARK  status: ('A' for Active; 'I' for Inactive)
REMARK    1  A    between atoms: O_2  and  C_3
REMARK    2  A    between atoms: C_6  and  C_7
REMARK    3  A    between atoms: C_7  and  C_8
REMARK    4  A    between atoms: C_8  and  N_9
REMARK    5  A    between atoms: N_9  and  C_11
REMARK    6  A    between atoms: C_11  and  C_12
REMARK    7  A    between atoms: C_12  and  C_13
REMARK    8  A    between atoms: C_13  and  C_14
REMARK    9  A    between atoms: C_14  and  C_15
REMARK   10  A    between atoms: C_14  and  C_17
REMARK   11  A    between atoms: C_14  and  C_27
REMARK   12  A    between atoms: C_20  and  O_21
REMARK   13  A    between atoms: C_23  and  O_24
REMARK   14  A    between atoms: C_31  and  O_32
REMARK                            x       y       z     vdW  Elec       q    Type
REMARK                         _______ _______ _______ _____ _____    ______ ____
ROOT
ATOM      1  C   UNL     1       3.442   4.670  -3.459  0.00  0.00    +0.020 C 
ENDROOT
BRANCH   1   2
ATOM      2  C   UNL     1       2.922   5.953  -2.851  0.00  0.00    +0.098 C 
BRANCH   2   3
ATOM      3  C   UNL     1       1.513   6.156  -3.306  0.00  0.00    -0.006 A 
ATOM      4  C   UNL     1       0.536   5.338  -2.783  0.00  0.00    +0.037 A 
ATOM      5  C   UNL     1      -0.746   5.464  -3.302  0.00  0.00    +0.172 A 
ATOM      6  C   UNL     1      -0.961   6.078  -4.531  0.00  0.00    +0.172 A 
ATOM      7  C   UNL     1       0.045   6.898  -5.027  0.00  0.00    +0.040 A 
ATOM      8  C   UNL     1       1.288   6.915  -4.430  0.00  0.00    +0.000 A 
BRANCH   6   9
ATOM      9  O   UNL     1      -1.936   5.530  -5.370  0.00  0.00    -0.468 OA
ATOM     10  C   UNL     1      -1.785   5.472  -6.766  0.00  0.00    +0.253 C 
ENDBRANCH   6   9
BRANCH   5  11
ATOM     11  O   UNL     1      -1.869   5.020  -2.598  0.00  0.00    -0.468 OA
ATOM     12  C   UNL     1      -2.214   5.657  -1.392  0.00  0.00    +0.253 C 
ENDBRANCH   5  11
ENDBRANCH   2   3
BRANCH   2  13
ATOM     13  C   UNL     1       3.025   5.875  -1.353  0.00  0.00    +0.017 C 
ATOM     14  C   UNL     1       2.900   7.210  -0.674  0.00  0.00    +0.001 C 
ATOM     15  C   UNL     1       4.305   5.154  -0.984  0.00  0.00    +0.001 C 
ENDBRANCH   2  13
BRANCH   2  16
ATOM     16  C   UNL     1       3.753   7.074  -3.324  0.00  0.00    +0.075 C 
ATOM     17  N   UNL     1       4.365   8.036  -3.574  0.00  0.00    -0.196 NA
ENDBRANCH   2  16
ENDBRANCH   1   2
BRANCH   1  18
ATOM     18  C   UNL     1       4.080   5.046  -4.788  0.00  0.00    +0.019 C 
BRANCH  18  19
ATOM     19  C   UNL     1       3.295   4.353  -5.888  0.00  0.00    +0.072 C 
BRANCH  19  20
ATOM     20  N   UNL     1       3.040   5.335  -6.935  0.00  0.00    -0.271 NA
ATOM     21  C   UNL     1       1.877   5.008  -7.723  0.00  0.00    +0.090 C 
BRANCH  20  22
ATOM     22  C   UNL     1       4.217   5.408  -7.765  0.00  0.00    +0.077 C 
BRANCH  22  23
ATOM     23  C   UNL     1       3.870   6.019  -9.110  0.00  0.00    +0.044 C 
BRANCH  23  27
ATOM     24  C   UNL     1       7.476   6.319 -11.258  0.00  0.00    +0.172 A 
ATOM     25  C   UNL     1       6.308   6.810 -11.814  0.00  0.00    +0.172 A 
ATOM     26  C   UNL     1       5.186   6.890 -11.027  0.00  0.00    +0.036 A 
ATOM     27  C   UNL     1       5.164   6.216  -9.830  0.00  0.00    -0.018 A 
ATOM     28  C   UNL     1       6.317   5.667  -9.293  0.00  0.00    -0.001 A 
ATOM     29  C   UNL     1       7.517   5.888  -9.945  0.00  0.00    +0.040 A 
BRANCH  24  31
ATOM     30  C   UNL     1       9.240   5.840 -12.122  0.00  0.00    +0.253 C 
ATOM     31  O   UNL     1       8.599   6.062 -12.046  0.00  0.00    -0.468 OA
ENDBRANCH  24  31
BRANCH  25  32
ATOM     32  O   UNL     1       6.329   7.223 -13.146  0.00  0.00    -0.468 OA
ATOM     33  C   UNL     1       5.756   6.352 -14.117  0.00  0.00    +0.253 C 
ENDBRANCH  25  32
ENDBRANCH  23  27
ENDBRANCH  22  23
ENDBRANCH  20  22
ENDBRANCH  19  20
ENDBRANCH  18  19
ENDBRANCH   1  18
TORSDOF 14
ENDMDL
MODEL 7
REMARK VINA RESULT:      -7.2      4.248      9.183
REMARK  Name = 
REMARK  14 active torsions:
REMARK  status: ('A' for Active; 'I' for Inactive)
REMARK    1  A    between atoms: O_2  and  C_3
REMARK    2  A    between atoms: C_6  and  C_7
REMARK    3  A    between atoms: C_7  and  C_8
REMARK    4  A    between atoms: C_8  and  N_9
REMARK    5  A    between atoms: N_9  and  C_11
REMARK    6  A    between atoms: C_11  and  C_12
REMARK    7  A    between atoms: C_12  and  C_13
REMARK    8  A    between atoms: C_13  and  C_14
REMARK    9  A    between atoms: C_14  and  C_15
REMARK   10  A    between atoms: C_14  and  C_17
REMARK   11  A    between atoms: C_14  and  C_27
REMARK   12  A    between atoms: C_20  and  O_21
REMARK   13  A    between atoms: C_23  and  O_24
REMARK   14  A    between atoms: C_31  and  O_32
REMARK                            x       y       z     vdW  Elec       q    Type
REMARK                         _______ _______ _______ _____ _____    ______ ____
ROOT
ATOM      1  C   UNL     1       1.206   5.171  -6.361  0.00  0.00    +0.020 C 
ENDROOT
BRANCH   1   2
ATOM      2  C   UNL     1       2.547   5.837  -6.568  0.00  0.00    +0.098 C 
BRANCH   2   3
ATOM      3  C   UNL     1       3.152   6.112  -5.230  0.00  0.00    -0.006 A 
ATOM      4  C   UNL     1       2.647   5.442  -4.137  0.00  0.00    +0.037 A 
ATOM      5  C   UNL     1       3.141   5.795  -2.888  0.00  0.00    +0.172 A 
ATOM      6  C   UNL     1       3.799   7.004  -2.697  0.00  0.00    +0.172 A 
ATOM      7  C   UNL     1       4.297   7.651  -3.821  0.00  0.00    +0.040 A 
ATOM      8  C   UNL     1       3.951   7.222  -5.084  0.00  0.00    +0.000 A 
BRANCH   6   9
ATOM      9  O   UNL     1       3.562   7.692  -1.503  0.00  0.00    -0.468 OA
ATOM     10  C   UNL     1       3.771   9.076  -1.375  0.00  0.00    +0.253 C 
ENDBRANCH   6   9
BRANCH   5  11
ATOM     11  O   UNL     1       3.035   4.937  -1.789  0.00  0.00    -0.468 OA
ATOM     12  C   UNL     1       4.209   4.494  -1.153  0.00  0.00    +0.253 C 
ENDBRANCH   5  11
ENDBRANCH   2   3
BRANCH   2  13
ATOM     13  C   UNL     1       3.423   4.952  -7.411  0.00  0.00    +0.017 C 
ATOM     14  C   UNL     1       4.489   5.700  -8.159  0.00  0.00    +0.001 C 
ATOM     15  C   UNL     1       2.547   4.121  -8.326  0.00  0.00    +0.001 C 
ENDBRANCH   2  13
BRANCH   2  16
ATOM     16  C   UNL     1       2.339   7.111  -7.279  0.00  0.00    +0.075 C 
ATOM     17  N   UNL     1       2.321   8.149  -7.813  0.00  0.00    -0.196 NA
ENDBRANCH   2  16
ENDBRANCH   1   2
BRANCH   1  18
ATOM     18  C   UNL     1       0.204   6.283  -6.087  0.00  0.00    +0.019 C 
BRANCH  18  19
ATOM     19  C   UNL     1      -1.180   5.660  -6.063  0.00  0.00    +0.072 C 
BRANCH  19  20
ATOM     20  N   UNL     1      -1.908   6.246  -4.943  0.00  0.00    -0.271 NA
ATOM     21  C   UNL     1      -1.667   7.662  -4.813  0.00  0.00    +0.090 C 
BRANCH  20  22
ATOM     22  C   UNL     1      -1.510   5.547  -3.747  0.00  0.00    +0.077 C 
BRANCH  22  23
ATOM     23  C   UNL     1      -2.492   5.831  -2.625  0.00  0.00    +0.044 C 
BRANCH  23  27
ATOM     24  C   UNL     1      -0.082   7.401   0.446  0.00  0.00    +0.172 A 
ATOM     25  C   UNL     1      -1.322   7.963   0.197  0.00  0.00    +0.172 A 
ATOM     26  C   UNL     1      -2.176   7.320  -0.664  0.00  0.00    +0.036 A 
ATOM     27  C   UNL     1      -1.681   6.325  -1.471  0.00  0.00    -0.018 A 
ATOM     28  C   UNL     1      -0.417   5.796  -1.268  0.00  0.00    -0.001 A 
ATOM     29  C   UNL     1       0.310   6.229  -0.174  0.00  0.00    +0.040 A 
BRANCH  24  31
ATOM     30  C   UNL     1       1.539   8.250   1.308  0.00  0.00    +0.253 C 
ATOM     31  O   UNL     1       0.888   8.087   1.180  0.00  0.00    -0.468 OA
ENDBRANCH  24  31
BRANCH  25  32
ATOM     32  O   UNL     1      -1.656   9.150   0.850  0.00  0.00    -0.468 OA
ATOM     33  C   UNL     1      -2.549   9.066   1.957  0.00  0.00    +0.253 C 
ENDBRANCH  25  32
ENDBRANCH  23  27
ENDBRANCH  22  23
ENDBRANCH  20  22
ENDBRANCH  19  20
ENDBRANCH  18  19
ENDBRANCH   1  18
TORSDOF 14
ENDMDL
MODEL 8
REMARK VINA RESULT:      -7.2      2.799      4.250
REMARK  Name = 
REMARK  14 active torsions:
REMARK  status: ('A' for Active; 'I' for Inactive)
REMARK    1  A    between atoms: O_2  and  C_3
REMARK    2  A    between atoms: C_6  and  C_7
REMARK    3  A    between atoms: C_7  and  C_8
REMARK    4  A    between atoms: C_8  and  N_9
REMARK    5  A    between atoms: N_9  and  C_11
REMARK    6  A    between atoms: C_11  and  C_12
REMARK    7  A    between atoms: C_12  and  C_13
REMARK    8  A    between atoms: C_13  and  C_14
REMARK    9  A    between atoms: C_14  and  C_15
REMARK   10  A    between atoms: C_14  and  C_17
REMARK   11  A    between atoms: C_14  and  C_27
REMARK   12  A    between atoms: C_20  and  O_21
REMARK   13  A    between atoms: C_23  and  O_24
REMARK   14  A    between atoms: C_31  and  O_32
REMARK                            x       y       z     vdW  Elec       q    Type
REMARK                         _______ _______ _______ _____ _____    ______ ____
ROOT
ATOM      1  C   UNL     1       3.179   4.550  -5.610  0.00  0.00    +0.020 C 
ENDROOT
BRANCH   1   2
ATOM      2  C   UNL     1       2.790   5.846  -4.935  0.00  0.00    +0.098 C 
BRANCH   2   3
ATOM      3  C   UNL     1       1.452   5.666  -4.295  0.00  0.00    -0.006 A 
ATOM      4  C   UNL     1       0.329   5.851  -5.072  0.00  0.00    +0.037 A 
ATOM      5  C   UNL     1      -0.903   5.793  -4.434  0.00  0.00    +0.172 A 
ATOM      6  C   UNL     1      -1.000   5.938  -3.055  0.00  0.00    +0.172 A 
ATOM      7  C   UNL     1       0.151   5.741  -2.303  0.00  0.00    +0.040 A 
ATOM      8  C   UNL     1       1.378   5.633  -2.922  0.00  0.00    +0.000 A 
BRANCH   6   9
ATOM      9  O   UNL     1      -2.086   6.662  -2.552  0.00  0.00    -0.468 OA
ATOM     10  C   UNL     1      -1.997   7.445  -1.388  0.00  0.00    +0.253 C 
ENDBRANCH   6   9
BRANCH   5  11
ATOM     11  O   UNL     1      -2.083   5.547  -5.142  0.00  0.00    -0.468 OA
ATOM     12  C   UNL     1      -2.029   5.434  -6.543  0.00  0.00    +0.253 C 
ENDBRANCH   5  11
ENDBRANCH   2   3
BRANCH   2  13
ATOM     13  C   UNL     1       3.847   6.226  -3.934  0.00  0.00    +0.017 C 
ATOM     14  C   UNL     1       4.547   7.515  -4.263  0.00  0.00    +0.001 C 
ATOM     15  C   UNL     1       4.810   5.068  -3.771  0.00  0.00    +0.001 C 
ENDBRANCH   2  13
BRANCH   2  16
ATOM     16  C   UNL     1       2.704   6.906  -5.956  0.00  0.00    +0.075 C 
ATOM     17  N   UNL     1       2.583   7.636  -6.858  0.00  0.00    -0.196 NA
ENDBRANCH   2  16
ENDBRANCH   1   2
BRANCH   1  18
ATOM     18  C   UNL     1       3.349   4.864  -7.089  0.00  0.00    +0.019 C 
BRANCH  18  19
ATOM     19  C   UNL     1       2.507   3.871  -7.871  0.00  0.00    +0.072 C 
BRANCH  19  20
ATOM     20  N   UNL     1       2.297   4.423  -9.204  0.00  0.00    -0.271 NA
ATOM     21  C   UNL     1       3.454   5.132  -9.692  0.00  0.00    +0.090 C 
BRANCH  20  22
ATOM     22  C   UNL     1       1.150   5.294  -9.143  0.00  0.00    +0.077 C 
BRANCH  22  23
ATOM     23  C   UNL     1       0.065   4.795 -10.078  0.00  0.00    +0.044 C 
BRANCH  23  27
ATOM     24  C   UNL     1       0.524   7.296 -13.431  0.00  0.00    +0.172 A 
ATOM     25  C   UNL     1       1.057   6.020 -13.454  0.00  0.00    +0.172 A 
ATOM     26  C   UNL     1       0.729   5.149 -12.444  0.00  0.00    +0.036 A 
ATOM     27  C   UNL     1       0.142   5.645 -11.305  0.00  0.00    -0.018 A 
ATOM     28  C   UNL     1      -0.341   6.941 -11.250  0.00  0.00    -0.001 A 
ATOM     29  C   UNL     1      -0.303   7.708 -12.401  0.00  0.00    +0.040 A 
BRANCH  24  31
ATOM     30  C   UNL     1       0.829   8.702 -14.852  0.00  0.00    +0.253 C 
ATOM     31  O   UNL     1       0.947   8.273 -14.335  0.00  0.00    -0.468 OA
ENDBRANCH  24  31
BRANCH  25  32
ATOM     32  O   UNL     1       1.890   5.667 -14.516  0.00  0.00    -0.468 OA
ATOM     33  C   UNL     1       3.296   5.682 -14.287  0.00  0.00    +0.253 C 
ENDBRANCH  25  32
ENDBRANCH  23  27
ENDBRANCH  22  23
ENDBRANCH  20  22
ENDBRANCH  19  20
ENDBRANCH  18  19
ENDBRANCH   1  18
TORSDOF 14
ENDMDL
MODEL 9
REMARK VINA RESULT:      -7.2      2.524      3.948
REMARK  Name = 
REMARK  14 active torsions:
REMARK  status: ('A' for Active; 'I' for Inactive)
REMARK    1  A    between atoms: O_2  and  C_3
REMARK    2  A    between atoms: C_6  and  C_7
REMARK    3  A    between atoms: C_7  and  C_8
REMARK    4  A    between atoms: C_8  and  N_9
REMARK    5  A    between atoms: N_9  and  C_11
REMARK    6  A    between atoms: C_11  and  C_12
REMARK    7  A    between atoms: C_12  and  C_13
REMARK    8  A    between atoms: C_13  and  C_14
REMARK    9  A    between atoms: C_14  and  C_15
REMARK   10  A    between atoms: C_14  and  C_17
REMARK   11  A    between atoms: C_14  and  C_27
REMARK   12  A    between atoms: C_20  and  O_21
REMARK   13  A    between atoms: C_23  and  O_24
REMARK   14  A    between atoms: C_31  and  O_32
REMARK                            x       y       z     vdW  Elec       q    Type
REMARK                         _______ _______ _______ _____ _____    ______ ____
ROOT
ATOM      1  C   UNL     1       2.385   4.984  -6.934  0.00  0.00    +0.020 C 
ENDROOT
BRANCH   1   2
ATOM      2  C   UNL     1       2.428   6.296  -6.183  0.00  0.00    +0.098 C 
BRANCH   2   3
ATOM      3  C   UNL     1       1.322   6.305  -5.179  0.00  0.00    -0.006 A 
ATOM      4  C   UNL     1       1.313   5.325  -4.211  0.00  0.00    +0.037 A 
ATOM      5  C   UNL     1       0.218   5.280  -3.359  0.00  0.00    +0.172 A 
ATOM      6  C   UNL     1      -0.975   5.910  -3.696  0.00  0.00    +0.172 A 
ATOM      7  C   UNL     1      -0.928   6.896  -4.675  0.00  0.00    +0.040 A 
ATOM      8  C   UNL     1       0.209   7.073  -5.433  0.00  0.00    +0.000 A 
BRANCH   6   9
ATOM      9  O   UNL     1      -2.169   5.261  -3.370  0.00  0.00    -0.468 OA
ATOM     10  C   UNL     1      -3.175   5.872  -2.602  0.00  0.00    +0.253 C 
ENDBRANCH   6   9
BRANCH   5  11
ATOM     11  O   UNL     1       0.280   4.639  -2.118  0.00  0.00    -0.468 OA
ATOM     12  C   UNL     1       0.755   5.354  -1.004  0.00  0.00    +0.253 C 
ENDBRANCH   5  11
ENDBRANCH   2   3
BRANCH   2  13
ATOM     13  C   UNL     1       3.776   6.460  -5.538  0.00  0.00    +0.017 C 
ATOM     14  C   UNL     1       4.390   5.162  -5.095  0.00  0.00    +0.001 C 
ATOM     15  C   UNL     1       3.664   7.464  -4.409  0.00  0.00    +0.001 C 
ENDBRANCH   2  13
BRANCH   2  16
ATOM     16  C   UNL     1       2.226   7.398  -7.141  0.00  0.00    +0.075 C 
ATOM     17  N   UNL     1       2.217   8.288  -7.895  0.00  0.00    -0.196 NA
ENDBRANCH   2  16
ENDBRANCH   1   2
BRANCH   1  18
ATOM     18  C   UNL     1       2.704   5.304  -8.387  0.00  0.00    +0.019 C 
BRANCH  18  19
ATOM     19  C   UNL     1       3.731   4.293  -8.866  0.00  0.00    +0.072 C 
BRANCH  19  20
ATOM     20  N   UNL     1       4.868   5.037  -9.396  0.00  0.00    -0.271 NA
ATOM     21  C   UNL     1       5.925   5.186  -8.426  0.00  0.00    +0.090 C 
BRANCH  20  22
ATOM     22  C   UNL     1       4.387   6.324  -9.831  0.00  0.00    +0.077 C 
BRANCH  22  23
ATOM     23  C   UNL     1       4.794   6.573 -11.271  0.00  0.00    +0.044 C 
BRANCH  23  27
ATOM     24  C   UNL     1       1.660   4.903 -13.529  0.00  0.00    +0.172 A 
ATOM     25  C   UNL     1       1.376   5.542 -12.335  0.00  0.00    +0.172 A 
ATOM     26  C   UNL     1       2.372   6.254 -11.714  0.00  0.00    +0.036 A 
ATOM     27  C   UNL     1       3.672   6.069 -12.120  0.00  0.00    -0.018 A 
ATOM     28  C   UNL     1       3.972   5.379 -13.282  0.00  0.00    -0.001 A 
ATOM     29  C   UNL     1       2.927   4.950 -14.082  0.00  0.00    +0.040 A 
BRANCH  24  31
ATOM     30  C   UNL     1       0.243   3.903 -14.569  0.00  0.00    +0.253 C 
ATOM     31  O   UNL     1       0.741   4.034 -14.121  0.00  0.00    -0.468 OA
ENDBRANCH  24  31
BRANCH  25  32
ATOM     32  O   UNL     1       0.080   5.452 -11.826  0.00  0.00    -0.468 OA
ATOM     33  C   UNL     1      -0.147   4.537 -10.757  0.00  0.00    +0.253 C 
ENDBRANCH  25  32
ENDBRANCH  23  27
ENDBRANCH  22  23
ENDBRANCH  20  22
ENDBRANCH  19  20
ENDBRANCH  18  19
ENDBRANCH   1  18
TORSDOF 14
ENDMDL
