MODEL 1
REMARK VINA RESULT:      -6.3      0.000      0.000
REMARK  Name = 
REMARK  7 active torsions:
REMARK  status: ('A' for Active; 'I' for Inactive)
REMARK    1  A    between atoms: C_2  and  N_3
REMARK    2  A    between atoms: N_3  and  C_4
REMARK    3  A    between atoms: N_3  and  C_6
REMARK    4  A    between atoms: C_6  and  C_7
REMARK    5  A    between atoms: C_7  and  O_8
REMARK    6  A    between atoms: O_8  and  C_9
REMARK    7  A    between atoms: C_9  and  C_11
REMARK                            x       y       z     vdW  Elec       q    Type
REMARK                         _______ _______ _______ _____ _____    ______ ____
ROOT
ATOM      1  C   UNL     1       4.950   5.113  -8.556  0.00  0.00    +0.342 C 
ATOM      2  O   UNL     1       4.794   5.594  -7.393  0.00  0.00    -0.245 OA
ENDROOT
BRANCH   1   3
ATOM      3  C   UNL     1       5.871   5.723  -9.525  0.00  0.00    +0.086 A 
ATOM      4  C   UNL     1       5.402   6.221 -10.734  0.00  0.00    +0.065 A 
ATOM      5 CL   UNL     1       3.698   6.615 -10.808  0.00  0.00    -0.082 Cl
ATOM      6  C   UNL     1       6.172   6.166 -11.888  0.00  0.00    +0.030 A 
ATOM      7  C   UNL     1       7.371   5.466 -11.866  0.00  0.00    +0.090 A 
ATOM      8  N   UNL     1       7.888   4.850 -13.044  0.00  0.00    -0.128 NA
ATOM      9  C   UNL     1       7.993   5.361 -10.634  0.00  0.00    +0.018 A 
ATOM     10  C   UNL     1       7.230   5.445  -9.493  0.00  0.00    +0.009 A 
ENDBRANCH   1   3
BRANCH   1  11
ATOM     11  O   UNL     1       4.012   4.173  -8.954  0.00  0.00    -0.444 OA
BRANCH  11  12
ATOM     12  C   UNL     1       2.773   3.958  -8.333  0.00  0.00    +0.226 C 
BRANCH  12  13
ATOM     13  C   UNL     1       1.715   4.948  -8.708  0.00  0.00    +0.120 C 
BRANCH  13  14
ATOM     14  N   UNL     1       0.929   5.236  -7.538  0.00  0.00    -0.270 NA
BRANCH  14  15
ATOM     15  C   UNL     1      -0.476   5.389  -7.794  0.00  0.00    +0.072 C 
ATOM     16  C   UNL     1      -1.216   5.520  -6.469  0.00  0.00    +0.019 C 
ENDBRANCH  14  15
BRANCH  14  18
ATOM     17  C   UNL     1       1.892   7.496  -7.635  0.00  0.00    +0.019 C 
ATOM     18  C   UNL     1       1.506   6.316  -6.779  0.00  0.00    +0.072 C 
ENDBRANCH  14  18
ENDBRANCH  13  14
ENDBRANCH  12  13
ENDBRANCH  11  12
ENDBRANCH   1  11
TORSDOF 7
ENDMDL
MODEL 2
REMARK VINA RESULT:      -6.2      0.889      1.809
REMARK  Name = 
REMARK  7 active torsions:
REMARK  status: ('A' for Active; 'I' for Inactive)
REMARK    1  A    between atoms: C_2  and  N_3
REMARK    2  A    between atoms: N_3  and  C_4
REMARK    3  A    between atoms: N_3  and  C_6
REMARK    4  A    between atoms: C_6  and  C_7
REMARK    5  A    between atoms: C_7  and  O_8
REMARK    6  A    between atoms: O_8  and  C_9
REMARK    7  A    between atoms: C_9  and  C_11
REMARK                            x       y       z     vdW  Elec       q    Type
REMARK                         _______ _______ _______ _____ _____    ______ ____
ROOT
ATOM      1  C   UNL     1       4.486   5.247  -8.771  0.00  0.00    +0.342 C 
ATOM      2  O   UNL     1       4.026   4.079  -8.943  0.00  0.00    -0.245 OA
ENDROOT
BRANCH   1   3
ATOM      3  C   UNL     1       5.453   5.840  -9.705  0.00  0.00    +0.086 A 
ATOM      4  C   UNL     1       5.082   6.154 -11.007  0.00  0.00    +0.065 A 
ATOM      5 CL   UNL     1       3.370   6.362 -11.303  0.00  0.00    -0.082 Cl
ATOM      6  C   UNL     1       5.981   6.055 -12.061  0.00  0.00    +0.030 A 
ATOM      7  C   UNL     1       7.227   5.487 -11.832  0.00  0.00    +0.090 A 
ATOM      8  N   UNL     1       7.929   4.804 -12.870  0.00  0.00    -0.128 NA
ATOM      9  C   UNL     1       7.712   5.579 -10.539  0.00  0.00    +0.018 A 
ATOM     10  C   UNL     1       6.819   5.707  -9.501  0.00  0.00    +0.009 A 
ENDBRANCH   1   3
BRANCH   1  11
ATOM     11  O   UNL     1       4.252   5.814  -7.528  0.00  0.00    -0.444 OA
BRANCH  11  12
ATOM     12  C   UNL     1       2.998   5.908  -6.909  0.00  0.00    +0.226 C 
BRANCH  12  13
ATOM     13  C   UNL     1       1.921   6.478  -7.778  0.00  0.00    +0.120 C 
BRANCH  13  14
ATOM     14  N   UNL     1       0.915   5.468  -7.975  0.00  0.00    -0.270 NA
BRANCH  14  15
ATOM     15  C   UNL     1       0.058   5.702  -9.104  0.00  0.00    +0.072 C 
ATOM     16  C   UNL     1       0.412   4.723 -10.215  0.00  0.00    +0.019 C 
ENDBRANCH  14  15
BRANCH  14  18
ATOM     17  C   UNL     1      -1.288   5.291  -6.900  0.00  0.00    +0.019 C 
ATOM     18  C   UNL     1       0.210   5.194  -6.750  0.00  0.00    +0.072 C 
ENDBRANCH  14  18
ENDBRANCH  13  14
ENDBRANCH  12  13
ENDBRANCH  11  12
ENDBRANCH   1  11
TORSDOF 7
ENDMDL
MODEL 3
REMARK VINA RESULT:      -6.1      3.427      7.675
REMARK  Name = 
REMARK  7 active torsions:
REMARK  status: ('A' for Active; 'I' for Inactive)
REMARK    1  A    between atoms: C_2  and  N_3
REMARK    2  A    between atoms: N_3  and  C_4
REMARK    3  A    between atoms: N_3  and  C_6
REMARK    4  A    between atoms: C_6  and  C_7
REMARK    5  A    between atoms: C_7  and  O_8
REMARK    6  A    between atoms: O_8  and  C_9
REMARK    7  A    between atoms: C_9  and  C_11
REMARK                            x       y       z     vdW  Elec       q    Type
REMARK                         _______ _______ _______ _____ _____    ______ ____
ROOT
ATOM      1  C   UNL     1       1.503   4.843  -5.794  0.00  0.00    +0.342 C 
ATOM      2  O   UNL     1       1.374   3.618  -6.092  0.00  0.00    -0.245 OA
ENDROOT
BRANCH   1   3
ATOM      3  C   UNL     1       0.479   5.561  -5.022  0.00  0.00    +0.086 A 
ATOM      4  C   UNL     1       0.580   5.673  -3.640  0.00  0.00    +0.065 A 
ATOM      5 CL   UNL     1       2.176   5.461  -2.954  0.00  0.00    -0.082 Cl
ATOM      6  C   UNL     1      -0.548   5.693  -2.831  0.00  0.00    +0.030 A 
ATOM      7  C   UNL     1      -1.790   5.445  -3.399  0.00  0.00    +0.090 A 
ATOM      8  N   UNL     1      -2.844   4.855  -2.640  0.00  0.00    -0.128 NA
ATOM      9  C   UNL     1      -1.919   5.753  -4.742  0.00  0.00    +0.018 A 
ATOM     10  C   UNL     1      -0.795   5.760  -5.534  0.00  0.00    +0.009 A 
ENDBRANCH   1   3
BRANCH   1  11
ATOM     11  O   UNL     1       2.505   5.529  -6.465  0.00  0.00    -0.444 OA
BRANCH  11  12
ATOM     12  C   UNL     1       2.657   6.922  -6.477  0.00  0.00    +0.226 C 
BRANCH  12  13
ATOM     13  C   UNL     1       2.243   7.577  -7.758  0.00  0.00    +0.120 C 
BRANCH  13  14
ATOM     14  N   UNL     1       2.371   6.616  -8.821  0.00  0.00    -0.270 NA
BRANCH  14  15
ATOM     15  C   UNL     1       3.606   6.702  -9.548  0.00  0.00    +0.072 C 
ATOM     16  C   UNL     1       4.129   5.296  -9.816  0.00  0.00    +0.019 C 
ENDBRANCH  14  15
BRANCH  14  18
ATOM     17  C   UNL     1       0.163   5.607  -9.209  0.00  0.00    +0.019 C 
ATOM     18  C   UNL     1       1.198   6.608  -9.657  0.00  0.00    +0.072 C 
ENDBRANCH  14  18
ENDBRANCH  13  14
ENDBRANCH  12  13
ENDBRANCH  11  12
ENDBRANCH   1  11
TORSDOF 7
ENDMDL
MODEL 4
REMARK VINA RESULT:      -6.1      1.579      2.119
REMARK  Name = 
REMARK  7 active torsions:
REMARK  status: ('A' for Active; 'I' for Inactive)
REMARK    1  A    between atoms: C_2  and  N_3
REMARK    2  A    between atoms: N_3  and  C_4
REMARK    3  A    between atoms: N_3  and  C_6
REMARK    4  A    between atoms: C_6  and  C_7
REMARK    5  A    between atoms: C_7  and  O_8
REMARK    6  A    between atoms: O_8  and  C_9
REMARK    7  A    between atoms: C_9  and  C_11
REMARK                            x       y       z     vdW  Elec       q    Type
REMARK                         _______ _______ _______ _____ _____    ______ ____
ROOT
ATOM      1  C   UNL     1       4.362   5.183  -8.753  0.00  0.00    +0.342 C 
ATOM      2  O   UNL     1       3.904   4.016  -8.938  0.00  0.00    -0.245 OA
ENDROOT
BRANCH   1   3
ATOM      3  C   UNL     1       5.334   5.786  -9.676  0.00  0.00    +0.086 A 
ATOM      4  C   UNL     1       4.988   6.052 -10.996  0.00  0.00    +0.065 A 
ATOM      5 CL   UNL     1       3.278   6.189 -11.343  0.00  0.00    -0.082 Cl
ATOM      6  C   UNL     1       5.920   5.957 -12.021  0.00  0.00    +0.030 A 
ATOM      7  C   UNL     1       7.178   5.442 -11.744  0.00  0.00    +0.090 A 
ATOM      8  N   UNL     1       7.933   4.757 -12.742  0.00  0.00    -0.128 NA
ATOM      9  C   UNL     1       7.623   5.586 -10.441  0.00  0.00    +0.018 A 
ATOM     10  C   UNL     1       6.697   5.709  -9.431  0.00  0.00    +0.009 A 
ENDBRANCH   1   3
BRANCH   1  11
ATOM     11  O   UNL     1       4.122   5.738  -7.505  0.00  0.00    -0.444 OA
BRANCH  11  12
ATOM     12  C   UNL     1       3.236   6.794  -7.250  0.00  0.00    +0.226 C 
BRANCH  12  13
ATOM     13  C   UNL     1       2.190   6.488  -6.223  0.00  0.00    +0.120 C 
BRANCH  13  14
ATOM     14  N   UNL     1       2.433   5.167  -5.708  0.00  0.00    -0.270 NA
BRANCH  14  15
ATOM     15  C   UNL     1       1.384   4.225  -5.981  0.00  0.00    +0.072 C 
ATOM     16  C   UNL     1       0.087   4.980  -6.237  0.00  0.00    +0.019 C 
ENDBRANCH  14  15
BRANCH  14  18
ATOM     17  C   UNL     1       4.274   4.835  -4.113  0.00  0.00    +0.019 C 
ATOM     18  C   UNL     1       2.830   5.216  -4.324  0.00  0.00    +0.072 C 
ENDBRANCH  14  18
ENDBRANCH  13  14
ENDBRANCH  12  13
ENDBRANCH  11  12
ENDBRANCH   1  11
TORSDOF 7
ENDMDL
MODEL 5
REMARK VINA RESULT:      -6.0      2.625      3.364
REMARK  Name = 
REMARK  7 active torsions:
REMARK  status: ('A' for Active; 'I' for Inactive)
REMARK    1  A    between atoms: C_2  and  N_3
REMARK    2  A    between atoms: N_3  and  C_4
REMARK    3  A    between atoms: N_3  and  C_6
REMARK    4  A    between atoms: C_6  and  C_7
REMARK    5  A    between atoms: C_7  and  O_8
REMARK    6  A    between atoms: O_8  and  C_9
REMARK    7  A    between atoms: C_9  and  C_11
REMARK                            x       y       z     vdW  Elec       q    Type
REMARK                         _______ _______ _______ _____ _____    ______ ____
ROOT
ATOM      1  C   UNL     1       4.033   5.133  -9.015  0.00  0.00    +0.342 C 
ATOM      2  O   UNL     1       3.821   3.884  -9.021  0.00  0.00    -0.245 OA
ENDROOT
BRANCH   1   3
ATOM      3  C   UNL     1       5.036   5.749  -9.894  0.00  0.00    +0.086 A 
ATOM      4  C   UNL     1       4.773   5.944 -11.245  0.00  0.00    +0.065 A 
ATOM      5 CL   UNL     1       3.087   5.977 -11.715  0.00  0.00    -0.082 Cl
ATOM      6  C   UNL     1       5.778   5.858 -12.199  0.00  0.00    +0.030 A 
ATOM      7  C   UNL     1       7.038   5.421 -11.813  0.00  0.00    +0.090 A 
ATOM      8  N   UNL     1       7.895   4.738 -12.726  0.00  0.00    -0.128 NA
ATOM      9  C   UNL     1       7.382   5.640 -10.490  0.00  0.00    +0.018 A 
ATOM     10  C   UNL     1       6.381   5.754  -9.553  0.00  0.00    +0.009 A 
ENDBRANCH   1   3
BRANCH   1  11
ATOM     11  O   UNL     1       3.482   5.837  -7.954  0.00  0.00    -0.444 OA
BRANCH  11  12
ATOM     12  C   UNL     1       3.292   5.327  -6.663  0.00  0.00    +0.226 C 
BRANCH  12  13
ATOM     13  C   UNL     1       4.359   5.710  -5.684  0.00  0.00    +0.120 C 
BRANCH  13  14
ATOM     14  N   UNL     1       3.748   5.884  -4.393  0.00  0.00    -0.270 NA
BRANCH  14  15
ATOM     15  C   UNL     1       3.736   7.242  -3.925  0.00  0.00    +0.072 C 
ATOM     16  C   UNL     1       5.085   7.885  -4.217  0.00  0.00    +0.019 C 
ENDBRANCH  14  15
BRANCH  14  18
ATOM     17  C   UNL     1       3.674   5.097  -2.066  0.00  0.00    +0.019 C 
ATOM     18  C   UNL     1       4.274   4.941  -3.441  0.00  0.00    +0.072 C 
ENDBRANCH  14  18
ENDBRANCH  13  14
ENDBRANCH  12  13
ENDBRANCH  11  12
ENDBRANCH   1  11
TORSDOF 7
ENDMDL
MODEL 6
REMARK VINA RESULT:      -6.0      2.220      6.711
REMARK  Name = 
REMARK  7 active torsions:
REMARK  status: ('A' for Active; 'I' for Inactive)
REMARK    1  A    between atoms: C_2  and  N_3
REMARK    2  A    between atoms: N_3  and  C_4
REMARK    3  A    between atoms: N_3  and  C_6
REMARK    4  A    between atoms: C_6  and  C_7
REMARK    5  A    between atoms: C_7  and  O_8
REMARK    6  A    between atoms: O_8  and  C_9
REMARK    7  A    between atoms: C_9  and  C_11
REMARK                            x       y       z     vdW  Elec       q    Type
REMARK                         _______ _______ _______ _____ _____    ______ ____
ROOT
ATOM      1  C   UNL     1       2.232   7.226  -7.785  0.00  0.00    +0.342 C 
ATOM      2  O   UNL     1       2.032   8.471  -7.917  0.00  0.00    -0.245 OA
ENDROOT
BRANCH   1   3
ATOM      3  C   UNL     1       1.326   6.379  -6.997  0.00  0.00    +0.086 A 
ATOM      4  C   UNL     1       0.301   5.670  -7.612  0.00  0.00    +0.065 A 
ATOM      5 CL   UNL     1       0.480   5.367  -9.326  0.00  0.00    -0.082 Cl
ATOM      6  C   UNL     1      -0.909   5.443  -6.970  0.00  0.00    +0.030 A 
ATOM      7  C   UNL     1      -1.153   6.063  -5.752  0.00  0.00    +0.090 A 
ATOM      8  N   UNL     1      -2.480   6.394  -5.344  0.00  0.00    -0.128 NA
ATOM      9  C   UNL     1      -0.039   6.384  -4.996  0.00  0.00    +0.018 A 
ATOM     10  C   UNL     1       1.164   6.579  -5.633  0.00  0.00    +0.009 A 
ENDBRANCH   1   3
BRANCH   1  11
ATOM     11  O   UNL     1       3.480   6.767  -8.179  0.00  0.00    -0.444 OA
BRANCH  11  12
ATOM     12  C   UNL     1       3.990   5.490  -7.908  0.00  0.00    +0.226 C 
BRANCH  12  13
ATOM     13  C   UNL     1       5.054   5.036  -8.857  0.00  0.00    +0.120 C 
BRANCH  13  14
ATOM     14  N   UNL     1       5.005   5.873 -10.026  0.00  0.00    -0.270 NA
BRANCH  14  15
ATOM     15  C   UNL     1       4.318   5.286 -11.143  0.00  0.00    +0.072 C 
ATOM     16  C   UNL     1       3.237   6.244 -11.625  0.00  0.00    +0.019 C 
ENDBRANCH  14  15
BRANCH  14  18
ATOM     17  C   UNL     1       7.401   5.814  -9.481  0.00  0.00    +0.019 C 
ATOM     18  C   UNL     1       6.310   6.390 -10.348  0.00  0.00    +0.072 C 
ENDBRANCH  14  18
ENDBRANCH  13  14
ENDBRANCH  12  13
ENDBRANCH  11  12
ENDBRANCH   1  11
TORSDOF 7
ENDMDL
MODEL 7
REMARK VINA RESULT:      -5.9      3.247      4.846
REMARK  Name = 
REMARK  7 active torsions:
REMARK  status: ('A' for Active; 'I' for Inactive)
REMARK    1  A    between atoms: C_2  and  N_3
REMARK    2  A    between atoms: N_3  and  C_4
REMARK    3  A    between atoms: N_3  and  C_6
REMARK    4  A    between atoms: C_6  and  C_7
REMARK    5  A    between atoms: C_7  and  O_8
REMARK    6  A    between atoms: O_8  and  C_9
REMARK    7  A    between atoms: C_9  and  C_11
REMARK                            x       y       z     vdW  Elec       q    Type
REMARK                         _______ _______ _______ _____ _____    ______ ____
ROOT
ATOM      1  C   UNL     1       1.515   5.736  -6.012  0.00  0.00    +0.342 C 
ATOM      2  O   UNL     1       0.988   6.793  -6.474  0.00  0.00    -0.245 OA
ENDROOT
BRANCH   1   3
ATOM      3  C   UNL     1       2.621   5.060  -6.704  0.00  0.00    +0.086 A 
ATOM      4  C   UNL     1       3.901   5.602  -6.696  0.00  0.00    +0.065 A 
ATOM      5 CL   UNL     1       4.260   6.737  -5.413  0.00  0.00    -0.082 Cl
ATOM      6  C   UNL     1       4.756   5.456  -7.780  0.00  0.00    +0.030 A 
ATOM      7  C   UNL     1       4.271   4.890  -8.950  0.00  0.00    +0.090 A 
ATOM      8  N   UNL     1       4.814   5.241 -10.222  0.00  0.00    -0.128 NA
ATOM      9  C   UNL     1       3.207   4.016  -8.810  0.00  0.00    +0.018 A 
ATOM     10  C   UNL     1       2.379   4.145  -7.719  0.00  0.00    +0.009 A 
ENDBRANCH   1   3
BRANCH   1  11
ATOM     11  O   UNL     1       0.817   5.107  -4.993  0.00  0.00    -0.444 OA
BRANCH  11  12
ATOM     12  C   UNL     1       0.694   5.592  -3.683  0.00  0.00    +0.226 C 
BRANCH  12  13
ATOM     13  C   UNL     1      -0.542   6.400  -3.438  0.00  0.00    +0.120 C 
BRANCH  13  14
ATOM     14  N   UNL     1      -1.639   5.770  -4.122  0.00  0.00    -0.270 NA
BRANCH  14  15
ATOM     15  C   UNL     1      -2.208   6.561  -5.177  0.00  0.00    +0.072 C 
ATOM     16  C   UNL     1      -2.412   5.686  -6.407  0.00  0.00    +0.019 C 
ENDBRANCH  14  15
BRANCH  14  18
ATOM     17  C   UNL     1      -3.384   6.345  -2.490  0.00  0.00    +0.019 C 
ATOM     18  C   UNL     1      -2.607   5.257  -3.187  0.00  0.00    +0.072 C 
ENDBRANCH  14  18
ENDBRANCH  13  14
ENDBRANCH  12  13
ENDBRANCH  11  12
ENDBRANCH   1  11
TORSDOF 7
ENDMDL
MODEL 8
REMARK VINA RESULT:      -5.9      2.919      7.723
REMARK  Name = 
REMARK  7 active torsions:
REMARK  status: ('A' for Active; 'I' for Inactive)
REMARK    1  A    between atoms: C_2  and  N_3
REMARK    2  A    between atoms: N_3  and  C_4
REMARK    3  A    between atoms: N_3  and  C_6
REMARK    4  A    between atoms: C_6  and  C_7
REMARK    5  A    between atoms: C_7  and  O_8
REMARK    6  A    between atoms: O_8  and  C_9
REMARK    7  A    between atoms: C_9  and  C_11
REMARK                            x       y       z     vdW  Elec       q    Type
REMARK                         _______ _______ _______ _____ _____    ______ ____
ROOT
ATOM      1  C   UNL     1       1.208   4.859  -6.492  0.00  0.00    +0.342 C 
ATOM      2  O   UNL     1       1.390   3.660  -6.124  0.00  0.00    -0.245 OA
ENDROOT
BRANCH   1   3
ATOM      3  C   UNL     1       0.008   5.612  -6.100  0.00  0.00    +0.086 A 
ATOM      4  C   UNL     1      -0.030   6.312  -4.901  0.00  0.00    +0.065 A 
ATOM      5 CL   UNL     1       1.514   6.734  -4.192  0.00  0.00    -0.082 Cl
ATOM      6  C   UNL     1      -1.207   6.444  -4.176  0.00  0.00    +0.030 A 
ATOM      7  C   UNL     1      -2.331   5.736  -4.581  0.00  0.00    +0.090 A 
ATOM      8  N   UNL     1      -3.321   5.321  -3.641  0.00  0.00    -0.128 NA
ATOM      9  C   UNL     1      -2.400   5.418  -5.926  0.00  0.00    +0.018 A 
ATOM     10  C   UNL     1      -1.233   5.318  -6.647  0.00  0.00    +0.009 A 
ENDBRANCH   1   3
BRANCH   1  11
ATOM     11  O   UNL     1       2.044   5.318  -7.499  0.00  0.00    -0.444 OA
BRANCH  11  12
ATOM     12  C   UNL     1       3.380   4.931  -7.674  0.00  0.00    +0.226 C 
BRANCH  12  13
ATOM     13  C   UNL     1       3.673   4.307  -9.003  0.00  0.00    +0.120 C 
BRANCH  13  14
ATOM     14  N   UNL     1       4.712   5.069  -9.642  0.00  0.00    -0.270 NA
BRANCH  14  15
ATOM     15  C   UNL     1       5.802   5.422  -8.776  0.00  0.00    +0.072 C 
ATOM     16  C   UNL     1       7.016   5.786  -9.621  0.00  0.00    +0.019 C 
ENDBRANCH  14  15
BRANCH  14  18
ATOM     17  C   UNL     1       3.926   5.865 -11.831  0.00  0.00    +0.019 C 
ATOM     18  C   UNL     1       4.163   6.181 -10.375  0.00  0.00    +0.072 C 
ENDBRANCH  14  18
ENDBRANCH  13  14
ENDBRANCH  12  13
ENDBRANCH  11  12
ENDBRANCH   1  11
TORSDOF 7
ENDMDL
MODEL 9
REMARK VINA RESULT:      -5.9      3.404      4.460
REMARK  Name = 
REMARK  7 active torsions:
REMARK  status: ('A' for Active; 'I' for Inactive)
REMARK    1  A    between atoms: C_2  and  N_3
REMARK    2  A    between atoms: N_3  and  C_4
REMARK    3  A    between atoms: N_3  and  C_6
REMARK    4  A    between atoms: C_6  and  C_7
REMARK    5  A    between atoms: C_7  and  O_8
REMARK    6  A    between atoms: O_8  and  C_9
REMARK    7  A    between atoms: C_9  and  C_11
REMARK                            x       y       z     vdW  Elec       q    Type
REMARK                         _______ _______ _______ _____ _____    ______ ____
ROOT
ATOM      1  C   UNL     1       2.168   7.185  -8.048  0.00  0.00    +0.342 C 
ATOM      2  O   UNL     1       2.144   8.449  -7.966  0.00  0.00    -0.245 OA
ENDROOT
BRANCH   1   3
ATOM      3  C   UNL     1       1.790   6.485  -9.285  0.00  0.00    +0.086 A 
ATOM      4  C   UNL     1       2.731   6.240 -10.277  0.00  0.00    +0.065 A 
ATOM      5 CL   UNL     1       4.410   6.259  -9.784  0.00  0.00    -0.082 Cl
ATOM      6  C   UNL     1       2.383   6.238 -11.622  0.00  0.00    +0.030 A 
ATOM      7  C   UNL     1       1.104   6.636 -11.987  0.00  0.00    +0.090 A 
ATOM      8  N   UNL     1       0.853   7.238 -13.256  0.00  0.00    -0.128 NA
ATOM      9  C   UNL     1       0.115   6.464 -11.034  0.00  0.00    +0.018 A 
ATOM     10  C   UNL     1       0.469   6.438  -9.706  0.00  0.00    +0.009 A 
ENDBRANCH   1   3
BRANCH   1  11
ATOM     11  O   UNL     1       2.290   6.501  -6.848  0.00  0.00    -0.444 OA
BRANCH  11  12
ATOM     12  C   UNL     1       2.166   5.113  -6.697  0.00  0.00    +0.226 C 
BRANCH  12  13
ATOM     13  C   UNL     1       1.081   4.689  -5.756  0.00  0.00    +0.120 C 
BRANCH  13  14
ATOM     14  N   UNL     1       0.015   5.652  -5.831  0.00  0.00    -0.270 NA
BRANCH  14  15
ATOM     15  C   UNL     1      -0.397   6.176  -4.558  0.00  0.00    +0.072 C 
ATOM     16  C   UNL     1       0.201   5.322  -3.448  0.00  0.00    +0.019 C 
ENDBRANCH  14  15
BRANCH  14  18
ATOM     17  C   UNL     1      -2.388   5.821  -6.320  0.00  0.00    +0.019 C 
ATOM     18  C   UNL     1      -1.070   5.161  -6.641  0.00  0.00    +0.072 C 
ENDBRANCH  14  18
ENDBRANCH  13  14
ENDBRANCH  12  13
ENDBRANCH  11  12
ENDBRANCH   1  11
TORSDOF 7
ENDMDL
