MODEL 1
REMARK VINA RESULT:      -7.3      0.000      0.000
REMARK  Name = 
REMARK  4 active torsions:
REMARK  status: ('A' for Active; 'I' for Inactive)
REMARK    1  A    between atoms: N_2  and  C_4
REMARK    2  A    between atoms: C_4  and  C_5
REMARK    3  A    between atoms: C_5  and  C_6
REMARK    4  A    between atoms: C_5  and  C_13
REMARK                            x       y       z     vdW  Elec       q    Type
REMARK                         _______ _______ _______ _____ _____    ______ ____
ROOT
ATOM      1  C   UNL     1       3.951   5.199 -10.193  0.00  0.00    +0.066 C 
ENDROOT
BRANCH   1   2
ATOM      2  C   UNL     1       5.439   5.761 -10.628  0.00  0.00    +0.132 C 
ATOM      3  C   UNL     1       5.132   7.259 -10.742  0.00  0.00    +0.031 C 
ATOM      4  C   UNL     1       6.329   7.830 -11.497  0.00  0.00    +0.003 C 
ATOM      5  C   UNL     1       7.582   7.006 -11.221  0.00  0.00    +0.000 C 
ATOM      6  C   UNL     1       7.494   6.608  -9.752  0.00  0.00    +0.003 C 
ATOM      7  C   UNL     1       6.397   5.605  -9.551  0.00  0.00    +0.031 C 
ATOM      8  O   UNL     1       5.738   5.362 -11.876  0.00  0.00    -0.225 OA
ENDBRANCH   1   2
BRANCH   1   9
ATOM      9  C   UNL     1       3.962   5.945  -8.742  0.00  0.00    -0.019 A 
ATOM     10  C   UNL     1       4.115   5.027  -7.698  0.00  0.00    -0.001 A 
ATOM     11  C   UNL     1       4.119   5.596  -6.428  0.00  0.00    +0.042 A 
ATOM     12  C   UNL     1       3.557   6.846  -6.222  0.00  0.00    +0.196 A 
ATOM     13  O   UNL     1       3.892   7.649  -5.125  0.00  0.00    -0.287 OA
ATOM     14  C   UNL     1       2.763   7.314  -7.259  0.00  0.00    +0.042 A 
ATOM     15  C   UNL     1       2.831   6.732  -8.522  0.00  0.00    -0.001 A 
ENDBRANCH   1   9
BRANCH   1  16
ATOM     16  C   UNL     1       3.113   6.450 -10.899  0.00  0.00    +0.079 C 
BRANCH  16  18
ATOM     17  C   UNL     1       2.573   5.823 -13.137  0.00  0.00    +0.090 C 
ATOM     18  N   UNL     1       2.238   5.660 -11.761  0.00  0.00    -0.270 NA
ATOM     19  C   UNL     1       0.854   6.069 -11.559  0.00  0.00    +0.090 C 
ENDBRANCH  16  18
ENDBRANCH   1  16
TORSDOF 4
ENDMDL
MODEL 2
REMARK VINA RESULT:      -6.8      4.028      6.625
REMARK  Name = 
REMARK  4 active torsions:
REMARK  status: ('A' for Active; 'I' for Inactive)
REMARK    1  A    between atoms: N_2  and  C_4
REMARK    2  A    between atoms: C_4  and  C_5
REMARK    3  A    between atoms: C_5  and  C_6
REMARK    4  A    between atoms: C_5  and  C_13
REMARK                            x       y       z     vdW  Elec       q    Type
REMARK                         _______ _______ _______ _____ _____    ______ ____
ROOT
ATOM      1  C   UNL     1       1.463   6.126  -6.346  0.00  0.00    +0.066 C 
ENDROOT
BRANCH   1   2
ATOM      2  C   UNL     1      -0.028   5.821  -5.712  0.00  0.00    +0.132 C 
ATOM      3  C   UNL     1      -0.443   7.243  -5.317  0.00  0.00    +0.031 C 
ATOM      4  C   UNL     1      -1.636   7.040  -4.386  0.00  0.00    +0.003 C 
ATOM      5  C   UNL     1      -2.384   5.759  -4.743  0.00  0.00    +0.000 C 
ATOM      6  C   UNL     1      -2.348   5.674  -6.265  0.00  0.00    +0.003 C 
ATOM      7  C   UNL     1      -0.955   5.377  -6.734  0.00  0.00    +0.031 C 
ATOM      8  O   UNL     1       0.091   5.148  -4.554  0.00  0.00    -0.225 OA
ENDBRANCH   1   2
BRANCH   1   9
ATOM      9  C   UNL     1       2.247   5.854  -4.940  0.00  0.00    -0.019 A 
ATOM     10  C   UNL     1       2.819   7.029  -4.441  0.00  0.00    -0.001 A 
ATOM     11  C   UNL     1       3.515   6.867  -3.248  0.00  0.00    +0.042 A 
ATOM     12  C   UNL     1       3.981   5.615  -2.877  0.00  0.00    +0.196 A 
ATOM     13  O   UNL     1       4.290   5.292  -1.550  0.00  0.00    -0.287 OA
ATOM     14  C   UNL     1       3.967   4.659  -3.881  0.00  0.00    +0.042 A 
ATOM     15  C   UNL     1       3.217   4.856  -5.037  0.00  0.00    -0.001 A 
ENDBRANCH   1   9
BRANCH   1  16
ATOM     16  C   UNL     1       1.721   4.565  -6.862  0.00  0.00    +0.079 C 
BRANCH  16  18
ATOM     17  C   UNL     1       3.091   4.052  -8.746  0.00  0.00    +0.090 C 
ATOM     18  N   UNL     1       2.013   4.850  -8.264  0.00  0.00    -0.270 NA
ATOM     19  C   UNL     1       2.360   6.257  -8.416  0.00  0.00    +0.090 C 
ENDBRANCH  16  18
ENDBRANCH   1  16
TORSDOF 4
ENDMDL
MODEL 3
REMARK VINA RESULT:      -6.7      4.093      7.492
REMARK  Name = 
REMARK  4 active torsions:
REMARK  status: ('A' for Active; 'I' for Inactive)
REMARK    1  A    between atoms: N_2  and  C_4
REMARK    2  A    between atoms: C_4  and  C_5
REMARK    3  A    between atoms: C_5  and  C_6
REMARK    4  A    between atoms: C_5  and  C_13
REMARK                            x       y       z     vdW  Elec       q    Type
REMARK                         _______ _______ _______ _____ _____    ______ ____
ROOT
ATOM      1  C   UNL     1       1.204   5.352  -5.239  0.00  0.00    +0.066 C 
ENDROOT
BRANCH   1   2
ATOM      2  C   UNL     1      -0.387   5.732  -5.033  0.00  0.00    +0.132 C 
ATOM      3  C   UNL     1      -0.305   7.261  -5.109  0.00  0.00    +0.031 C 
ATOM      4  C   UNL     1      -1.648   7.736  -4.561  0.00  0.00    +0.003 C 
ATOM      5  C   UNL     1      -2.736   6.700  -4.831  0.00  0.00    +0.000 C 
ATOM      6  C   UNL     1      -2.425   6.133  -6.213  0.00  0.00    +0.003 C 
ATOM      7  C   UNL     1      -1.184   5.293  -6.161  0.00  0.00    +0.031 C 
ATOM      8  O   UNL     1      -0.769   5.457  -3.774  0.00  0.00    -0.225 OA
ENDBRANCH   1   2
BRANCH   1   9
ATOM      9  C   UNL     1       1.221   5.766  -6.817  0.00  0.00    -0.019 A 
ATOM     10  C   UNL     1       1.680   4.713  -7.615  0.00  0.00    -0.001 A 
ATOM     11  C   UNL     1       1.732   5.002  -8.975  0.00  0.00    +0.042 A 
ATOM     12  C   UNL     1       1.785   6.319  -9.406  0.00  0.00    +0.196 A 
ATOM     13  O   UNL     1       1.412   6.700 -10.700  0.00  0.00    -0.287 OA
ATOM     14  C   UNL     1       2.077   7.250  -8.421  0.00  0.00    +0.042 A 
ATOM     15  C   UNL     1       1.967   6.917  -7.074  0.00  0.00    -0.001 A 
ENDBRANCH   1   9
BRANCH   1  16
ATOM     16  C   UNL     1       1.769   6.847  -4.778  0.00  0.00    +0.079 C 
BRANCH  16  18
ATOM     17  C   UNL     1       3.416   7.466  -3.167  0.00  0.00    +0.090 C 
ATOM     18  N   UNL     1       2.541   6.431  -3.610  0.00  0.00    -0.270 NA
ATOM     19  C   UNL     1       3.331   5.252  -3.939  0.00  0.00    +0.090 C 
ENDBRANCH  16  18
ENDBRANCH   1  16
TORSDOF 4
ENDMDL
MODEL 4
REMARK VINA RESULT:      -6.5      1.751      4.161
REMARK  Name = 
REMARK  4 active torsions:
REMARK  status: ('A' for Active; 'I' for Inactive)
REMARK    1  A    between atoms: N_2  and  C_4
REMARK    2  A    between atoms: C_4  and  C_5
REMARK    3  A    between atoms: C_5  and  C_6
REMARK    4  A    between atoms: C_5  and  C_13
REMARK                            x       y       z     vdW  Elec       q    Type
REMARK                         _______ _______ _______ _____ _____    ______ ____
ROOT
ATOM      1  C   UNL     1       3.550   6.586  -9.823  0.00  0.00    +0.066 C 
ENDROOT
BRANCH   1   2
ATOM      2  C   UNL     1       2.259   5.703 -10.344  0.00  0.00    +0.132 C 
ATOM      3  C   UNL     1       1.113   6.613  -9.885  0.00  0.00    +0.031 C 
ATOM      4  C   UNL     1      -0.127   5.729  -9.977  0.00  0.00    +0.003 C 
ATOM      5  C   UNL     1       0.041   4.677 -11.069  0.00  0.00    +0.000 C 
ATOM      6  C   UNL     1       0.789   5.377 -12.199  0.00  0.00    +0.003 C 
ATOM      7  C   UNL     1       2.206   5.651 -11.792  0.00  0.00    +0.031 C 
ATOM      8  O   UNL     1       2.140   4.582  -9.612  0.00  0.00    -0.225 OA
ENDBRANCH   1   2
BRANCH   1   9
ATOM      9  C   UNL     1       3.332   6.198  -8.252  0.00  0.00    -0.019 A 
ATOM     10  C   UNL     1       2.853   7.289  -7.520  0.00  0.00    -0.001 A 
ATOM     11  C   UNL     1       2.656   7.031  -6.167  0.00  0.00    +0.042 A 
ATOM     12  C   UNL     1       3.314   5.975  -5.555  0.00  0.00    +0.196 A 
ATOM     13  O   UNL     1       2.861   5.398  -4.363  0.00  0.00    -0.287 OA
ATOM     14  C   UNL     1       4.357   5.428  -6.286  0.00  0.00    +0.042 A 
ATOM     15  C   UNL     1       4.481   5.687  -7.649  0.00  0.00    -0.001 A 
ENDBRANCH   1   9
BRANCH   1  16
ATOM     16  C   UNL     1       4.655   5.361 -10.035  0.00  0.00    +0.079 C 
BRANCH  16  18
ATOM     17  C   UNL     1       6.915   5.739 -10.699  0.00  0.00    +0.090 C 
ATOM     18  N   UNL     1       5.548   6.040 -10.970  0.00  0.00    -0.270 NA
ATOM     19  C   UNL     1       5.353   7.481 -10.874  0.00  0.00    +0.090 C 
ENDBRANCH  16  18
ENDBRANCH   1  16
TORSDOF 4
ENDMDL
MODEL 5
REMARK VINA RESULT:      -6.4      4.175      6.591
REMARK  Name = 
REMARK  4 active torsions:
REMARK  status: ('A' for Active; 'I' for Inactive)
REMARK    1  A    between atoms: N_2  and  C_4
REMARK    2  A    between atoms: C_4  and  C_5
REMARK    3  A    between atoms: C_5  and  C_6
REMARK    4  A    between atoms: C_5  and  C_13
REMARK                            x       y       z     vdW  Elec       q    Type
REMARK                         _______ _______ _______ _____ _____    ______ ____
ROOT
ATOM      1  C   UNL     1       1.958   6.969  -5.249  0.00  0.00    +0.066 C 
ENDROOT
BRANCH   1   2
ATOM      2  C   UNL     1       2.243   5.725  -6.291  0.00  0.00    +0.132 C 
ATOM      3  C   UNL     1       1.479   6.229  -7.522  0.00  0.00    +0.031 C 
ATOM      4  C   UNL     1       1.358   5.000  -8.418  0.00  0.00    +0.003 C 
ATOM      5  C   UNL     1       2.532   4.052  -8.193  0.00  0.00    +0.000 C 
ATOM      6  C   UNL     1       3.747   4.950  -7.979  0.00  0.00    +0.003 C 
ATOM      7  C   UNL     1       3.643   5.656  -6.660  0.00  0.00    +0.031 C 
ATOM      8  O   UNL     1       1.585   4.624  -5.889  0.00  0.00    -0.225 OA
ENDBRANCH   1   2
BRANCH   1   9
ATOM      9  C   UNL     1       0.649   6.262  -4.577  0.00  0.00    -0.019 A 
ATOM     10  C   UNL     1      -0.483   7.077  -4.687  0.00  0.00    -0.001 A 
ATOM     11  C   UNL     1      -1.635   6.540  -4.122  0.00  0.00    +0.042 A 
ATOM     12  C   UNL     1      -1.542   5.549  -3.157  0.00  0.00    +0.196 A 
ATOM     13  O   UNL     1      -2.601   4.682  -2.867  0.00  0.00    -0.287 OA
ATOM     14  C   UNL     1      -0.278   5.373  -2.613  0.00  0.00    +0.042 A 
ATOM     15  C   UNL     1       0.846   5.898  -3.244  0.00  0.00    -0.001 A 
ENDBRANCH   1   9
BRANCH   1  16
ATOM     16  C   UNL     1       2.960   6.388  -4.055  0.00  0.00    +0.079 C 
BRANCH  16  18
ATOM     17  C   UNL     1       5.001   7.613  -4.216  0.00  0.00    +0.090 C 
ATOM     18  N   UNL     1       3.657   7.632  -3.739  0.00  0.00    -0.270 NA
ATOM     19  C   UNL     1       3.671   7.833  -2.296  0.00  0.00    +0.090 C 
ENDBRANCH  16  18
ENDBRANCH   1  16
TORSDOF 4
ENDMDL
MODEL 6
REMARK VINA RESULT:      -6.4      4.046      6.496
REMARK  Name = 
REMARK  4 active torsions:
REMARK  status: ('A' for Active; 'I' for Inactive)
REMARK    1  A    between atoms: N_2  and  C_4
REMARK    2  A    between atoms: C_4  and  C_5
REMARK    3  A    between atoms: C_5  and  C_6
REMARK    4  A    between atoms: C_5  and  C_13
REMARK                            x       y       z     vdW  Elec       q    Type
REMARK                         _______ _______ _______ _____ _____    ______ ____
ROOT
ATOM      1  C   UNL     1       1.230   6.868  -5.268  0.00  0.00    +0.066 C 
ENDROOT
BRANCH   1   2
ATOM      2  C   UNL     1       2.834   6.618  -4.982  0.00  0.00    +0.132 C 
ATOM      3  C   UNL     1       2.946   7.209  -3.571  0.00  0.00    +0.031 C 
ATOM      4  C   UNL     1       4.447   7.374  -3.352  0.00  0.00    +0.003 C 
ATOM      5  C   UNL     1       5.225   6.331  -4.147  0.00  0.00    +0.000 C 
ATOM      6  C   UNL     1       4.393   5.054  -4.070  0.00  0.00    +0.003 C 
ATOM      7  C   UNL     1       3.137   5.205  -4.875  0.00  0.00    +0.031 C 
ATOM      8  O   UNL     1       3.574   7.422  -5.765  0.00  0.00    -0.225 OA
ENDBRANCH   1   2
BRANCH   1   9
ATOM      9  C   UNL     1       1.296   6.310  -6.801  0.00  0.00    -0.019 A 
ATOM     10  C   UNL     1       1.644   7.325  -7.698  0.00  0.00    -0.001 A 
ATOM     11  C   UNL     1       1.706   6.921  -9.027  0.00  0.00    +0.042 A 
ATOM     12  C   UNL     1       1.034   5.781  -9.442  0.00  0.00    +0.196 A 
ATOM     13  O   UNL     1       1.382   5.086 -10.606  0.00  0.00    -0.287 OA
ATOM     14  C   UNL     1       0.101   5.287  -8.543  0.00  0.00    +0.042 A 
ATOM     15  C   UNL     1       0.112   5.696  -7.212  0.00  0.00    -0.001 A 
ENDBRANCH   1   9
BRANCH   1  16
ATOM     16  C   UNL     1       0.749   5.386  -4.685  0.00  0.00    +0.079 C 
BRANCH  16  18
ATOM     17  C   UNL     1       0.108   5.169  -2.397  0.00  0.00    +0.090 C 
ATOM     18  N   UNL     1      -0.138   5.854  -3.622  0.00  0.00    -0.270 NA
ATOM     19  C   UNL     1      -1.525   5.642  -4.013  0.00  0.00    +0.090 C 
ENDBRANCH  16  18
ENDBRANCH   1  16
TORSDOF 4
ENDMDL
MODEL 7
REMARK VINA RESULT:      -6.3      2.132      4.382
REMARK  Name = 
REMARK  4 active torsions:
REMARK  status: ('A' for Active; 'I' for Inactive)
REMARK    1  A    between atoms: N_2  and  C_4
REMARK    2  A    between atoms: C_4  and  C_5
REMARK    3  A    between atoms: C_5  and  C_6
REMARK    4  A    between atoms: C_5  and  C_13
REMARK                            x       y       z     vdW  Elec       q    Type
REMARK                         _______ _______ _______ _____ _____    ______ ____
ROOT
ATOM      1  C   UNL     1       3.344   6.169  -9.266  0.00  0.00    +0.066 C 
ENDROOT
BRANCH   1   2
ATOM      2  C   UNL     1       4.804   5.847  -9.960  0.00  0.00    +0.132 C 
ATOM      3  C   UNL     1       5.152   7.238 -10.504  0.00  0.00    +0.031 C 
ATOM      4  C   UNL     1       6.294   6.983 -11.483  0.00  0.00    +0.003 C 
ATOM      5  C   UNL     1       7.101   5.759 -11.062  0.00  0.00    +0.000 C 
ATOM      6  C   UNL     1       7.156   5.810  -9.539  0.00  0.00    +0.003 C 
ATOM      7  C   UNL     1       5.803   5.520  -8.961  0.00  0.00    +0.031 C 
ATOM      8  O   UNL     1       4.639   5.070 -11.045  0.00  0.00    -0.225 OA
ENDBRANCH   1   2
BRANCH   1   9
ATOM      9  C   UNL     1       2.484   5.596 -10.529  0.00  0.00    -0.019 A 
ATOM     10  C   UNL     1       2.093   6.627 -11.389  0.00  0.00    -0.001 A 
ATOM     11  C   UNL     1       1.343   6.209 -12.483  0.00  0.00    +0.042 A 
ATOM     12  C   UNL     1       0.671   4.997 -12.447  0.00  0.00    +0.196 A 
ATOM     13  O   UNL     1       0.273   4.324 -13.608  0.00  0.00    -0.287 OA
ATOM     14  C   UNL     1       0.563   4.421 -11.190  0.00  0.00    +0.042 A 
ATOM     15  C   UNL     1       1.369   4.851 -10.141  0.00  0.00    -0.001 A 
ENDBRANCH   1   9
BRANCH   1  16
ATOM     16  C   UNL     1       3.245   4.716  -8.461  0.00  0.00    +0.079 C 
BRANCH  16  18
ATOM     17  C   UNL     1       2.051   4.513  -6.406  0.00  0.00    +0.090 C 
ATOM     18  N   UNL     1       3.059   5.236  -7.108  0.00  0.00    -0.270 NA
ATOM     19  C   UNL     1       2.677   6.640  -7.171  0.00  0.00    +0.090 C 
ENDBRANCH  16  18
ENDBRANCH   1  16
TORSDOF 4
ENDMDL
MODEL 8
REMARK VINA RESULT:      -6.3      2.321      5.082
REMARK  Name = 
REMARK  4 active torsions:
REMARK  status: ('A' for Active; 'I' for Inactive)
REMARK    1  A    between atoms: N_2  and  C_4
REMARK    2  A    between atoms: C_4  and  C_5
REMARK    3  A    between atoms: C_5  and  C_6
REMARK    4  A    between atoms: C_5  and  C_13
REMARK                            x       y       z     vdW  Elec       q    Type
REMARK                         _______ _______ _______ _____ _____    ______ ____
ROOT
ATOM      1  C   UNL     1       3.147   5.364  -9.027  0.00  0.00    +0.066 C 
ENDROOT
BRANCH   1   2
ATOM      2  C   UNL     1       2.053   5.666 -10.222  0.00  0.00    +0.132 C 
ATOM      3  C   UNL     1       1.092   4.491 -10.004  0.00  0.00    +0.031 C 
ATOM      4  C   UNL     1       0.252   4.452 -11.278  0.00  0.00    +0.003 C 
ATOM      5  C   UNL     1       0.128   5.847 -11.882  0.00  0.00    +0.000 C 
ATOM      6  C   UNL     1       0.002   6.797 -10.696  0.00  0.00    +0.003 C 
ATOM      7  C   UNL     1       1.305   6.879  -9.958  0.00  0.00    +0.031 C 
ATOM      8  O   UNL     1       2.611   5.452 -11.426  0.00  0.00    -0.225 OA
ENDBRANCH   1   2
BRANCH   1   9
ATOM      9  C   UNL     1       4.435   5.790  -9.936  0.00  0.00    -0.019 A 
ATOM     10  C   UNL     1       5.635   5.406  -9.330  0.00  0.00    -0.001 A 
ATOM     11  C   UNL     1       6.777   5.751 -10.047  0.00  0.00    +0.042 A 
ATOM     12  C   UNL     1       6.729   6.766 -10.989  0.00  0.00    +0.196 A 
ATOM     13  O   UNL     1       7.668   6.878 -12.021  0.00  0.00    -0.287 OA
ATOM     14  C   UNL     1       5.597   7.567 -10.936  0.00  0.00    +0.042 A 
ATOM     15  C   UNL     1       4.467   7.152 -10.237  0.00  0.00    -0.001 A 
ENDBRANCH   1   9
BRANCH   1  16
ATOM     16  C   UNL     1       3.045   6.882  -8.353  0.00  0.00    +0.079 C 
BRANCH  16  18
ATOM     17  C   UNL     1       2.982   5.075  -6.796  0.00  0.00    +0.090 C 
ATOM     18  N   UNL     1       3.061   6.490  -6.946  0.00  0.00    -0.270 NA
ATOM     19  C   UNL     1       1.935   7.103  -6.254  0.00  0.00    +0.090 C 
ENDBRANCH  16  18
ENDBRANCH   1  16
TORSDOF 4
ENDMDL
MODEL 9
REMARK VINA RESULT:      -6.3      3.445      6.754
REMARK  Name = 
REMARK  4 active torsions:
REMARK  status: ('A' for Active; 'I' for Inactive)
REMARK    1  A    between atoms: N_2  and  C_4
REMARK    2  A    between atoms: C_4  and  C_5
REMARK    3  A    between atoms: C_5  and  C_6
REMARK    4  A    between atoms: C_5  and  C_13
REMARK                            x       y       z     vdW  Elec       q    Type
REMARK                         _______ _______ _______ _____ _____    ______ ____
ROOT
ATOM      1  C   UNL     1       1.490   4.736  -7.369  0.00  0.00    +0.066 C 
ENDROOT
BRANCH   1   2
ATOM      2  C   UNL     1       0.287   5.182  -6.333  0.00  0.00    +0.132 C 
ATOM      3  C   UNL     1       0.550   6.691  -6.258  0.00  0.00    +0.031 C 
ATOM      4  C   UNL     1      -0.256   7.152  -5.047  0.00  0.00    +0.003 C 
ATOM      5  C   UNL     1      -1.477   6.260  -4.843  0.00  0.00    +0.000 C 
ATOM      6  C   UNL     1      -1.980   5.929  -6.244  0.00  0.00    +0.003 C 
ATOM      7  C   UNL     1      -1.019   5.009  -6.936  0.00  0.00    +0.031 C 
ATOM      8  O   UNL     1       0.542   4.713  -5.099  0.00  0.00    -0.225 OA
ENDBRANCH   1   2
BRANCH   1   9
ATOM      9  C   UNL     1       0.834   5.505  -8.650  0.00  0.00    -0.019 A 
ATOM     10  C   UNL     1       0.490   4.605  -9.664  0.00  0.00    -0.001 A 
ATOM     11  C   UNL     1      -0.064   5.196 -10.794  0.00  0.00    +0.042 A 
ATOM     12  C   UNL     1       0.155   6.540 -11.057  0.00  0.00    +0.196 A 
ATOM     13  O   UNL     1      -0.684   7.289 -11.891  0.00  0.00    -0.287 OA
ATOM     14  C   UNL     1       1.166   7.129 -10.312  0.00  0.00    +0.042 A 
ATOM     15  C   UNL     1       1.654   6.511  -9.164  0.00  0.00    -0.001 A 
ENDBRANCH   1   9
BRANCH   1  16
ATOM     16  C   UNL     1       2.471   6.032  -7.015  0.00  0.00    +0.079 C 
BRANCH  16  18
ATOM     17  C   UNL     1       4.126   5.755  -5.319  0.00  0.00    +0.090 C 
ATOM     18  N   UNL     1       3.653   5.291  -6.581  0.00  0.00    -0.270 NA
ATOM     19  C   UNL     1       4.714   5.440  -7.568  0.00  0.00    +0.090 C 
ENDBRANCH  16  18
ENDBRANCH   1  16
TORSDOF 4
ENDMDL
