MODEL 1
REMARK VINA RESULT:       4.5      0.000      0.000
REMARK  Name = 
REMARK  5 active torsions:
REMARK  status: ('A' for Active; 'I' for Inactive)
REMARK    1  A    between atoms: O_2  and  C_3
REMARK    2  A    between atoms: N_26  and  C_27
REMARK    3  A    between atoms: C_27  and  C_28
REMARK    4  A    between atoms: C_53  and  O_54
REMARK    5  A    between atoms: O_54  and  C_55
REMARK                            x       y       z     vdW  Elec       q    Type
REMARK                         _______ _______ _______ _____ _____    ______ ____
ROOT
ATOM      1  C   UNL     1      -2.764   6.622  -3.610  0.00  0.00    +0.144 C 
ATOM      2  C   UNL     1      -1.207   6.896  -4.273  0.00  0.00    +0.072 C 
ATOM      3  C   UNL     1      -0.379   5.872  -3.356  0.00  0.00    +0.007 C 
ATOM      4  C   UNL     1      -1.356   5.781  -5.535  0.00  0.00    +0.174 C 
ATOM      5  C   UNL     1      -0.503   6.703  -6.665  0.00  0.00    +0.071 C 
ATOM      6  C   UNL     1      -0.703   5.558  -7.768  0.00  0.00    +0.006 C 
ATOM      7  C   UNL     1       1.055   6.259  -6.165  0.00  0.00    +0.158 C 
ATOM      8  O   UNL     1       1.303   7.713  -5.891  0.00  0.00    -0.223 OA
ATOM      9  C   UNL     1       1.617   6.298  -7.752  0.00  0.00    +0.061 C 
ATOM     10  C   UNL     1       1.811   4.694  -7.762  0.00  0.00    +0.005 C 
ATOM     11  C   UNL     1       3.279   6.537  -7.562  0.00  0.00    +0.158 C 
ATOM     12  O   UNL     1       3.111   7.998  -7.229  0.00  0.00    -0.223 OA
ATOM     13  C   UNL     1       3.416   6.041  -5.960  0.00  0.00    +0.053 C 
ATOM     14  C   UNL     1       4.000   4.564  -6.269  0.00  0.00    +0.007 C 
ATOM     15  C   UNL     1       4.926   6.636  -5.756  0.00  0.00    -0.024 C 
ATOM     16  C   UNL     1       4.621   7.535  -4.952  0.00  0.00    -0.005 C 
ATOM     17  C   UNL     1       4.355   6.449  -3.932  0.00  0.00    -0.000 C 
ATOM     18  C   UNL     1       4.954   6.043  -2.968  0.00  0.00    +0.033 C 
ATOM     19  C   UNL     1       5.426   4.694  -2.491  0.00  0.00    +0.036 C 
ATOM     20  C   UNL     1       5.937   7.118  -3.230  0.00  0.00    +0.265 C 
ATOM     21  O   UNL     1       7.130   6.886  -2.758  0.00  0.00    -0.268 OA
ATOM     22  N   UNL     1       5.388   8.324  -2.644  0.00  0.00    -0.171 NA
ATOM     23  C   UNL     1       4.130   8.318  -1.939  0.00  0.00    +0.129 C 
ATOM     24  C   UNL     1       4.067   8.761  -0.656  0.00  0.00    +0.103 C 
ATOM     25  C   UNL     1       3.172   8.103   0.323  0.00  0.00    +0.094 C 
ATOM     26  C   UNL     1       1.867   7.575  -0.123  0.00  0.00    +0.031 A 
ATOM     27  C   UNL     1       1.985   7.079  -1.428  0.00  0.00    +0.081 A 
ATOM     28  C   UNL     1       1.366   5.889  -1.825  0.00  0.00    +0.198 A 
ATOM     29  C   UNL     1       0.729   5.248  -0.761  0.00  0.00    +0.051 A 
ATOM     30  C   UNL     1       0.131   6.102   0.173  0.00  0.00    +0.145 A 
ATOM     31  O   UNL     1      -1.239   6.153   0.476  0.00  0.00    -0.443 OA
ATOM     32  C   UNL     1      -1.695   7.420   0.626  0.00  0.00    +0.326 C 
ATOM     33  C   UNL     1      -0.408   8.132   0.938  0.00  0.00    +0.251 C 
ATOM     34  O   UNL     1      -0.558   9.014   1.849  0.00  0.00    -0.284 OA
ATOM     35  C   UNL     1      -2.582   7.299   1.871  0.00  0.00    +0.100 C 
ATOM     36  O   UNL     1      -2.374   8.134  -0.281  0.00  0.00    -0.440 OA
ATOM     37  C   UNL     1      -2.884   7.837  -1.508  0.00  0.00    +0.174 C 
ATOM     38  C   UNL     1       0.174   3.920  -1.101  0.00  0.00    +0.038 C 
ATOM     39  O   UNL     1       1.185   5.539  -3.154  0.00  0.00    -0.287 OA
ATOM     40  C   UNL     1       0.751   7.295   0.584  0.00  0.00    +0.077 A 
ATOM     41  N   UNL     1       3.635   8.187   1.500  0.00  0.00    -0.253 NA
ATOM     42  C   UNL     1       4.701   9.146   1.546  0.00  0.00    +0.162 C 
ATOM     43  C   UNL     1       4.281  10.482   2.113  0.00  0.00    +0.060 C 
ATOM     44  C   UNL     1       5.548  11.324   2.182  0.00  0.00    +0.076 C 
ATOM     45  N   UNL     1       6.542  10.720   3.060  0.00  0.00    -0.272 NA
ATOM     46  C   UNL     1       5.927   9.509   3.601  0.00  0.00    +0.076 C 
ATOM     47  C   UNL     1       5.799   8.580   2.398  0.00  0.00    +0.060 C 
ATOM     48  N   UNL     1       5.074   9.359   0.181  0.00  0.00    -0.216 NA
ATOM     49  C   UNL     1       2.924   7.720  -2.391  0.00  0.00    +0.215 C 
ATOM     50  O   UNL     1       2.044   8.365  -3.136  0.00  0.00    -0.285 OA
ATOM     51  C   UNL     1      -2.290   6.825  -2.085  0.00  0.00    +0.043 C 
ENDROOT
BRANCH   1  53
ATOM     52  C   UNL     1      -3.108   4.836  -2.869  0.00  0.00    +0.174 C 
ATOM     53  O   UNL     1      -2.622   5.114  -3.530  0.00  0.00    -0.349 OA
ENDBRANCH   1  53
BRANCH   4  54
ATOM     54  O   UNL     1      -2.665   6.394  -6.006  0.00  0.00    -0.452 OA
BRANCH  54  55
ATOM     55  C   UNL     1      -3.501   5.644  -6.778  0.00  0.00    +0.317 C 
ATOM     56  O   UNL     1      -4.033   6.131  -7.793  0.00  0.00    -0.250 OA
ATOM     57  C   UNL     1      -3.910   4.286  -6.296  0.00  0.00    +0.121 C 
ENDBRANCH  54  55
ENDBRANCH   4  54
BRANCH  45  58
ATOM     58  C   UNL     1       7.652  10.232   2.242  0.00  0.00    +0.072 C 
BRANCH  58  59
ATOM     59  C   UNL     1       8.965  10.840   2.630  0.00  0.00    +0.016 C 
ATOM     60  C   UNL     1       9.665  10.131   3.750  0.00  0.00    +0.001 C 
ATOM     61  C   UNL     1       8.898  12.330   2.811  0.00  0.00    +0.001 C 
ENDBRANCH  58  59
ENDBRANCH  45  58
TORSDOF 5
ENDMDL
MODEL 2
REMARK VINA RESULT:       6.7      3.490      8.891
REMARK  Name = 
REMARK  5 active torsions:
REMARK  status: ('A' for Active; 'I' for Inactive)
REMARK    1  A    between atoms: O_2  and  C_3
REMARK    2  A    between atoms: N_26  and  C_27
REMARK    3  A    between atoms: C_27  and  C_28
REMARK    4  A    between atoms: C_53  and  O_54
REMARK    5  A    between atoms: O_54  and  C_55
REMARK                            x       y       z     vdW  Elec       q    Type
REMARK                         _______ _______ _______ _____ _____    ______ ____
ROOT
ATOM      1  C   UNL     1       1.821   7.959  -0.456  0.00  0.00    +0.144 C 
ATOM      2  C   UNL     1       0.750   7.819  -1.787  0.00  0.00    +0.072 C 
ATOM      3  C   UNL     1       1.200   6.366  -2.297  0.00  0.00    +0.007 C 
ATOM      4  C   UNL     1      -0.550   7.202  -0.903  0.00  0.00    +0.174 C 
ATOM      5  C   UNL     1      -1.742   8.018  -1.779  0.00  0.00    +0.071 C 
ATOM      6  C   UNL     1      -2.883   7.351  -0.873  0.00  0.00    +0.006 C 
ATOM      7  C   UNL     1      -1.828   6.932  -3.078  0.00  0.00    +0.158 C 
ATOM      8  O   UNL     1      -1.435   8.075  -3.967  0.00  0.00    -0.223 OA
ATOM      9  C   UNL     1      -3.487   7.179  -3.226  0.00  0.00    +0.061 C 
ATOM     10  C   UNL     1      -3.793   5.674  -2.724  0.00  0.00    +0.005 C 
ATOM     11  C   UNL     1      -3.794   6.748  -4.831  0.00  0.00    +0.158 C 
ATOM     12  O   UNL     1      -3.214   8.032  -5.369  0.00  0.00    -0.223 OA
ATOM     13  C   UNL     1      -2.408   5.837  -5.110  0.00  0.00    +0.053 C 
ATOM     14  C   UNL     1      -3.099   4.384  -4.936  0.00  0.00    +0.007 C 
ATOM     15  C   UNL     1      -2.604   5.776  -6.733  0.00  0.00    -0.024 C 
ATOM     16  C   UNL     1      -1.621   6.482  -7.024  0.00  0.00    -0.005 C 
ATOM     17  C   UNL     1      -0.741   5.338  -6.570  0.00  0.00    -0.000 C 
ATOM     18  C   UNL     1      -0.084   4.508  -7.147  0.00  0.00    +0.033 C 
ATOM     19  C   UNL     1       0.016   3.005  -7.107  0.00  0.00    +0.036 C 
ATOM     20  C   UNL     1      -0.480   5.188  -8.401  0.00  0.00    +0.265 C 
ATOM     21  O   UNL     1      -0.446   4.430  -9.461  0.00  0.00    -0.268 OA
ATOM     22  N   UNL     1       0.420   6.312  -8.556  0.00  0.00    -0.171 NA
ATOM     23  C   UNL     1       1.475   6.575  -7.609  0.00  0.00    +0.129 C 
ATOM     24  C   UNL     1       2.763   6.660  -8.032  0.00  0.00    +0.103 C 
ATOM     25  C   UNL     1       3.865   6.135  -7.193  0.00  0.00    +0.094 C 
ATOM     26  C   UNL     1       3.779   6.246  -5.724  0.00  0.00    +0.031 A 
ATOM     27  C   UNL     1       2.444   6.098  -5.321  0.00  0.00    +0.081 A 
ATOM     28  C   UNL     1       2.091   5.357  -4.189  0.00  0.00    +0.198 A 
ATOM     29  C   UNL     1       3.195   4.733  -3.604  0.00  0.00    +0.051 A 
ATOM     30  C   UNL     1       4.384   5.470  -3.649  0.00  0.00    +0.145 A 
ATOM     31  O   UNL     1       5.105   5.927  -2.535  0.00  0.00    -0.443 OA
ATOM     32  C   UNL     1       5.576   7.187  -2.697  0.00  0.00    +0.326 C 
ATOM     33  C   UNL     1       5.570   7.283  -4.197  0.00  0.00    +0.251 C 
ATOM     34  O   UNL     1       6.601   7.890  -4.642  0.00  0.00    -0.284 OA
ATOM     35  C   UNL     1       7.005   7.072  -2.151  0.00  0.00    +0.100 C 
ATOM     36  O   UNL     1       5.043   8.307  -2.191  0.00  0.00    -0.440 OA
ATOM     37  C   UNL     1       4.009   8.543  -1.338  0.00  0.00    +0.174 C 
ATOM     38  C   UNL     1       2.854   3.830  -2.484  0.00  0.00    +0.038 C 
ATOM     39  O   UNL     1       0.850   5.455  -3.580  0.00  0.00    -0.287 OA
ATOM     40  C   UNL     1       4.751   6.210  -4.786  0.00  0.00    +0.077 A 
ATOM     41  N   UNL     1       4.836   5.738  -7.904  0.00  0.00    -0.253 NA
ATOM     42  C   UNL     1       4.686   6.203  -9.253  0.00  0.00    +0.162 C 
ATOM     43  C   UNL     1       5.547   7.404  -9.571  0.00  0.00    +0.060 C 
ATOM     44  C   UNL     1       5.338   7.687 -11.053  0.00  0.00    +0.076 C 
ATOM     45  N   UNL     1       5.760   6.561 -11.876  0.00  0.00    -0.272 NA
ATOM     46  C   UNL     1       6.283   5.554 -10.952  0.00  0.00    +0.076 C 
ATOM     47  C   UNL     1       5.058   5.080 -10.176  0.00  0.00    +0.060 C 
ATOM     48  N   UNL     1       3.321   6.617  -9.358  0.00  0.00    -0.216 NA
ATOM     49  C   UNL     1       1.341   6.588  -6.195  0.00  0.00    +0.215 C 
ATOM     50  O   UNL     1       1.014   7.676  -5.520  0.00  0.00    -0.285 OA
ATOM     51  C   UNL     1       3.132   7.573  -1.306  0.00  0.00    +0.043 C 
ENDROOT
BRANCH   1  53
ATOM     52  C   UNL     1       2.193   6.396   0.673  0.00  0.00    +0.174 C 
ATOM     53  O   UNL     1       1.629   6.536   0.031  0.00  0.00    -0.349 OA
ENDBRANCH   1  53
BRANCH   4  54
ATOM     54  O   UNL     1      -0.491   8.344   0.100  0.00  0.00    -0.452 OA
BRANCH  54  55
ATOM     55  C   UNL     1      -1.034   8.160   1.337  0.00  0.00    +0.317 C 
ATOM     56  O   UNL     1      -1.033   7.034   1.868  0.00  0.00    -0.250 OA
ATOM     57  C   UNL     1      -1.786   9.288   1.974  0.00  0.00    +0.121 C 
ENDBRANCH  54  55
ENDBRANCH   4  54
BRANCH  45  58
ATOM     58  C   UNL     1       4.574   5.939 -12.460  0.00  0.00    +0.072 C 
BRANCH  58  59
ATOM     59  C   UNL     1       4.674   5.790 -13.948  0.00  0.00    +0.016 C 
ATOM     60  C   UNL     1       5.914   6.384 -14.544  0.00  0.00    +0.001 C 
ATOM     61  C   UNL     1       3.414   6.179 -14.669  0.00  0.00    +0.001 C 
ENDBRANCH  58  59
ENDBRANCH  45  58
TORSDOF 5
ENDMDL
