MODEL 1
REMARK VINA RESULT:      -7.4      0.000      0.000
REMARK  Name = 
REMARK  10 active torsions:
REMARK  status: ('A' for Active; 'I' for Inactive)
REMARK    1  A    between atoms: C_2  and  C_3
REMARK    2  A    between atoms: C_7  and  N_8
REMARK    3  A    between atoms: C_15  and  O_16
REMARK    4  A    between atoms: O_16  and  C_17
REMARK    5  A    between atoms: C_17  and  C_18
REMARK    6  A    between atoms: C_18  and  O_19
REMARK    7  A    between atoms: C_21  and  O_22
REMARK    8  A    between atoms: O_22  and  C_23
REMARK    9  A    between atoms: C_23  and  C_24
REMARK   10  A    between atoms: C_24  and  O_25
REMARK                            x       y       z     vdW  Elec       q    Type
REMARK                         _______ _______ _______ _____ _____    ______ ____
ROOT
ATOM      1  N   UNL     1       5.651   5.794  -9.875  0.00  0.00    -0.194 NA
ATOM      2  C   UNL     1       4.244   5.725  -9.862  0.00  0.00    +0.155 A 
ATOM      3  C   UNL     1       3.641   6.061  -8.655  0.00  0.00    +0.054 A 
ATOM      4  C   UNL     1       2.381   6.623  -8.586  0.00  0.00    +0.089 A 
ATOM      5  C   UNL     1       1.826   7.003  -7.372  0.00  0.00    +0.059 A 
ATOM      6  C   UNL     1       2.402   6.466  -6.228  0.00  0.00    +0.174 A 
ATOM      7  C   UNL     1       3.620   5.808  -6.246  0.00  0.00    +0.173 A 
ATOM      8  N   UNL     1       1.677   6.633  -9.737  0.00  0.00    -0.224 NA
ATOM      9  C   UNL     1       2.130   5.975 -10.832  0.00  0.00    +0.200 A 
ATOM     10  C   UNL     1       4.262   5.695  -7.466  0.00  0.00    +0.044 A 
ATOM     11  N   UNL     1       3.455   5.710 -10.940  0.00  0.00    -0.207 NA
ENDROOT
BRANCH   1  14
ATOM     12  C   UNL     1       7.000   6.156 -13.192  0.00  0.00    +0.044 A 
ATOM     13  C   UNL     1       6.148   5.631 -12.262  0.00  0.00    +0.025 A 
ATOM     14  C   UNL     1       6.490   5.387 -10.937  0.00  0.00    +0.073 A 
ATOM     15  C   UNL     1       7.857   5.382 -10.687  0.00  0.00    +0.017 A 
ATOM     16  C   UNL     1       8.787   5.703 -11.668  0.00  0.00    +0.002 A 
ATOM     17  C   UNL     1       8.356   6.125 -12.918  0.00  0.00    +0.008 A 
BRANCH  12  19
ATOM     18  C   UNL     1       6.571   7.467 -15.426  0.00  0.00    -0.009 C 
ATOM     19  C   UNL     1       6.577   6.805 -14.407  0.00  0.00    -0.051 C 
ENDBRANCH  12  19
ENDBRANCH   1  14
BRANCH   7  20
ATOM     20  O   UNL     1       3.813   4.870  -5.226  0.00  0.00    -0.470 OA
BRANCH  20  21
ATOM     21  C   UNL     1       4.749   5.071  -4.187  0.00  0.00    +0.237 C 
BRANCH  21  22
ATOM     22  C   UNL     1       4.069   4.999  -2.824  0.00  0.00    +0.189 C 
BRANCH  22  23
ATOM     23  O   UNL     1       3.761   6.274  -2.340  0.00  0.00    -0.347 OA
ATOM     24  C   UNL     1       4.743   7.151  -2.774  0.00  0.00    +0.174 C 
ENDBRANCH  22  23
ENDBRANCH  21  22
ENDBRANCH  20  21
ENDBRANCH   7  20
BRANCH   6  25
ATOM     25  O   UNL     1       1.950   6.983  -5.012  0.00  0.00    -0.470 OA
BRANCH  25  26
ATOM     26  C   UNL     1       0.599   6.678  -4.682  0.00  0.00    +0.237 C 
BRANCH  26  27
ATOM     27  C   UNL     1       0.574   5.372  -3.912  0.00  0.00    +0.189 C 
BRANCH  27  28
ATOM     28  O   UNL     1      -0.216   5.530  -2.773  0.00  0.00    -0.347 OA
ATOM     29  C   UNL     1       0.432   5.039  -1.649  0.00  0.00    +0.174 C 
ENDBRANCH  27  28
ENDBRANCH  26  27
ENDBRANCH  25  26
ENDBRANCH   6  25
TORSDOF 10
ENDMDL
MODEL 2
REMARK VINA RESULT:      -7.4      1.703      1.983
REMARK  Name = 
REMARK  10 active torsions:
REMARK  status: ('A' for Active; 'I' for Inactive)
REMARK    1  A    between atoms: C_2  and  C_3
REMARK    2  A    between atoms: C_7  and  N_8
REMARK    3  A    between atoms: C_15  and  O_16
REMARK    4  A    between atoms: O_16  and  C_17
REMARK    5  A    between atoms: C_17  and  C_18
REMARK    6  A    between atoms: C_18  and  O_19
REMARK    7  A    between atoms: C_21  and  O_22
REMARK    8  A    between atoms: O_22  and  C_23
REMARK    9  A    between atoms: C_23  and  C_24
REMARK   10  A    between atoms: C_24  and  O_25
REMARK                            x       y       z     vdW  Elec       q    Type
REMARK                         _______ _______ _______ _____ _____    ______ ____
ROOT
ATOM      1  N   UNL     1       4.454   5.829  -8.648  0.00  0.00    -0.194 NA
ATOM      2  C   UNL     1       3.141   5.320  -8.701  0.00  0.00    +0.155 A 
ATOM      3  C   UNL     1       2.306   5.711  -7.659  0.00  0.00    +0.054 A 
ATOM      4  C   UNL     1       0.940   5.842  -7.813  0.00  0.00    +0.089 A 
ATOM      5  C   UNL     1       0.138   6.289  -6.773  0.00  0.00    +0.059 A 
ATOM      6  C   UNL     1       0.684   6.237  -5.497  0.00  0.00    +0.174 A 
ATOM      7  C   UNL     1       2.032   6.017  -5.272  0.00  0.00    +0.173 A 
ATOM      8  N   UNL     1       0.429   5.365  -8.966  0.00  0.00    -0.224 NA
ATOM      9  C   UNL     1       1.201   4.656  -9.826  0.00  0.00    +0.200 A 
ATOM     10  C   UNL     1       2.839   5.841  -6.381  0.00  0.00    +0.044 A 
ATOM     11  N   UNL     1       2.547   4.811  -9.783  0.00  0.00    -0.207 NA
ENDROOT
BRANCH   1  14
ATOM     12  C   UNL     1       6.495   6.370 -11.563  0.00  0.00    +0.044 A 
ATOM     13  C   UNL     1       5.467   5.793 -10.871  0.00  0.00    +0.025 A 
ATOM     14  C   UNL     1       5.512   5.482  -9.517  0.00  0.00    +0.073 A 
ATOM     15  C   UNL     1       6.791   5.470  -8.972  0.00  0.00    +0.017 A 
ATOM     16  C   UNL     1       7.909   5.845  -9.706  0.00  0.00    +0.002 A 
ATOM     17  C   UNL     1       7.757   6.330 -10.998  0.00  0.00    +0.008 A 
BRANCH  12  19
ATOM     18  C   UNL     1       6.287   7.343 -13.992  0.00  0.00    -0.009 C 
ATOM     19  C   UNL     1       6.340   7.079 -12.807  0.00  0.00    -0.051 C 
ENDBRANCH  12  19
ENDBRANCH   1  14
BRANCH   7  20
ATOM     20  O   UNL     1       2.351   5.446  -4.035  0.00  0.00    -0.470 OA
BRANCH  20  21
ATOM     21  C   UNL     1       3.584   5.691  -3.390  0.00  0.00    +0.237 C 
BRANCH  21  22
ATOM     22  C   UNL     1       3.538   7.002  -2.614  0.00  0.00    +0.189 C 
BRANCH  22  23
ATOM     23  O   UNL     1       4.127   8.044  -3.338  0.00  0.00    -0.347 OA
ATOM     24  C   UNL     1       5.264   7.550  -3.958  0.00  0.00    +0.174 C 
ENDBRANCH  22  23
ENDBRANCH  21  22
ENDBRANCH  20  21
ENDBRANCH   7  20
BRANCH   6  25
ATOM     25  O   UNL     1      -0.062   6.845  -4.484  0.00  0.00    -0.470 OA
BRANCH  25  26
ATOM     26  C   UNL     1      -1.337   6.264  -4.231  0.00  0.00    +0.237 C 
BRANCH  26  27
ATOM     27  C   UNL     1      -1.239   5.411  -2.981  0.00  0.00    +0.189 C 
BRANCH  27  28
ATOM     28  O   UNL     1      -2.506   4.927  -2.659  0.00  0.00    -0.347 OA
ATOM     29  C   UNL     1      -3.446   5.947  -2.678  0.00  0.00    +0.174 C 
ENDBRANCH  27  28
ENDBRANCH  26  27
ENDBRANCH  25  26
ENDBRANCH   6  25
TORSDOF 10
ENDMDL
MODEL 3
REMARK VINA RESULT:      -7.3      3.525      9.678
REMARK  Name = 
REMARK  10 active torsions:
REMARK  status: ('A' for Active; 'I' for Inactive)
REMARK    1  A    between atoms: C_2  and  C_3
REMARK    2  A    between atoms: C_7  and  N_8
REMARK    3  A    between atoms: C_15  and  O_16
REMARK    4  A    between atoms: O_16  and  C_17
REMARK    5  A    between atoms: C_17  and  C_18
REMARK    6  A    between atoms: C_18  and  O_19
REMARK    7  A    between atoms: C_21  and  O_22
REMARK    8  A    between atoms: O_22  and  C_23
REMARK    9  A    between atoms: C_23  and  C_24
REMARK   10  A    between atoms: C_24  and  O_25
REMARK                            x       y       z     vdW  Elec       q    Type
REMARK                         _______ _______ _______ _____ _____    ______ ____
ROOT
ATOM      1  N   UNL     1      -0.382   5.833  -4.843  0.00  0.00    -0.194 NA
ATOM      2  C   UNL     1       0.983   5.483  -4.877  0.00  0.00    +0.155 A 
ATOM      3  C   UNL     1       1.625   5.701  -6.091  0.00  0.00    +0.054 A 
ATOM      4  C   UNL     1       2.971   5.999  -6.174  0.00  0.00    +0.089 A 
ATOM      5  C   UNL     1       3.575   6.269  -7.394  0.00  0.00    +0.059 A 
ATOM      6  C   UNL     1       2.889   5.868  -8.532  0.00  0.00    +0.174 A 
ATOM      7  C   UNL     1       1.564   5.468  -8.501  0.00  0.00    +0.173 A 
ATOM      8  N   UNL     1       3.678   5.858  -5.034  0.00  0.00    -0.224 NA
ATOM      9  C   UNL     1       3.116   5.296  -3.935  0.00  0.00    +0.200 A 
ATOM     10  C   UNL     1       0.928   5.477  -7.273  0.00  0.00    +0.044 A 
ATOM     11  N   UNL     1       1.766   5.302  -3.810  0.00  0.00    -0.207 NA
ENDROOT
BRANCH   1  14
ATOM     12  C   UNL     1      -1.914   6.724  -1.711  0.00  0.00    +0.044 A 
ATOM     13  C   UNL     1      -1.006   6.068  -2.492  0.00  0.00    +0.025 A 
ATOM     14  C   UNL     1      -1.272   5.594  -3.772  0.00  0.00    +0.073 A 
ATOM     15  C   UNL     1      -2.623   5.516  -4.087  0.00  0.00    +0.017 A 
ATOM     16  C   UNL     1      -3.609   5.978  -3.224  0.00  0.00    +0.002 A 
ATOM     17  C   UNL     1      -3.252   6.617  -2.045  0.00  0.00    +0.008 A 
BRANCH  12  19
ATOM     18  C   UNL     1      -1.636   8.282   0.384  0.00  0.00    -0.009 C 
ATOM     19  C   UNL     1      -1.566   7.580  -0.605  0.00  0.00    -0.051 C 
ENDBRANCH  12  19
ENDBRANCH   1  14
BRANCH   7  20
ATOM     20  O   UNL     1       1.173   4.596  -9.523  0.00  0.00    -0.470 OA
BRANCH  20  21
ATOM     21  C   UNL     1       0.044   4.847 -10.334  0.00  0.00    +0.237 C 
BRANCH  21  22
ATOM     22  C   UNL     1       0.468   5.214 -11.752  0.00  0.00    +0.189 C 
BRANCH  22  23
ATOM     23  O   UNL     1       0.794   6.570 -11.851  0.00  0.00    -0.347 OA
ATOM     24  C   UNL     1      -0.304   7.311 -11.446  0.00  0.00    +0.174 C 
ENDBRANCH  22  23
ENDBRANCH  21  22
ENDBRANCH  20  21
ENDBRANCH   7  20
BRANCH   6  25
ATOM     25  O   UNL     1       3.419   6.294  -9.752  0.00  0.00    -0.470 OA
BRANCH  25  26
ATOM     26  C   UNL     1       4.393   5.430 -10.330  0.00  0.00    +0.237 C 
BRANCH  26  27
ATOM     27  C   UNL     1       5.680   6.211 -10.517  0.00  0.00    +0.189 C 
BRANCH  27  28
ATOM     28  O   UNL     1       5.370   7.511 -10.914  0.00  0.00    -0.347 OA
ATOM     29  C   UNL     1       6.490   8.157 -11.416  0.00  0.00    +0.174 C 
ENDBRANCH  27  28
ENDBRANCH  26  27
ENDBRANCH  25  26
ENDBRANCH   6  25
TORSDOF 10
ENDMDL
MODEL 4
REMARK VINA RESULT:      -7.3      3.676      9.350
REMARK  Name = 
REMARK  10 active torsions:
REMARK  status: ('A' for Active; 'I' for Inactive)
REMARK    1  A    between atoms: C_2  and  C_3
REMARK    2  A    between atoms: C_7  and  N_8
REMARK    3  A    between atoms: C_15  and  O_16
REMARK    4  A    between atoms: O_16  and  C_17
REMARK    5  A    between atoms: C_17  and  C_18
REMARK    6  A    between atoms: C_18  and  O_19
REMARK    7  A    between atoms: C_21  and  O_22
REMARK    8  A    between atoms: O_22  and  C_23
REMARK    9  A    between atoms: C_23  and  C_24
REMARK   10  A    between atoms: C_24  and  O_25
REMARK                            x       y       z     vdW  Elec       q    Type
REMARK                         _______ _______ _______ _____ _____    ______ ____
ROOT
ATOM      1  N   UNL     1       0.711   5.725  -6.943  0.00  0.00    -0.194 NA
ATOM      2  C   UNL     1       2.003   5.201  -6.740  0.00  0.00    +0.155 A 
ATOM      3  C   UNL     1       2.954   5.571  -7.686  0.00  0.00    +0.054 A 
ATOM      4  C   UNL     1       4.296   5.688  -7.382  0.00  0.00    +0.089 A 
ATOM      5  C   UNL     1       5.214   6.115  -8.330  0.00  0.00    +0.059 A 
ATOM      6  C   UNL     1       4.813   6.056  -9.659  0.00  0.00    +0.174 A 
ATOM      7  C   UNL     1       3.496   5.849 -10.030  0.00  0.00    +0.173 A 
ATOM      8  N   UNL     1       4.670   5.218  -6.174  0.00  0.00    -0.224 NA
ATOM      9  C   UNL     1       3.798   4.526  -5.399  0.00  0.00    +0.200 A 
ATOM     10  C   UNL     1       2.568   5.694  -9.016  0.00  0.00    +0.044 A 
ATOM     11  N   UNL     1       2.467   4.697  -5.594  0.00  0.00    -0.207 NA
ENDROOT
BRANCH   1  14
ATOM     12  C   UNL     1      -1.669   6.352  -4.318  0.00  0.00    +0.044 A 
ATOM     13  C   UNL     1      -0.562   5.762  -4.858  0.00  0.00    +0.025 A 
ATOM     14  C   UNL     1      -0.442   5.399  -6.194  0.00  0.00    +0.073 A 
ATOM     15  C   UNL     1      -1.645   5.350  -6.888  0.00  0.00    +0.017 A 
ATOM     16  C   UNL     1      -2.846   5.740  -6.308  0.00  0.00    +0.002 A 
ATOM     17  C   UNL     1      -2.854   6.276  -5.028  0.00  0.00    +0.008 A 
BRANCH  12  19
ATOM     18  C   UNL     1      -1.956   7.528  -1.988  0.00  0.00    -0.009 C 
ATOM     19  C   UNL     1      -1.670   7.111  -3.093  0.00  0.00    -0.051 C 
ENDBRANCH  12  19
ENDBRANCH   1  14
BRANCH   7  20
ATOM     20  O   UNL     1       3.309   5.268 -11.290  0.00  0.00    -0.470 OA
BRANCH  20  21
ATOM     21  C   UNL     1       2.647   5.945 -12.338  0.00  0.00    +0.237 C 
BRANCH  21  22
ATOM     22  C   UNL     1       3.000   5.331 -13.688  0.00  0.00    +0.189 C 
BRANCH  22  23
ATOM     23  O   UNL     1       1.904   5.343 -14.555  0.00  0.00    -0.347 OA
ATOM     24  C   UNL     1       0.917   4.533 -14.016  0.00  0.00    +0.174 C 
ENDBRANCH  22  23
ENDBRANCH  21  22
ENDBRANCH  20  21
ENDBRANCH   7  20
BRANCH   6  25
ATOM     25  O   UNL     1       5.674   6.645 -10.588  0.00  0.00    -0.470 OA
BRANCH  25  26
ATOM     26  C   UNL     1       6.844   5.894 -10.898  0.00  0.00    +0.237 C 
BRANCH  26  27
ATOM     27  C   UNL     1       6.641   5.216 -12.239  0.00  0.00    +0.189 C 
BRANCH  27  28
ATOM     28  O   UNL     1       7.885   4.901 -12.784  0.00  0.00    -0.347 OA
ATOM     29  C   UNL     1       8.873   5.732 -12.275  0.00  0.00    +0.174 C 
ENDBRANCH  27  28
ENDBRANCH  26  27
ENDBRANCH  25  26
ENDBRANCH   6  25
TORSDOF 10
ENDMDL
MODEL 5
REMARK VINA RESULT:      -7.2      3.722      8.051
REMARK  Name = 
REMARK  10 active torsions:
REMARK  status: ('A' for Active; 'I' for Inactive)
REMARK    1  A    between atoms: C_2  and  C_3
REMARK    2  A    between atoms: C_7  and  N_8
REMARK    3  A    between atoms: C_15  and  O_16
REMARK    4  A    between atoms: O_16  and  C_17
REMARK    5  A    between atoms: C_17  and  C_18
REMARK    6  A    between atoms: C_18  and  O_19
REMARK    7  A    between atoms: C_21  and  O_22
REMARK    8  A    between atoms: O_22  and  C_23
REMARK    9  A    between atoms: C_23  and  C_24
REMARK   10  A    between atoms: C_24  and  O_25
REMARK                            x       y       z     vdW  Elec       q    Type
REMARK                         _______ _______ _______ _____ _____    ______ ____
ROOT
ATOM      1  N   UNL     1       3.157   6.853  -4.634  0.00  0.00    -0.194 NA
ATOM      2  C   UNL     1       3.485   6.132  -5.799  0.00  0.00    +0.155 A 
ATOM      3  C   UNL     1       2.503   6.111  -6.784  0.00  0.00    +0.054 A 
ATOM      4  C   UNL     1       2.803   6.014  -8.128  0.00  0.00    +0.089 A 
ATOM      5  C   UNL     1       1.807   6.053  -9.094  0.00  0.00    +0.059 A 
ATOM      6  C   UNL     1       0.509   5.815  -8.661  0.00  0.00    +0.174 A 
ATOM      7  C   UNL     1       0.161   5.807  -7.322  0.00  0.00    +0.173 A 
ATOM      8  N   UNL     1       4.087   5.725  -8.426  0.00  0.00    -0.224 NA
ATOM      9  C   UNL     1       4.966   5.389  -7.450  0.00  0.00    +0.200 A 
ATOM     10  C   UNL     1       1.167   6.044  -6.403  0.00  0.00    +0.044 A 
ATOM     11  N   UNL     1       4.717   5.780  -6.177  0.00  0.00    -0.207 NA
ENDROOT
BRANCH   1  14
ATOM     12  C   UNL     1       3.910   8.197  -1.381  0.00  0.00    +0.044 A 
ATOM     13  C   UNL     1       4.058   8.102  -2.736  0.00  0.00    +0.025 A 
ATOM     14  C   UNL     1       3.934   6.919  -3.455  0.00  0.00    +0.073 A 
ATOM     15  C   UNL     1       3.994   5.766  -2.681  0.00  0.00    +0.017 A 
ATOM     16  C   UNL     1       4.064   5.812  -1.295  0.00  0.00    +0.002 A 
ATOM     17  C   UNL     1       3.987   7.033  -0.639  0.00  0.00    +0.008 A 
BRANCH  12  19
ATOM     18  C   UNL     1       3.334  10.578  -0.436  0.00  0.00    -0.009 C 
ATOM     19  C   UNL     1       3.609   9.419  -0.681  0.00  0.00    -0.051 C 
ENDBRANCH  12  19
ENDBRANCH   1  14
BRANCH   7  20
ATOM     20  O   UNL     1      -0.963   5.040  -6.996  0.00  0.00    -0.470 OA
BRANCH  20  21
ATOM     21  C   UNL     1      -2.164   5.624  -6.534  0.00  0.00    +0.237 C 
BRANCH  21  22
ATOM     22  C   UNL     1      -2.120   5.831  -5.024  0.00  0.00    +0.189 C 
BRANCH  22  23
ATOM     23  O   UNL     1      -2.704   7.048  -4.659  0.00  0.00    -0.347 OA
ATOM     24  C   UNL     1      -1.705   8.006  -4.595  0.00  0.00    +0.174 C 
ENDBRANCH  22  23
ENDBRANCH  21  22
ENDBRANCH  20  21
ENDBRANCH   7  20
BRANCH   6  25
ATOM     25  O   UNL     1      -0.501   6.025  -9.603  0.00  0.00    -0.470 OA
BRANCH  25  26
ATOM     26  C   UNL     1      -0.063   6.146 -10.953  0.00  0.00    +0.237 C 
BRANCH  26  27
ATOM     27  C   UNL     1      -0.643   7.420 -11.536  0.00  0.00    +0.189 C 
BRANCH  27  28
ATOM     28  O   UNL     1       0.155   7.838 -12.600  0.00  0.00    -0.347 OA
ATOM     29  C   UNL     1       0.981   6.811 -13.034  0.00  0.00    +0.174 C 
ENDBRANCH  27  28
ENDBRANCH  26  27
ENDBRANCH  25  26
ENDBRANCH   6  25
TORSDOF 10
ENDMDL
MODEL 6
REMARK VINA RESULT:      -7.0      1.535      2.312
REMARK  Name = 
REMARK  10 active torsions:
REMARK  status: ('A' for Active; 'I' for Inactive)
REMARK    1  A    between atoms: C_2  and  C_3
REMARK    2  A    between atoms: C_7  and  N_8
REMARK    3  A    between atoms: C_15  and  O_16
REMARK    4  A    between atoms: O_16  and  C_17
REMARK    5  A    between atoms: C_17  and  C_18
REMARK    6  A    between atoms: C_18  and  O_19
REMARK    7  A    between atoms: C_21  and  O_22
REMARK    8  A    between atoms: O_22  and  C_23
REMARK    9  A    between atoms: C_23  and  C_24
REMARK   10  A    between atoms: C_24  and  O_25
REMARK                            x       y       z     vdW  Elec       q    Type
REMARK                         _______ _______ _______ _____ _____    ______ ____
ROOT
ATOM      1  N   UNL     1       3.505   6.432 -10.040  0.00  0.00    -0.194 NA
ATOM      2  C   UNL     1       2.341   5.669  -9.814  0.00  0.00    +0.155 A 
ATOM      3  C   UNL     1       1.918   5.604  -8.491  0.00  0.00    +0.054 A 
ATOM      4  C   UNL     1       0.589   5.459  -8.144  0.00  0.00    +0.089 A 
ATOM      5  C   UNL     1       0.188   5.455  -6.815  0.00  0.00    +0.059 A 
ATOM      6  C   UNL     1       1.175   5.225  -5.866  0.00  0.00    +0.174 A 
ATOM      7  C   UNL     1       2.524   5.264  -6.171  0.00  0.00    +0.173 A 
ATOM      8  N   UNL     1      -0.256   5.169  -9.155  0.00  0.00    -0.224 NA
ATOM      9  C   UNL     1       0.218   4.875 -10.391  0.00  0.00    +0.200 A 
ATOM     10  C   UNL     1       2.871   5.543  -7.480  0.00  0.00    +0.044 A 
ATOM     11  N   UNL     1       1.452   5.313 -10.744  0.00  0.00    -0.207 NA
ENDROOT
BRANCH   1  14
ATOM     12  C   UNL     1       6.444   6.108 -12.092  0.00  0.00    +0.044 A 
ATOM     13  C   UNL     1       5.560   6.797 -11.311  0.00  0.00    +0.025 A 
ATOM     14  C   UNL     1       4.193   6.547 -11.269  0.00  0.00    +0.073 A 
ATOM     15  C   UNL     1       3.715   5.783 -12.328  0.00  0.00    +0.017 A 
ATOM     16  C   UNL     1       4.562   5.233 -13.281  0.00  0.00    +0.002 A 
ATOM     17  C   UNL     1       5.937   5.367 -13.144  0.00  0.00    +0.008 A 
BRANCH  12  19
ATOM     18  C   UNL     1       9.056   5.859 -11.991  0.00  0.00    -0.009 C 
ATOM     19  C   UNL     1       7.862   6.043 -11.850  0.00  0.00    -0.051 C 
ENDBRANCH  12  19
ENDBRANCH   1  14
BRANCH   7  20
ATOM     20  O   UNL     1       3.353   4.502  -5.339  0.00  0.00    -0.470 OA
BRANCH  20  21
ATOM     21  C   UNL     1       4.488   5.050  -4.703  0.00  0.00    +0.237 C 
BRANCH  21  22
ATOM     22  C   UNL     1       4.117   5.640  -3.347  0.00  0.00    +0.189 C 
BRANCH  22  23
ATOM     23  O   UNL     1       4.308   4.713  -2.318  0.00  0.00    -0.347 OA
ATOM     24  C   UNL     1       3.432   5.020  -1.289  0.00  0.00    +0.174 C 
ENDBRANCH  22  23
ENDBRANCH  21  22
ENDBRANCH  20  21
ENDBRANCH   7  20
BRANCH   6  25
ATOM     25  O   UNL     1       0.795   5.392  -4.532  0.00  0.00    -0.470 OA
BRANCH  25  26
ATOM     26  C   UNL     1      -0.413   6.117  -4.326  0.00  0.00    +0.237 C 
BRANCH  26  27
ATOM     27  C   UNL     1      -1.151   5.500  -3.154  0.00  0.00    +0.189 C 
BRANCH  27  28
ATOM     28  O   UNL     1      -0.222   4.981  -2.253  0.00  0.00    -0.347 OA
ATOM     29  C   UNL     1      -0.239   5.688  -1.061  0.00  0.00    +0.174 C 
ENDBRANCH  27  28
ENDBRANCH  26  27
ENDBRANCH  25  26
ENDBRANCH   6  25
TORSDOF 10
ENDMDL
MODEL 7
REMARK VINA RESULT:      -7.0      2.364      4.888
REMARK  Name = 
REMARK  10 active torsions:
REMARK  status: ('A' for Active; 'I' for Inactive)
REMARK    1  A    between atoms: C_2  and  C_3
REMARK    2  A    between atoms: C_7  and  N_8
REMARK    3  A    between atoms: C_15  and  O_16
REMARK    4  A    between atoms: O_16  and  C_17
REMARK    5  A    between atoms: C_17  and  C_18
REMARK    6  A    between atoms: C_18  and  O_19
REMARK    7  A    between atoms: C_21  and  O_22
REMARK    8  A    between atoms: O_22  and  C_23
REMARK    9  A    between atoms: C_23  and  C_24
REMARK   10  A    between atoms: C_24  and  O_25
REMARK                            x       y       z     vdW  Elec       q    Type
REMARK                         _______ _______ _______ _____ _____    ______ ____
ROOT
ATOM      1  N   UNL     1       1.171   5.612 -10.755  0.00  0.00    -0.194 NA
ATOM      2  C   UNL     1       2.449   6.110 -10.433  0.00  0.00    +0.155 A 
ATOM      3  C   UNL     1       2.819   5.986  -9.098  0.00  0.00    +0.054 A 
ATOM      4  C   UNL     1       4.135   5.838  -8.704  0.00  0.00    +0.089 A 
ATOM      5  C   UNL     1       4.471   5.659  -7.370  0.00  0.00    +0.059 A 
ATOM      6  C   UNL     1       3.508   6.005  -6.431  0.00  0.00    +0.174 A 
ATOM      7  C   UNL     1       2.190   6.256  -6.775  0.00  0.00    +0.173 A 
ATOM      8  N   UNL     1       5.063   6.034  -9.663  0.00  0.00    -0.224 NA
ATOM      9  C   UNL     1       4.710   6.511 -10.882  0.00  0.00    +0.200 A 
ATOM     10  C   UNL     1       1.853   6.155  -8.112  0.00  0.00    +0.044 A 
ATOM     11  N   UNL     1       3.431   6.355 -11.305  0.00  0.00    -0.207 NA
ENDROOT
BRANCH   1  14
ATOM     12  C   UNL     1       0.633   7.234 -13.923  0.00  0.00    +0.044 A 
ATOM     13  C   UNL     1       0.348   6.970 -12.613  0.00  0.00    +0.025 A 
ATOM     14  C   UNL     1       0.527   5.731 -12.008  0.00  0.00    +0.073 A 
ATOM     15  C   UNL     1       0.687   4.674 -12.896  0.00  0.00    +0.017 A 
ATOM     16  C   UNL     1       0.767   4.871 -14.269  0.00  0.00    +0.002 A 
ATOM     17  C   UNL     1       0.774   6.160 -14.783  0.00  0.00    +0.008 A 
BRANCH  12  19
ATOM     18  C   UNL     1       0.887   9.519 -15.190  0.00  0.00    -0.009 C 
ATOM     19  C   UNL     1       0.867   8.552 -14.453  0.00  0.00    -0.051 C 
ENDBRANCH  12  19
ENDBRANCH   1  14
BRANCH   7  20
ATOM     20  O   UNL     1       1.491   7.100  -5.904  0.00  0.00    -0.470 OA
BRANCH  20  21
ATOM     21  C   UNL     1       0.673   6.598  -4.868  0.00  0.00    +0.237 C 
BRANCH  21  22
ATOM     22  C   UNL     1      -0.341   5.599  -5.414  0.00  0.00    +0.189 C 
BRANCH  22  23
ATOM     23  O   UNL     1      -1.652   6.041  -5.214  0.00  0.00    -0.347 OA
ATOM     24  C   UNL     1      -2.438   5.544  -6.242  0.00  0.00    +0.174 C 
ENDBRANCH  22  23
ENDBRANCH  21  22
ENDBRANCH  20  21
ENDBRANCH   7  20
BRANCH   6  25
ATOM     25  O   UNL     1       3.789   5.662  -5.107  0.00  0.00    -0.470 OA
BRANCH  25  26
ATOM     26  C   UNL     1       4.943   6.281  -4.547  0.00  0.00    +0.237 C 
BRANCH  26  27
ATOM     27  C   UNL     1       4.574   7.686  -4.113  0.00  0.00    +0.189 C 
BRANCH  27  28
ATOM     28  O   UNL     1       3.584   7.615  -3.133  0.00  0.00    -0.347 OA
ATOM     29  C   UNL     1       3.883   8.449  -2.065  0.00  0.00    +0.174 C 
ENDBRANCH  27  28
ENDBRANCH  26  27
ENDBRANCH  25  26
ENDBRANCH   6  25
TORSDOF 10
ENDMDL
MODEL 8
REMARK VINA RESULT:      -7.0      4.379      9.494
REMARK  Name = 
REMARK  10 active torsions:
REMARK  status: ('A' for Active; 'I' for Inactive)
REMARK    1  A    between atoms: C_2  and  C_3
REMARK    2  A    between atoms: C_7  and  N_8
REMARK    3  A    between atoms: C_15  and  O_16
REMARK    4  A    between atoms: O_16  and  C_17
REMARK    5  A    between atoms: C_17  and  C_18
REMARK    6  A    between atoms: C_18  and  O_19
REMARK    7  A    between atoms: C_21  and  O_22
REMARK    8  A    between atoms: O_22  and  C_23
REMARK    9  A    between atoms: C_23  and  C_24
REMARK   10  A    between atoms: C_24  and  O_25
REMARK                            x       y       z     vdW  Elec       q    Type
REMARK                         _______ _______ _______ _____ _____    ______ ____
ROOT
ATOM      1  N   UNL     1       3.789   6.076  -9.129  0.00  0.00    -0.194 NA
ATOM      2  C   UNL     1       5.041   5.731  -9.677  0.00  0.00    +0.155 A 
ATOM      3  C   UNL     1       5.182   5.970 -11.040  0.00  0.00    +0.054 A 
ATOM      4  C   UNL     1       6.399   6.275 -11.617  0.00  0.00    +0.089 A 
ATOM      5  C   UNL     1       6.502   6.566 -12.971  0.00  0.00    +0.059 A 
ATOM      6  C   UNL     1       5.438   6.179 -13.775  0.00  0.00    +0.174 A 
ATOM      7  C   UNL     1       4.221   5.774 -13.254  0.00  0.00    +0.173 A 
ATOM      8  N   UNL     1       7.481   6.119 -10.828  0.00  0.00    -0.224 NA
ATOM      9  C   UNL     1       7.371   5.537  -9.607  0.00  0.00    +0.200 A 
ATOM     10  C   UNL     1       4.092   5.762 -11.878  0.00  0.00    +0.044 A 
ATOM     11  N   UNL     1       6.166   5.537  -8.986  0.00  0.00    -0.207 NA
ENDROOT
BRANCH   1  14
ATOM     12  C   UNL     1       3.909   6.636  -5.576  0.00  0.00    +0.044 A 
ATOM     13  C   UNL     1       4.229   5.974  -6.727  0.00  0.00    +0.025 A 
ATOM     14  C   UNL     1       3.366   5.818  -7.806  0.00  0.00    +0.073 A 
ATOM     15  C   UNL     1       2.030   6.072  -7.516  0.00  0.00    +0.017 A 
ATOM     16  C   UNL     1       1.623   6.547  -6.275  0.00  0.00    +0.002 A 
ATOM     17  C   UNL     1       2.570   6.863  -5.311  0.00  0.00    +0.008 A 
BRANCH  12  19
ATOM     18  C   UNL     1       5.525   7.391  -3.650  0.00  0.00    -0.009 C 
ATOM     19  C   UNL     1       4.875   7.176  -4.654  0.00  0.00    -0.051 C 
ENDBRANCH  12  19
ENDBRANCH   1  14
BRANCH   7  20
ATOM     20  O   UNL     1       3.473   4.916 -14.069  0.00  0.00    -0.470 OA
BRANCH  20  21
ATOM     21  C   UNL     1       2.065   4.833 -13.980  0.00  0.00    +0.237 C 
BRANCH  21  22
ATOM     22  C   UNL     1       1.418   6.148 -14.398  0.00  0.00    +0.189 C 
BRANCH  22  23
ATOM     23  O   UNL     1       0.539   5.966 -15.470  0.00  0.00    -0.347 OA
ATOM     24  C   UNL     1       0.290   7.203 -16.041  0.00  0.00    +0.174 C 
ENDBRANCH  22  23
ENDBRANCH  21  22
ENDBRANCH  20  21
ENDBRANCH   7  20
BRANCH   6  25
ATOM     25  O   UNL     1       5.473   6.625 -15.098  0.00  0.00    -0.470 OA
BRANCH  25  26
ATOM     26  C   UNL     1       6.543   7.510 -15.416  0.00  0.00    +0.237 C 
BRANCH  26  27
ATOM     27  C   UNL     1       6.293   8.092 -16.794  0.00  0.00    +0.189 C 
BRANCH  27  28
ATOM     28  O   UNL     1       5.764   9.375 -16.657  0.00  0.00    -0.347 OA
ATOM     29  C   UNL     1       6.199  10.203 -17.681  0.00  0.00    +0.174 C 
ENDBRANCH  27  28
ENDBRANCH  26  27
ENDBRANCH  25  26
ENDBRANCH   6  25
TORSDOF 10
ENDMDL
MODEL 9
REMARK VINA RESULT:      -6.9      3.557      5.658
REMARK  Name = 
REMARK  10 active torsions:
REMARK  status: ('A' for Active; 'I' for Inactive)
REMARK    1  A    between atoms: C_2  and  C_3
REMARK    2  A    between atoms: C_7  and  N_8
REMARK    3  A    between atoms: C_15  and  O_16
REMARK    4  A    between atoms: O_16  and  C_17
REMARK    5  A    between atoms: C_17  and  C_18
REMARK    6  A    between atoms: C_18  and  O_19
REMARK    7  A    between atoms: C_21  and  O_22
REMARK    8  A    between atoms: O_22  and  C_23
REMARK    9  A    between atoms: C_23  and  C_24
REMARK   10  A    between atoms: C_24  and  O_25
REMARK                            x       y       z     vdW  Elec       q    Type
REMARK                         _______ _______ _______ _____ _____    ______ ____
ROOT
ATOM      1  N   UNL     1       0.889   5.750  -6.585  0.00  0.00    -0.194 NA
ATOM      2  C   UNL     1      -0.350   5.479  -5.971  0.00  0.00    +0.155 A 
ATOM      3  C   UNL     1      -0.443   5.840  -4.631  0.00  0.00    +0.054 A 
ATOM      4  C   UNL     1      -1.636   6.218  -4.046  0.00  0.00    +0.089 A 
ATOM      5  C   UNL     1      -1.691   6.628  -2.722  0.00  0.00    +0.059 A 
ATOM      6  C   UNL     1      -0.608   6.293  -1.919  0.00  0.00    +0.174 A 
ATOM      7  C   UNL     1       0.585   5.820  -2.438  0.00  0.00    +0.173 A 
ATOM      8  N   UNL     1      -2.745   6.014  -4.786  0.00  0.00    -0.224 NA
ATOM      9  C   UNL     1      -2.684   5.326  -5.953  0.00  0.00    +0.200 A 
ATOM     10  C   UNL     1       0.670   5.685  -3.812  0.00  0.00    +0.044 A 
ATOM     11  N   UNL     1      -1.500   5.247  -6.608  0.00  0.00    -0.207 NA
ENDROOT
BRANCH   1  14
ATOM     12  C   UNL     1       0.993   6.250 -10.148  0.00  0.00    +0.044 A 
ATOM     13  C   UNL     1       0.494   5.711  -8.997  0.00  0.00    +0.025 A 
ATOM     14  C   UNL     1       1.266   5.369  -7.893  0.00  0.00    +0.073 A 
ATOM     15  C   UNL     1       2.629   5.280  -8.150  0.00  0.00    +0.017 A 
ATOM     16  C   UNL     1       3.170   5.614  -9.385  0.00  0.00    +0.002 A 
ATOM     17  C   UNL     1       2.352   6.134 -10.379  0.00  0.00    +0.008 A 
BRANCH  12  19
ATOM     18  C   UNL     1      -0.686   7.621 -11.629  0.00  0.00    -0.009 C 
ATOM     19  C   UNL     1       0.212   6.993 -11.103  0.00  0.00    -0.051 C 
ENDBRANCH  12  19
ENDBRANCH   1  14
BRANCH   7  20
ATOM     20  O   UNL     1       1.344   5.023  -1.574  0.00  0.00    -0.470 OA
BRANCH  20  21
ATOM     21  C   UNL     1       2.580   5.455  -1.044  0.00  0.00    +0.237 C 
BRANCH  21  22
ATOM     22  C   UNL     1       3.727   4.609  -1.586  0.00  0.00    +0.189 C 
BRANCH  22  23
ATOM     23  O   UNL     1       4.200   5.111  -2.802  0.00  0.00    -0.347 OA
ATOM     24  C   UNL     1       4.322   6.487  -2.685  0.00  0.00    +0.174 C 
ENDBRANCH  22  23
ENDBRANCH  21  22
ENDBRANCH  20  21
ENDBRANCH   7  20
BRANCH   6  25
ATOM     25  O   UNL     1      -0.594   6.855  -0.640  0.00  0.00    -0.470 OA
BRANCH  25  26
ATOM     26  C   UNL     1      -1.871   7.184  -0.103  0.00  0.00    +0.237 C 
BRANCH  26  27
ATOM     27  C   UNL     1      -1.680   8.204   1.003  0.00  0.00    +0.189 C 
BRANCH  27  28
ATOM     28  O   UNL     1      -0.854   9.228   0.540  0.00  0.00    -0.347 OA
ATOM     29  C   UNL     1       0.005   9.661   1.539  0.00  0.00    +0.174 C 
ENDBRANCH  27  28
ENDBRANCH  26  27
ENDBRANCH  25  26
ENDBRANCH   6  25
TORSDOF 10
ENDMDL
