MODEL 1
REMARK VINA RESULT:      -8.0      0.000      0.000
REMARK  Name = 
REMARK  6 active torsions:
REMARK  status: ('A' for Active; 'I' for Inactive)
REMARK    1  A    between atoms: O_2  and  C_3
REMARK    2  A    between atoms: C_10  and  C_11
REMARK    3  A    between atoms: C_11  and  C_12
REMARK    4  A    between atoms: C_13  and  C_15
REMARK    5  A    between atoms: C_15  and  C_16
REMARK    6  A    between atoms: C_16  and  C_17
REMARK                            x       y       z     vdW  Elec       q    Type
REMARK                         _______ _______ _______ _____ _____    ______ ____
ROOT
ATOM      1  C   UNL     1       1.582   5.288  -7.572  0.00  0.00    +0.134 A 
ATOM      2  C   UNL     1       2.899   5.318  -7.123  0.00  0.00    +0.055 A 
ATOM      3  C   UNL     1       3.071   5.157  -5.753  0.00  0.00    +0.201 A 
ATOM      4  O   UNL     1       4.380   5.209  -5.271  0.00  0.00    -0.287 OA
ATOM      5  C   UNL     1       2.001   5.207  -4.868  0.00  0.00    +0.114 A 
ATOM      6  C   UNL     1       1.884   5.467  -3.427  0.00  0.00    +0.344 C 
ATOM      7  O   UNL     1       0.686   6.156  -3.210  0.00  0.00    -0.440 OA
ATOM      8  C   UNL     1      -0.201   5.657  -4.196  0.00  0.00    +0.235 C 
ATOM      9  O   UNL     1       2.877   5.641  -2.679  0.00  0.00    -0.245 OA
ATOM     10  C   UNL     1       0.709   5.356  -5.346  0.00  0.00    +0.030 A 
ATOM     11  C   UNL     1       0.509   5.145  -6.704  0.00  0.00    +0.012 A 
ATOM     12  C   UNL     1      -0.896   5.331  -7.182  0.00  0.00    +0.034 C 
ENDROOT
BRANCH   1  14
ATOM     13  C   UNL     1       1.269   4.836  -9.976  0.00  0.00    +0.252 C 
ATOM     14  O   UNL     1       1.269   5.705  -8.870  0.00  0.00    -0.472 OA
ENDBRANCH   1  14
BRANCH   2  15
ATOM     15  C   UNL     1       3.840   6.102  -7.949  0.00  0.00    +0.058 C 
BRANCH  15  16
ATOM     16  C   UNL     1       4.809   5.286  -8.706  0.00  0.00    -0.030 C 
ATOM     17  C   UNL     1       5.597   5.760  -9.671  0.00  0.00    -0.047 C 
ATOM     18  C   UNL     1       4.944   6.809 -10.521  0.00  0.00    +0.026 C 
BRANCH  17  19
ATOM     19  C   UNL     1       7.077   5.781  -9.610  0.00  0.00    +0.034 C 
BRANCH  19  20
ATOM     20  C   UNL     1       7.725   6.453 -10.778  0.00  0.00    +0.118 C 
BRANCH  20  21
ATOM     21  C   UNL     1       8.444   5.516 -11.678  0.00  0.00    +0.365 C 
ATOM     22  O   UNL     1       7.640   4.604 -12.371  0.00  0.00    -0.246 OA
ATOM     23  O   UNL     1       9.369   6.041 -12.371  0.00  0.00    -0.246 OA
ENDBRANCH  20  21
ENDBRANCH  19  20
ENDBRANCH  17  19
ENDBRANCH  15  16
ENDBRANCH   2  15
TORSDOF 6
ENDMDL
MODEL 2
REMARK VINA RESULT:      -7.6      1.904      7.528
REMARK  Name = 
REMARK  6 active torsions:
REMARK  status: ('A' for Active; 'I' for Inactive)
REMARK    1  A    between atoms: O_2  and  C_3
REMARK    2  A    between atoms: C_10  and  C_11
REMARK    3  A    between atoms: C_11  and  C_12
REMARK    4  A    between atoms: C_13  and  C_15
REMARK    5  A    between atoms: C_15  and  C_16
REMARK    6  A    between atoms: C_16  and  C_17
REMARK                            x       y       z     vdW  Elec       q    Type
REMARK                         _______ _______ _______ _____ _____    ______ ____
ROOT
ATOM      1  C   UNL     1       4.076   5.770 -10.480  0.00  0.00    +0.134 A 
ATOM      2  C   UNL     1       5.136   5.725  -9.580  0.00  0.00    +0.055 A 
ATOM      3  C   UNL     1       6.401   5.877 -10.134  0.00  0.00    +0.201 A 
ATOM      4  O   UNL     1       7.487   5.810  -9.258  0.00  0.00    -0.287 OA
ATOM      5  C   UNL     1       6.612   5.834 -11.507  0.00  0.00    +0.114 A 
ATOM      6  C   UNL     1       7.787   5.568 -12.348  0.00  0.00    +0.344 C 
ATOM      7  O   UNL     1       7.352   4.890 -13.492  0.00  0.00    -0.440 OA
ATOM      8  C   UNL     1       6.055   5.403 -13.744  0.00  0.00    +0.235 C 
ATOM      9  O   UNL     1       8.937   5.380 -11.880  0.00  0.00    -0.245 OA
ATOM     10  C   UNL     1       5.538   5.700 -12.372  0.00  0.00    +0.030 A 
ATOM     11  C   UNL     1       4.272   5.920 -11.846  0.00  0.00    +0.012 A 
ATOM     12  C   UNL     1       3.138   5.750 -12.808  0.00  0.00    +0.034 C 
ENDROOT
BRANCH   1  14
ATOM     13  C   UNL     1       1.800   6.263  -9.668  0.00  0.00    +0.252 C 
ATOM     14  O   UNL     1       2.797   5.363 -10.086  0.00  0.00    -0.472 OA
ENDBRANCH   1  14
BRANCH   2  15
ATOM     15  C   UNL     1       4.902   4.935  -8.354  0.00  0.00    +0.058 C 
BRANCH  15  16
ATOM     16  C   UNL     1       4.706   5.746  -7.137  0.00  0.00    -0.030 C 
ATOM     17  C   UNL     1       3.928   5.391  -6.115  0.00  0.00    -0.047 C 
ATOM     18  C   UNL     1       2.680   4.671  -6.530  0.00  0.00    +0.026 C 
BRANCH  17  19
ATOM     19  C   UNL     1       4.415   5.135  -4.739  0.00  0.00    +0.034 C 
BRANCH  19  20
ATOM     20  C   UNL     1       4.752   6.373  -3.972  0.00  0.00    +0.118 C 
BRANCH  20  21
ATOM     21  C   UNL     1       3.560   7.143  -3.532  0.00  0.00    +0.365 C 
ATOM     22  O   UNL     1       2.534   6.389  -2.951  0.00  0.00    -0.246 OA
ATOM     23  O   UNL     1       3.816   8.236  -2.941  0.00  0.00    -0.246 OA
ENDBRANCH  20  21
ENDBRANCH  19  20
ENDBRANCH  17  19
ENDBRANCH  15  16
ENDBRANCH   2  15
TORSDOF 6
ENDMDL
MODEL 3
REMARK VINA RESULT:      -7.3      2.905      8.189
REMARK  Name = 
REMARK  6 active torsions:
REMARK  status: ('A' for Active; 'I' for Inactive)
REMARK    1  A    between atoms: O_2  and  C_3
REMARK    2  A    between atoms: C_10  and  C_11
REMARK    3  A    between atoms: C_11  and  C_12
REMARK    4  A    between atoms: C_13  and  C_15
REMARK    5  A    between atoms: C_15  and  C_16
REMARK    6  A    between atoms: C_16  and  C_17
REMARK                            x       y       z     vdW  Elec       q    Type
REMARK                         _______ _______ _______ _____ _____    ______ ____
ROOT
ATOM      1  C   UNL     1       3.052   5.914  -4.175  0.00  0.00    +0.134 A 
ATOM      2  C   UNL     1       2.014   5.056  -4.522  0.00  0.00    +0.055 A 
ATOM      3  C   UNL     1       2.146   4.418  -5.750  0.00  0.00    +0.201 A 
ATOM      4  O   UNL     1       1.106   3.571  -6.137  0.00  0.00    -0.287 OA
ATOM      5  C   UNL     1       3.117   4.792  -6.670  0.00  0.00    +0.114 A 
ATOM      6  C   UNL     1       3.264   4.619  -8.122  0.00  0.00    +0.344 C 
ATOM      7  O   UNL     1       3.897   5.759  -8.629  0.00  0.00    -0.440 OA
ATOM      8  C   UNL     1       4.769   6.178  -7.594  0.00  0.00    +0.235 C 
ATOM      9  O   UNL     1       2.452   3.964  -8.820  0.00  0.00    -0.245 OA
ATOM     10  C   UNL     1       4.032   5.783  -6.353  0.00  0.00    +0.030 A 
ATOM     11  C   UNL     1       4.131   6.147  -5.016  0.00  0.00    +0.012 A 
ATOM     12  C   UNL     1       5.119   7.230  -4.717  0.00  0.00    +0.034 C 
ENDROOT
BRANCH   1  14
ATOM     13  C   UNL     1       3.253   6.482  -1.783  0.00  0.00    +0.252 C 
ATOM     14  O   UNL     1       2.904   6.806  -3.107  0.00  0.00    -0.472 OA
ENDBRANCH   1  14
BRANCH   2  15
ATOM     15  C   UNL     1       0.695   5.376  -3.938  0.00  0.00    +0.058 C 
BRANCH  15  16
ATOM     16  C   UNL     1       0.120   6.654  -4.399  0.00  0.00    -0.030 C 
ATOM     17  C   UNL     1      -1.116   6.792  -4.879  0.00  0.00    -0.047 C 
ATOM     18  C   UNL     1      -1.575   5.627  -5.703  0.00  0.00    +0.026 C 
BRANCH  17  19
ATOM     19  C   UNL     1      -2.173   7.615  -4.248  0.00  0.00    +0.034 C 
BRANCH  19  20
ATOM     20  C   UNL     1      -3.230   6.821  -3.550  0.00  0.00    +0.118 C 
BRANCH  20  21
ATOM     21  C   UNL     1      -2.846   6.396  -2.180  0.00  0.00    +0.365 C 
ATOM     22  O   UNL     1      -2.510   5.046  -2.036  0.00  0.00    -0.246 OA
ATOM     23  O   UNL     1      -2.082   7.201  -1.563  0.00  0.00    -0.246 OA
ENDBRANCH  20  21
ENDBRANCH  19  20
ENDBRANCH  17  19
ENDBRANCH  15  16
ENDBRANCH   2  15
TORSDOF 6
ENDMDL
MODEL 4
REMARK VINA RESULT:      -7.3      2.394      8.495
REMARK  Name = 
REMARK  6 active torsions:
REMARK  status: ('A' for Active; 'I' for Inactive)
REMARK    1  A    between atoms: O_2  and  C_3
REMARK    2  A    between atoms: C_10  and  C_11
REMARK    3  A    between atoms: C_11  and  C_12
REMARK    4  A    between atoms: C_13  and  C_15
REMARK    5  A    between atoms: C_15  and  C_16
REMARK    6  A    between atoms: C_16  and  C_17
REMARK                            x       y       z     vdW  Elec       q    Type
REMARK                         _______ _______ _______ _____ _____    ______ ____
ROOT
ATOM      1  C   UNL     1       2.921   5.321  -7.857  0.00  0.00    +0.134 A 
ATOM      2  C   UNL     1       1.618   5.525  -8.302  0.00  0.00    +0.055 A 
ATOM      3  C   UNL     1       1.438   5.471  -9.679  0.00  0.00    +0.201 A 
ATOM      4  O   UNL     1       0.146   5.698 -10.156  0.00  0.00    -0.287 OA
ATOM      5  C   UNL     1       2.513   5.456 -10.559  0.00  0.00    +0.114 A 
ATOM      6  C   UNL     1       2.667   5.792 -11.982  0.00  0.00    +0.344 C 
ATOM      7  O   UNL     1       3.936   6.355 -12.155  0.00  0.00    -0.440 OA
ATOM      8  C   UNL     1       4.755   5.700 -11.203  0.00  0.00    +0.235 C 
ATOM      9  O   UNL     1       1.704   6.122 -12.717  0.00  0.00    -0.245 OA
ATOM     10  C   UNL     1       3.810   5.430 -10.074  0.00  0.00    +0.030 A 
ATOM     11  C   UNL     1       3.977   5.113  -8.733  0.00  0.00    +0.012 A 
ATOM     12  C   UNL     1       5.391   5.111  -8.244  0.00  0.00    +0.034 C 
ENDROOT
BRANCH   1  14
ATOM     13  C   UNL     1       3.132   4.698  -5.480  0.00  0.00    +0.252 C 
ATOM     14  O   UNL     1       3.270   5.617  -6.535  0.00  0.00    -0.472 OA
ENDBRANCH   1  14
BRANCH   2  15
ATOM     15  C   UNL     1       0.766   6.355  -7.427  0.00  0.00    +0.058 C 
BRANCH  15  16
ATOM     16  C   UNL     1      -0.233   5.595  -6.651  0.00  0.00    -0.030 C 
ATOM     17  C   UNL     1      -0.802   6.030  -5.528  0.00  0.00    -0.047 C 
ATOM     18  C   UNL     1       0.123   6.821  -4.651  0.00  0.00    +0.026 C 
BRANCH  17  19
ATOM     19  C   UNL     1      -2.251   6.293  -5.369  0.00  0.00    +0.034 C 
BRANCH  19  20
ATOM     20  C   UNL     1      -2.954   5.317  -4.480  0.00  0.00    +0.118 C 
BRANCH  20  21
ATOM     21  C   UNL     1      -2.904   5.682  -3.042  0.00  0.00    +0.365 C 
ATOM     22  O   UNL     1      -3.968   6.465  -2.579  0.00  0.00    -0.246 OA
ATOM     23  O   UNL     1      -2.559   4.743  -2.261  0.00  0.00    -0.246 OA
ENDBRANCH  20  21
ENDBRANCH  19  20
ENDBRANCH  17  19
ENDBRANCH  15  16
ENDBRANCH   2  15
TORSDOF 6
ENDMDL
MODEL 5
REMARK VINA RESULT:      -7.3      3.594      5.012
REMARK  Name = 
REMARK  6 active torsions:
REMARK  status: ('A' for Active; 'I' for Inactive)
REMARK    1  A    between atoms: O_2  and  C_3
REMARK    2  A    between atoms: C_10  and  C_11
REMARK    3  A    between atoms: C_11  and  C_12
REMARK    4  A    between atoms: C_13  and  C_15
REMARK    5  A    between atoms: C_15  and  C_16
REMARK    6  A    between atoms: C_16  and  C_17
REMARK                            x       y       z     vdW  Elec       q    Type
REMARK                         _______ _______ _______ _____ _____    ______ ____
ROOT
ATOM      1  C   UNL     1       0.902   6.277  -5.937  0.00  0.00    +0.134 A 
ATOM      2  C   UNL     1      -0.256   5.853  -6.582  0.00  0.00    +0.055 A 
ATOM      3  C   UNL     1      -1.389   5.759  -5.782  0.00  0.00    +0.201 A 
ATOM      4  O   UNL     1      -2.560   5.310  -6.397  0.00  0.00    -0.287 OA
ATOM      5  C   UNL     1      -1.320   5.846  -4.397  0.00  0.00    +0.114 A 
ATOM      6  C   UNL     1      -2.201   5.411  -3.305  0.00  0.00    +0.344 C 
ATOM      7  O   UNL     1      -1.394   5.019  -2.232  0.00  0.00    -0.440 OA
ATOM      8  C   UNL     1      -0.260   5.865  -2.305  0.00  0.00    +0.235 C 
ATOM      9  O   UNL     1      -3.324   4.884  -3.499  0.00  0.00    -0.245 OA
ATOM     10  C   UNL     1      -0.108   6.098  -3.775  0.00  0.00    +0.030 A 
ATOM     11  C   UNL     1       0.931   6.553  -4.577  0.00  0.00    +0.012 A 
ATOM     12  C   UNL     1       2.227   6.798  -3.870  0.00  0.00    +0.034 C 
ENDROOT
BRANCH   1  14
ATOM     13  C   UNL     1       2.790   7.221  -7.212  0.00  0.00    +0.252 C 
ATOM     14  O   UNL     1       2.146   6.152  -6.563  0.00  0.00    -0.472 OA
ENDBRANCH   1  14
BRANCH   2  15
ATOM     15  C   UNL     1      -0.051   4.992  -7.764  0.00  0.00    +0.058 C 
BRANCH  15  16
ATOM     16  C   UNL     1      -0.068   5.712  -9.051  0.00  0.00    -0.030 C 
ATOM     17  C   UNL     1       0.637   5.353 -10.123  0.00  0.00    -0.047 C 
ATOM     18  C   UNL     1       1.992   4.801  -9.794  0.00  0.00    +0.026 C 
BRANCH  17  19
ATOM     19  C   UNL     1       0.045   4.933 -11.414  0.00  0.00    +0.034 C 
BRANCH  19  20
ATOM     20  C   UNL     1       0.635   5.616 -12.606  0.00  0.00    +0.118 C 
BRANCH  20  21
ATOM     21  C   UNL     1       1.175   4.676 -13.623  0.00  0.00    +0.365 C 
ATOM     22  O   UNL     1       0.220   3.963 -14.355  0.00  0.00    -0.246 OA
ATOM     23  O   UNL     1       2.142   5.127 -14.310  0.00  0.00    -0.246 OA
ENDBRANCH  20  21
ENDBRANCH  19  20
ENDBRANCH  17  19
ENDBRANCH  15  16
ENDBRANCH   2  15
TORSDOF 6
ENDMDL
MODEL 6
REMARK VINA RESULT:      -7.2      2.655      5.338
REMARK  Name = 
REMARK  6 active torsions:
REMARK  status: ('A' for Active; 'I' for Inactive)
REMARK    1  A    between atoms: O_2  and  C_3
REMARK    2  A    between atoms: C_10  and  C_11
REMARK    3  A    between atoms: C_11  and  C_12
REMARK    4  A    between atoms: C_13  and  C_15
REMARK    5  A    between atoms: C_15  and  C_16
REMARK    6  A    between atoms: C_16  and  C_17
REMARK                            x       y       z     vdW  Elec       q    Type
REMARK                         _______ _______ _______ _____ _____    ______ ____
ROOT
ATOM      1  C   UNL     1       2.625   6.041  -9.370  0.00  0.00    +0.134 A 
ATOM      2  C   UNL     1       3.607   6.169 -10.346  0.00  0.00    +0.055 A 
ATOM      3  C   UNL     1       3.156   6.138 -11.660  0.00  0.00    +0.201 A 
ATOM      4  O   UNL     1       4.124   6.238 -12.663  0.00  0.00    -0.287 OA
ATOM      5  C   UNL     1       1.857   5.765 -11.982  0.00  0.00    +0.114 A 
ATOM      6  C   UNL     1       1.217   5.263 -13.206  0.00  0.00    +0.344 C 
ATOM      7  O   UNL     1       0.224   4.352 -12.829  0.00  0.00    -0.440 OA
ATOM      8  C   UNL     1      -0.262   4.840 -11.591  0.00  0.00    +0.235 C 
ATOM      9  O   UNL     1       1.822   5.147 -14.300  0.00  0.00    -0.245 OA
ATOM     10  C   UNL     1       0.948   5.472 -10.979  0.00  0.00    +0.030 A 
ATOM     11  C   UNL     1       1.286   5.857  -9.688  0.00  0.00    +0.012 A 
ATOM     12  C   UNL     1       0.286   5.509  -8.631  0.00  0.00    +0.034 C 
ENDROOT
BRANCH   1  14
ATOM     13  C   UNL     1       3.161   6.806  -7.087  0.00  0.00    +0.252 C 
ATOM     14  O   UNL     1       2.978   5.788  -8.041  0.00  0.00    -0.472 OA
ENDBRANCH   1  14
BRANCH   2  15
ATOM     15  C   UNL     1       4.955   5.701  -9.964  0.00  0.00    +0.058 C 
BRANCH  15  16
ATOM     16  C   UNL     1       6.007   6.730 -10.064  0.00  0.00    -0.030 C 
ATOM     17  C   UNL     1       7.308   6.465 -10.187  0.00  0.00    -0.047 C 
ATOM     18  C   UNL     1       7.754   5.264  -9.409  0.00  0.00    +0.026 C 
BRANCH  17  19
ATOM     19  C   UNL     1       8.132   6.840 -11.360  0.00  0.00    +0.034 C 
BRANCH  19  20
ATOM     20  C   UNL     1       8.487   5.691 -12.247  0.00  0.00    +0.118 C 
BRANCH  20  21
ATOM     21  C   UNL     1       7.585   5.543 -13.418  0.00  0.00    +0.365 C 
ATOM     22  O   UNL     1       6.461   4.735 -13.218  0.00  0.00    -0.246 OA
ATOM     23  O   UNL     1       7.361   6.615 -14.060  0.00  0.00    -0.246 OA
ENDBRANCH  20  21
ENDBRANCH  19  20
ENDBRANCH  17  19
ENDBRANCH  15  16
ENDBRANCH   2  15
TORSDOF 6
ENDMDL
MODEL 7
REMARK VINA RESULT:      -7.1      1.689      2.416
REMARK  Name = 
REMARK  6 active torsions:
REMARK  status: ('A' for Active; 'I' for Inactive)
REMARK    1  A    between atoms: O_2  and  C_3
REMARK    2  A    between atoms: C_10  and  C_11
REMARK    3  A    between atoms: C_11  and  C_12
REMARK    4  A    between atoms: C_13  and  C_15
REMARK    5  A    between atoms: C_15  and  C_16
REMARK    6  A    between atoms: C_16  and  C_17
REMARK                            x       y       z     vdW  Elec       q    Type
REMARK                         _______ _______ _______ _____ _____    ______ ____
ROOT
ATOM      1  C   UNL     1       2.218   5.001  -9.666  0.00  0.00    +0.134 A 
ATOM      2  C   UNL     1       3.556   4.836  -9.325  0.00  0.00    +0.055 A 
ATOM      3  C   UNL     1       3.863   5.030  -7.984  0.00  0.00    +0.201 A 
ATOM      4  O   UNL     1       5.203   4.897  -7.616  0.00  0.00    -0.287 OA
ATOM      5  C   UNL     1       2.950   5.585  -7.095  0.00  0.00    +0.114 A 
ATOM      6  C   UNL     1       3.076   6.261  -5.796  0.00  0.00    +0.344 C 
ATOM      7  O   UNL     1       2.091   7.251  -5.730  0.00  0.00    -0.440 OA
ATOM      8  C   UNL     1       1.000   6.725  -6.465  0.00  0.00    +0.235 C 
ATOM      9  O   UNL     1       4.170   6.393  -5.195  0.00  0.00    -0.245 OA
ATOM     10  C   UNL     1       1.670   5.902  -7.519  0.00  0.00    +0.030 A 
ATOM     11  C   UNL     1       1.258   5.372  -8.735  0.00  0.00    +0.012 A 
ATOM     12  C   UNL     1      -0.125   5.750  -9.165  0.00  0.00    +0.034 C 
ENDROOT
BRANCH   1  14
ATOM     13  C   UNL     1       1.611   6.326 -11.656  0.00  0.00    +0.252 C 
ATOM     14  O   UNL     1       1.837   5.098 -11.009  0.00  0.00    -0.472 OA
ENDBRANCH   1  14
BRANCH   2  15
ATOM     15  C   UNL     1       4.530   5.103 -10.403  0.00  0.00    +0.058 C 
BRANCH  15  16
ATOM     16  C   UNL     1       5.011   6.497 -10.456  0.00  0.00    -0.030 C 
ATOM     17  C   UNL     1       6.296   6.847 -10.497  0.00  0.00    -0.047 C 
ATOM     18  C   UNL     1       7.187   5.965  -9.675  0.00  0.00    +0.026 C 
BRANCH  17  19
ATOM     19  C   UNL     1       6.933   7.567 -11.624  0.00  0.00    +0.034 C 
BRANCH  19  20
ATOM     20  C   UNL     1       6.832   6.858 -12.936  0.00  0.00    +0.118 C 
BRANCH  20  21
ATOM     21  C   UNL     1       7.876   5.820 -13.132  0.00  0.00    +0.365 C 
ATOM     22  O   UNL     1       9.127   6.107 -12.574  0.00  0.00    -0.246 OA
ATOM     23  O   UNL     1       7.482   4.625 -12.965  0.00  0.00    -0.246 OA
ENDBRANCH  20  21
ENDBRANCH  19  20
ENDBRANCH  17  19
ENDBRANCH  15  16
ENDBRANCH   2  15
TORSDOF 6
ENDMDL
MODEL 8
REMARK VINA RESULT:      -7.0      2.683      8.599
REMARK  Name = 
REMARK  6 active torsions:
REMARK  status: ('A' for Active; 'I' for Inactive)
REMARK    1  A    between atoms: O_2  and  C_3
REMARK    2  A    between atoms: C_10  and  C_11
REMARK    3  A    between atoms: C_11  and  C_12
REMARK    4  A    between atoms: C_13  and  C_15
REMARK    5  A    between atoms: C_15  and  C_16
REMARK    6  A    between atoms: C_16  and  C_17
REMARK                            x       y       z     vdW  Elec       q    Type
REMARK                         _______ _______ _______ _____ _____    ______ ____
ROOT
ATOM      1  C   UNL     1       6.422   5.910 -11.300  0.00  0.00    +0.134 A 
ATOM      2  C   UNL     1       5.033   5.972 -11.249  0.00  0.00    +0.055 A 
ATOM      3  C   UNL     1       4.382   5.888 -12.474  0.00  0.00    +0.201 A 
ATOM      4  O   UNL     1       2.989   5.974 -12.456  0.00  0.00    -0.287 OA
ATOM      5  C   UNL     1       5.069   5.980 -13.678  0.00  0.00    +0.114 A 
ATOM      6  C   UNL     1       4.673   6.319 -15.052  0.00  0.00    +0.344 C 
ATOM      7  O   UNL     1       5.733   7.011 -15.646  0.00  0.00    -0.440 OA
ATOM      8  C   UNL     1       6.900   6.454 -15.066  0.00  0.00    +0.235 C 
ATOM      9  O   UNL     1       3.484   6.540 -15.388  0.00  0.00    -0.245 OA
ATOM     10  C   UNL     1       6.450   6.096 -13.685  0.00  0.00    +0.030 A 
ATOM     11  C   UNL     1       7.114   5.809 -12.499  0.00  0.00    +0.012 A 
ATOM     12  C   UNL     1       8.602   5.959 -12.543  0.00  0.00    +0.034 C 
ENDROOT
BRANCH   1  14
ATOM     13  C   UNL     1       7.580   5.318  -9.205  0.00  0.00    +0.252 C 
ATOM     14  O   UNL     1       7.187   6.252 -10.180  0.00  0.00    -0.472 OA
ENDBRANCH   1  14
BRANCH   2  15
ATOM     15  C   UNL     1       4.467   6.715 -10.104  0.00  0.00    +0.058 C 
BRANCH  15  16
ATOM     16  C   UNL     1       3.925   5.859  -9.032  0.00  0.00    -0.030 C 
ATOM     17  C   UNL     1       2.786   6.098  -8.383  0.00  0.00    -0.047 C 
ATOM     18  C   UNL     1       2.526   7.554  -8.139  0.00  0.00    +0.026 C 
BRANCH  17  19
ATOM     19  C   UNL     1       1.601   5.209  -8.414  0.00  0.00    +0.034 C 
BRANCH  19  20
ATOM     20  C   UNL     1       0.726   5.317  -7.206  0.00  0.00    +0.118 C 
BRANCH  20  21
ATOM     21  C   UNL     1       1.287   4.649  -6.004  0.00  0.00    +0.365 C 
ATOM     22  O   UNL     1       0.556   4.815  -4.823  0.00  0.00    -0.246 OA
ATOM     23  O   UNL     1       1.722   3.473  -6.198  0.00  0.00    -0.246 OA
ENDBRANCH  20  21
ENDBRANCH  19  20
ENDBRANCH  17  19
ENDBRANCH  15  16
ENDBRANCH   2  15
TORSDOF 6
ENDMDL
MODEL 9
REMARK VINA RESULT:      -7.0      3.376      8.418
REMARK  Name = 
REMARK  6 active torsions:
REMARK  status: ('A' for Active; 'I' for Inactive)
REMARK    1  A    between atoms: O_2  and  C_3
REMARK    2  A    between atoms: C_10  and  C_11
REMARK    3  A    between atoms: C_11  and  C_12
REMARK    4  A    between atoms: C_13  and  C_15
REMARK    5  A    between atoms: C_15  and  C_16
REMARK    6  A    between atoms: C_16  and  C_17
REMARK                            x       y       z     vdW  Elec       q    Type
REMARK                         _______ _______ _______ _____ _____    ______ ____
ROOT
ATOM      1  C   UNL     1       6.454   5.950 -11.344  0.00  0.00    +0.134 A 
ATOM      2  C   UNL     1       5.065   6.020 -11.305  0.00  0.00    +0.055 A 
ATOM      3  C   UNL     1       4.424   5.937 -12.536  0.00  0.00    +0.201 A 
ATOM      4  O   UNL     1       3.031   6.031 -12.530  0.00  0.00    -0.287 OA
ATOM      5  C   UNL     1       5.123   6.022 -13.734  0.00  0.00    +0.114 A 
ATOM      6  C   UNL     1       4.741   6.359 -15.112  0.00  0.00    +0.344 C 
ATOM      7  O   UNL     1       5.810   7.043 -15.699  0.00  0.00    -0.440 OA
ATOM      8  C   UNL     1       6.968   6.481 -15.107  0.00  0.00    +0.235 C 
ATOM      9  O   UNL     1       3.556   6.585 -15.460  0.00  0.00    -0.245 OA
ATOM     10  C   UNL     1       6.504   6.129 -13.729  0.00  0.00    +0.030 A 
ATOM     11  C   UNL     1       7.155   5.842 -12.536  0.00  0.00    +0.012 A 
ATOM     12  C   UNL     1       8.644   5.984 -12.568  0.00  0.00    +0.034 C 
ENDROOT
BRANCH   1  14
ATOM     13  C   UNL     1       7.653   5.346  -9.276  0.00  0.00    +0.252 C 
ATOM     14  O   UNL     1       7.210   6.291 -10.218  0.00  0.00    -0.472 OA
ENDBRANCH   1  14
BRANCH   2  15
ATOM     15  C   UNL     1       4.493   6.769 -10.168  0.00  0.00    +0.058 C 
BRANCH  15  16
ATOM     16  C   UNL     1       4.009   5.921  -9.063  0.00  0.00    -0.030 C 
ATOM     17  C   UNL     1       2.880   6.137  -8.388  0.00  0.00    -0.047 C 
ATOM     18  C   UNL     1       2.579   7.589  -8.168  0.00  0.00    +0.026 C 
BRANCH  17  19
ATOM     19  C   UNL     1       1.725   5.209  -8.366  0.00  0.00    +0.034 C 
BRANCH  19  20
ATOM     20  C   UNL     1       1.432   4.570  -9.686  0.00  0.00    +0.118 C 
BRANCH  20  21
ATOM     21  C   UNL     1       0.462   5.333 -10.512  0.00  0.00    +0.365 C 
ATOM     22  O   UNL     1      -0.218   4.592 -11.486  0.00  0.00    -0.246 OA
ATOM     23  O   UNL     1      -0.262   6.154  -9.870  0.00  0.00    -0.246 OA
ENDBRANCH  20  21
ENDBRANCH  19  20
ENDBRANCH  17  19
ENDBRANCH  15  16
ENDBRANCH   2  15
TORSDOF 6
ENDMDL
