MODEL 1
REMARK VINA RESULT:      -8.9      0.000      0.000
REMARK  Name = 
REMARK  5 active torsions:
REMARK  status: ('A' for Active; 'I' for Inactive)
REMARK    1  A    between atoms: C_8  and  O_9
REMARK    2  A    between atoms: O_9  and  C_10
REMARK    3  A    between atoms: C_10  and  C_12
REMARK    4  A    between atoms: C_12  and  C_14
REMARK    5  A    between atoms: C_12  and  C_20
REMARK                            x       y       z     vdW  Elec       q    Type
REMARK                         _______ _______ _______ _____ _____    ______ ____
ROOT
ATOM      1  C   UNL     1       1.401   5.882  -6.715  0.00  0.00    +0.252 C 
ATOM      2  O   UNL     1       1.314   4.501  -6.963  0.00  0.00    -0.205 OA
ENDROOT
BRANCH   1   3
ATOM      3  C   UNL     1       0.092   6.307  -6.237  0.00  0.00    +0.019 A 
ATOM      4  C   UNL     1      -1.004   5.594  -6.716  0.00  0.00    -0.001 A 
ATOM      5  C   UNL     1      -2.232   5.628  -6.119  0.00  0.00    -0.000 A 
ATOM      6  C   UNL     1      -2.431   6.368  -4.976  0.00  0.00    -0.000 A 
ATOM      7  C   UNL     1      -1.368   7.143  -4.555  0.00  0.00    -0.000 A 
ATOM      8  C   UNL     1      -0.175   7.223  -5.263  0.00  0.00    -0.001 A 
ENDBRANCH   1   3
BRANCH   1   9
ATOM      9  C   UNL     1       2.402   6.110  -5.627  0.00  0.00    +0.019 A 
ATOM     10  C   UNL     1       3.496   6.948  -5.805  0.00  0.00    -0.001 A 
ATOM     11  C   UNL     1       4.289   7.316  -4.753  0.00  0.00    -0.000 A 
ATOM     12  C   UNL     1       4.053   6.759  -3.523  0.00  0.00    -0.000 A 
ATOM     13  C   UNL     1       3.081   5.796  -3.394  0.00  0.00    -0.000 A 
ATOM     14  C   UNL     1       2.483   5.280  -4.520  0.00  0.00    -0.001 A 
ENDBRANCH   1   9
BRANCH   1  15
ATOM     15  C   UNL     1       1.910   6.511  -7.920  0.00  0.00    +0.353 C 
ATOM     16  O   UNL     1       1.853   7.779  -7.941  0.00  0.00    -0.247 OA
BRANCH  15  17
ATOM     17  O   UNL     1       2.244   5.937  -9.128  0.00  0.00    -0.444 OA
BRANCH  17  21
ATOM     18  C   UNL     1       1.820   5.753 -13.695  0.00  0.00    +0.171 C 
ATOM     19  N   UNL     1       1.249   5.903 -12.483  0.00  0.00    +0.304 N 
ATOM     20  C   UNL     1       2.275   5.877 -11.440  0.00  0.00    +0.153 C 
ATOM     21  C   UNL     1       1.641   6.828 -10.244  0.00  0.00    +0.224 C 
ATOM     22  C   UNL     1       0.195   6.028 -10.203  0.00  0.00    +0.058 C 
ATOM     23  C   UNL     1       0.417   4.642 -10.680  0.00  0.00    +0.065 C 
ATOM     24  C   UNL     1      -0.557   6.856 -11.241  0.00  0.00    +0.065 C 
ATOM     25  C   UNL     1       0.429   4.722 -12.207  0.00  0.00    +0.109 C 
ATOM     26  C   UNL     1       0.439   7.113 -12.365  0.00  0.00    +0.109 C 
ENDBRANCH  17  21
ENDBRANCH  15  17
ENDBRANCH   1  15
TORSDOF 5
ENDMDL
MODEL 2
REMARK VINA RESULT:      -8.8      2.334      6.498
REMARK  Name = 
REMARK  5 active torsions:
REMARK  status: ('A' for Active; 'I' for Inactive)
REMARK    1  A    between atoms: C_8  and  O_9
REMARK    2  A    between atoms: O_9  and  C_10
REMARK    3  A    between atoms: C_10  and  C_12
REMARK    4  A    between atoms: C_12  and  C_14
REMARK    5  A    between atoms: C_12  and  C_20
REMARK                            x       y       z     vdW  Elec       q    Type
REMARK                         _______ _______ _______ _____ _____    ______ ____
ROOT
ATOM      1  C   UNL     1       1.256   5.631  -7.413  0.00  0.00    +0.252 C 
ATOM      2  O   UNL     1       1.605   4.291  -7.168  0.00  0.00    -0.205 OA
ENDROOT
BRANCH   1   3
ATOM      3  C   UNL     1       1.008   5.747  -8.844  0.00  0.00    +0.019 A 
ATOM      4  C   UNL     1       1.129   4.577  -9.589  0.00  0.00    -0.001 A 
ATOM      5  C   UNL     1       0.605   4.437 -10.843  0.00  0.00    -0.000 A 
ATOM      6  C   UNL     1      -0.103   5.466 -11.421  0.00  0.00    -0.000 A 
ATOM      7  C   UNL     1      -0.145   6.653 -10.716  0.00  0.00    -0.000 A 
ATOM      8  C   UNL     1       0.530   6.833  -9.515  0.00  0.00    -0.001 A 
ENDBRANCH   1   3
BRANCH   1   9
ATOM      9  C   UNL     1      -0.015   5.935  -6.684  0.00  0.00    +0.019 A 
ATOM     10  C   UNL     1      -0.045   6.797  -5.595  0.00  0.00    -0.001 A 
ATOM     11  C   UNL     1      -1.228   7.233  -5.064  0.00  0.00    -0.000 A 
ATOM     12  C   UNL     1      -2.400   6.721  -5.558  0.00  0.00    -0.000 A 
ATOM     13  C   UNL     1      -2.356   5.735  -6.514  0.00  0.00    -0.000 A 
ATOM     14  C   UNL     1      -1.151   5.155  -6.836  0.00  0.00    -0.001 A 
ENDBRANCH   1   9
BRANCH   1  15
ATOM     15  C   UNL     1       2.299   6.465  -6.844  0.00  0.00    +0.353 C 
ATOM     16  O   UNL     1       2.314   7.670  -7.244  0.00  0.00    -0.247 OA
BRANCH  15  17
ATOM     17  O   UNL     1       3.403   6.097  -6.105  0.00  0.00    -0.444 OA
BRANCH  17  21
ATOM     18  C   UNL     1       2.408   6.489  -1.641  0.00  0.00    +0.171 C 
ATOM     19  N   UNL     1       3.316   6.545  -2.635  0.00  0.00    +0.304 N 
ATOM     20  C   UNL     1       2.664   6.307  -3.923  0.00  0.00    +0.153 C 
ATOM     21  C   UNL     1       3.590   7.163  -4.995  0.00  0.00    +0.224 C 
ATOM     22  C   UNL     1       5.014   6.494  -4.490  0.00  0.00    +0.058 C 
ATOM     23  C   UNL     1       4.722   5.159  -3.914  0.00  0.00    +0.065 C 
ATOM     24  C   UNL     1       5.370   7.500  -3.400  0.00  0.00    +0.065 C 
ATOM     25  C   UNL     1       4.237   5.417  -2.487  0.00  0.00    +0.109 C 
ATOM     26  C   UNL     1       4.064   7.799  -2.673  0.00  0.00    +0.109 C 
ENDBRANCH  17  21
ENDBRANCH  15  17
ENDBRANCH   1  15
TORSDOF 5
ENDMDL
MODEL 3
REMARK VINA RESULT:      -8.8      2.838      7.439
REMARK  Name = 
REMARK  5 active torsions:
REMARK  status: ('A' for Active; 'I' for Inactive)
REMARK    1  A    between atoms: C_8  and  O_9
REMARK    2  A    between atoms: O_9  and  C_10
REMARK    3  A    between atoms: C_10  and  C_12
REMARK    4  A    between atoms: C_12  and  C_14
REMARK    5  A    between atoms: C_12  and  C_20
REMARK                            x       y       z     vdW  Elec       q    Type
REMARK                         _______ _______ _______ _____ _____    ______ ____
ROOT
ATOM      1  C   UNL     1       3.155   6.043  -9.126  0.00  0.00    +0.252 C 
ATOM      2  O   UNL     1       3.233   4.669  -8.839  0.00  0.00    -0.205 OA
ENDROOT
BRANCH   1   3
ATOM      3  C   UNL     1       4.481   6.458  -9.566  0.00  0.00    +0.019 A 
ATOM      4  C   UNL     1       5.555   5.720  -9.074  0.00  0.00    -0.001 A 
ATOM      5  C   UNL     1       6.797   5.747  -9.641  0.00  0.00    -0.000 A 
ATOM      6  C   UNL     1       7.034   6.504 -10.766  0.00  0.00    -0.000 A 
ATOM      7  C   UNL     1       5.992   7.302 -11.197  0.00  0.00    -0.000 A 
ATOM      8  C   UNL     1       4.784   7.387 -10.516  0.00  0.00    -0.001 A 
ENDBRANCH   1   3
BRANCH   1   9
ATOM      9  C   UNL     1       2.195   6.242 -10.256  0.00  0.00    +0.019 A 
ATOM     10  C   UNL     1       0.876   6.618 -10.036  0.00  0.00    -0.001 A 
ATOM     11  C   UNL     1       0.064   6.999 -11.069  0.00  0.00    -0.000 A 
ATOM     12  C   UNL     1       0.539   6.904 -12.352  0.00  0.00    -0.000 A 
ATOM     13  C   UNL     1       1.782   6.362 -12.572  0.00  0.00    -0.000 A 
ATOM     14  C   UNL     1       2.457   5.767 -11.531  0.00  0.00    -0.001 A 
ENDBRANCH   1   9
BRANCH   1  15
ATOM     15  C   UNL     1       2.601   6.702  -7.957  0.00  0.00    +0.353 C 
ATOM     16  O   UNL     1       2.523   7.968  -8.029  0.00  0.00    -0.247 OA
BRANCH  15  17
ATOM     17  O   UNL     1       2.349   6.187  -6.703  0.00  0.00    -0.444 OA
BRANCH  17  21
ATOM     18  C   UNL     1       2.563   6.535  -2.132  0.00  0.00    +0.171 C 
ATOM     19  N   UNL     1       3.196   6.479  -3.321  0.00  0.00    +0.304 N 
ATOM     20  C   UNL     1       2.216   6.419  -4.406  0.00  0.00    +0.153 C 
ATOM     21  C   UNL     1       2.991   7.151  -5.673  0.00  0.00    +0.224 C 
ATOM     22  C   UNL     1       4.350   6.221  -5.540  0.00  0.00    +0.058 C 
ATOM     23  C   UNL     1       3.973   4.932  -4.913  0.00  0.00    +0.065 C 
ATOM     24  C   UNL     1       5.137   7.097  -4.570  0.00  0.00    +0.065 C 
ATOM     25  C   UNL     1       3.906   5.202  -3.409  0.00  0.00    +0.109 C 
ATOM     26  C   UNL     1       4.125   7.584  -3.540  0.00  0.00    +0.109 C 
ENDBRANCH  17  21
ENDBRANCH  15  17
ENDBRANCH   1  15
TORSDOF 5
ENDMDL
MODEL 4
REMARK VINA RESULT:      -8.8      2.942      6.214
REMARK  Name = 
REMARK  5 active torsions:
REMARK  status: ('A' for Active; 'I' for Inactive)
REMARK    1  A    between atoms: C_8  and  O_9
REMARK    2  A    between atoms: O_9  and  C_10
REMARK    3  A    between atoms: C_10  and  C_12
REMARK    4  A    between atoms: C_12  and  C_14
REMARK    5  A    between atoms: C_12  and  C_20
REMARK                            x       y       z     vdW  Elec       q    Type
REMARK                         _______ _______ _______ _____ _____    ______ ____
ROOT
ATOM      1  C   UNL     1       2.688   6.595  -6.896  0.00  0.00    +0.252 C 
ATOM      2  O   UNL     1       2.575   7.987  -7.061  0.00  0.00    -0.205 OA
ENDROOT
BRANCH   1   3
ATOM      3  C   UNL     1       3.481   6.101  -8.014  0.00  0.00    +0.019 A 
ATOM      4  C   UNL     1       3.223   6.675  -9.256  0.00  0.00    -0.001 A 
ATOM      5  C   UNL     1       4.088   6.585 -10.310  0.00  0.00    -0.000 A 
ATOM      6  C   UNL     1       5.290   5.931 -10.172  0.00  0.00    -0.000 A 
ATOM      7  C   UNL     1       5.503   5.289  -8.967  0.00  0.00    -0.000 A 
ATOM      8  C   UNL     1       4.545   5.251  -7.961  0.00  0.00    -0.001 A 
ENDBRANCH   1   3
BRANCH   1   9
ATOM      9  C   UNL     1       3.434   6.324  -5.627  0.00  0.00    +0.019 A 
ATOM     10  C   UNL     1       3.233   5.159  -4.897  0.00  0.00    -0.001 A 
ATOM     11  C   UNL     1       4.058   4.819  -3.860  0.00  0.00    -0.000 A 
ATOM     12  C   UNL     1       5.033   5.703  -3.476  0.00  0.00    -0.000 A 
ATOM     13  C   UNL     1       5.111   6.930  -4.088  0.00  0.00    -0.000 A 
ATOM     14  C   UNL     1       4.111   7.324  -4.947  0.00  0.00    -0.001 A 
ENDBRANCH   1   9
BRANCH   1  15
ATOM     15  C   UNL     1       1.347   6.064  -6.739  0.00  0.00    +0.353 C 
ATOM     16  O   UNL     1       1.132   4.946  -7.302  0.00  0.00    -0.247 OA
BRANCH  15  17
ATOM     17  O   UNL     1       0.213   6.685  -6.260  0.00  0.00    -0.444 OA
BRANCH  17  21
ATOM     18  C   UNL     1      -0.722   6.532  -1.769  0.00  0.00    +0.171 C 
ATOM     19  N   UNL     1      -1.149   6.450  -3.045  0.00  0.00    +0.304 N 
ATOM     20  C   UNL     1      -0.015   6.583  -3.960  0.00  0.00    +0.153 C 
ATOM     21  C   UNL     1      -0.474   5.698  -5.282  0.00  0.00    +0.224 C 
ATOM     22  C   UNL     1      -1.937   6.452  -5.433  0.00  0.00    +0.058 C 
ATOM     23  C   UNL     1      -1.825   7.807  -4.843  0.00  0.00    +0.065 C 
ATOM     24  C   UNL     1      -2.766   5.529  -4.544  0.00  0.00    +0.065 C 
ATOM     25  C   UNL     1      -1.980   7.620  -3.333  0.00  0.00    +0.109 C 
ATOM     26  C   UNL     1      -1.891   5.226  -3.335  0.00  0.00    +0.109 C 
ENDBRANCH  17  21
ENDBRANCH  15  17
ENDBRANCH   1  15
TORSDOF 5
ENDMDL
MODEL 5
REMARK VINA RESULT:      -8.7      0.865      3.627
REMARK  Name = 
REMARK  5 active torsions:
REMARK  status: ('A' for Active; 'I' for Inactive)
REMARK    1  A    between atoms: C_8  and  O_9
REMARK    2  A    between atoms: O_9  and  C_10
REMARK    3  A    between atoms: C_10  and  C_12
REMARK    4  A    between atoms: C_12  and  C_14
REMARK    5  A    between atoms: C_12  and  C_20
REMARK                            x       y       z     vdW  Elec       q    Type
REMARK                         _______ _______ _______ _____ _____    ______ ____
ROOT
ATOM      1  C   UNL     1       2.178   6.595  -6.824  0.00  0.00    +0.252 C 
ATOM      2  O   UNL     1       2.291   7.959  -7.145  0.00  0.00    -0.205 OA
ENDROOT
BRANCH   1   3
ATOM      3  C   UNL     1       3.013   6.369  -5.651  0.00  0.00    +0.019 A 
ATOM      4  C   UNL     1       3.063   5.063  -5.170  0.00  0.00    -0.001 A 
ATOM      5  C   UNL     1       4.040   4.620  -4.323  0.00  0.00    -0.000 A 
ATOM      6  C   UNL     1       5.051   5.463  -3.923  0.00  0.00    -0.000 A 
ATOM      7  C   UNL     1       4.949   6.779  -4.331  0.00  0.00    -0.000 A 
ATOM      8  C   UNL     1       3.864   7.254  -5.059  0.00  0.00    -0.001 A 
ENDBRANCH   1   3
BRANCH   1   9
ATOM      9  C   UNL     1       0.757   6.306  -6.459  0.00  0.00    +0.019 A 
ATOM     10  C   UNL     1       0.098   7.019  -5.465  0.00  0.00    -0.001 A 
ATOM     11  C   UNL     1      -1.252   6.897  -5.278  0.00  0.00    -0.000 A 
ATOM     12  C   UNL     1      -1.940   5.972  -6.020  0.00  0.00    -0.000 A 
ATOM     13  C   UNL     1      -1.251   5.145  -6.875  0.00  0.00    -0.000 A 
ATOM     14  C   UNL     1       0.125   5.135  -6.846  0.00  0.00    -0.001 A 
ENDBRANCH   1   9
BRANCH   1  15
ATOM     15  C   UNL     1       2.488   5.836  -8.022  0.00  0.00    +0.353 C 
ATOM     16  O   UNL     1       3.717   5.786  -8.335  0.00  0.00    -0.247 OA
BRANCH  15  17
ATOM     17  O   UNL     1       1.635   5.347  -8.988  0.00  0.00    -0.444 OA
BRANCH  17  21
ATOM     18  C   UNL     1       2.240   5.684 -13.525  0.00  0.00    +0.171 C 
ATOM     19  N   UNL     1       1.446   5.840 -12.447  0.00  0.00    +0.304 N 
ATOM     20  C   UNL     1       2.182   5.497 -11.230  0.00  0.00    +0.153 C 
ATOM     21  C   UNL     1       1.484   6.447 -10.069  0.00  0.00    +0.224 C 
ATOM     22  C   UNL     1      -0.057   5.978 -10.436  0.00  0.00    +0.058 C 
ATOM     23  C   UNL     1       0.000   4.627 -11.044  0.00  0.00    +0.065 C 
ATOM     24  C   UNL     1      -0.381   7.041 -11.482  0.00  0.00    +0.065 C 
ATOM     25  C   UNL     1       0.375   4.844 -12.510  0.00  0.00    +0.109 C 
ATOM     26  C   UNL     1       0.876   7.180 -12.331  0.00  0.00    +0.109 C 
ENDBRANCH  17  21
ENDBRANCH  15  17
ENDBRANCH   1  15
TORSDOF 5
ENDMDL
MODEL 6
REMARK VINA RESULT:      -8.6      3.093      6.420
REMARK  Name = 
REMARK  5 active torsions:
REMARK  status: ('A' for Active; 'I' for Inactive)
REMARK    1  A    between atoms: C_8  and  O_9
REMARK    2  A    between atoms: O_9  and  C_10
REMARK    3  A    between atoms: C_10  and  C_12
REMARK    4  A    between atoms: C_12  and  C_14
REMARK    5  A    between atoms: C_12  and  C_20
REMARK                            x       y       z     vdW  Elec       q    Type
REMARK                         _______ _______ _______ _____ _____    ______ ____
ROOT
ATOM      1  C   UNL     1       2.227   5.122  -6.585  0.00  0.00    +0.252 C 
ATOM      2  O   UNL     1       2.224   3.729  -6.393  0.00  0.00    -0.205 OA
ENDROOT
BRANCH   1   3
ATOM      3  C   UNL     1       3.026   5.693  -5.509  0.00  0.00    +0.019 A 
ATOM      4  C   UNL     1       3.729   4.792  -4.714  0.00  0.00    -0.001 A 
ATOM      5  C   UNL     1       4.771   5.163  -3.912  0.00  0.00    -0.000 A 
ATOM      6  C   UNL     1       5.192   6.472  -3.878  0.00  0.00    -0.000 A 
ATOM      7  C   UNL     1       4.438   7.378  -4.599  0.00  0.00    -0.000 A 
ATOM      8  C   UNL     1       3.284   7.013  -5.282  0.00  0.00    -0.001 A 
ENDBRANCH   1   3
BRANCH   1   9
ATOM      9  C   UNL     1       2.897   5.424  -7.888  0.00  0.00    +0.019 A 
ATOM     10  C   UNL     1       2.803   6.674  -8.486  0.00  0.00    -0.001 A 
ATOM     11  C   UNL     1       3.580   7.010  -9.561  0.00  0.00    -0.000 A 
ATOM     12  C   UNL     1       4.387   6.051 -10.115  0.00  0.00    -0.000 A 
ATOM     13  C   UNL     1       4.342   4.766  -9.629  0.00  0.00    -0.000 A 
ATOM     14  C   UNL     1       3.370   4.420  -8.718  0.00  0.00    -0.001 A 
ENDBRANCH   1   9
BRANCH   1  15
ATOM     15  C   UNL     1       0.844   5.551  -6.692  0.00  0.00    +0.353 C 
ATOM     16  O   UNL     1       0.268   5.269  -7.788  0.00  0.00    -0.247 OA
BRANCH  15  17
ATOM     17  O   UNL     1       0.130   6.403  -5.877  0.00  0.00    -0.444 OA
BRANCH  17  21
ATOM     18  C   UNL     1      -0.937   6.607  -1.418  0.00  0.00    +0.171 C 
ATOM     19  N   UNL     1      -1.332   6.465  -2.699  0.00  0.00    +0.304 N 
ATOM     20  C   UNL     1      -0.168   6.469  -3.585  0.00  0.00    +0.153 C 
ATOM     21  C   UNL     1      -0.644   5.527  -4.860  0.00  0.00    +0.224 C 
ATOM     22  C   UNL     1      -2.052   6.355  -5.106  0.00  0.00    +0.058 C 
ATOM     23  C   UNL     1      -1.873   7.738  -4.602  0.00  0.00    +0.065 C 
ATOM     24  C   UNL     1      -2.961   5.546  -4.186  0.00  0.00    +0.065 C 
ATOM     25  C   UNL     1      -2.081   7.662  -3.089  0.00  0.00    +0.109 C 
ATOM     26  C   UNL     1      -2.141   5.271  -2.932  0.00  0.00    +0.109 C 
ENDBRANCH  17  21
ENDBRANCH  15  17
ENDBRANCH   1  15
TORSDOF 5
ENDMDL
MODEL 7
REMARK VINA RESULT:      -8.5      2.660      6.768
REMARK  Name = 
REMARK  5 active torsions:
REMARK  status: ('A' for Active; 'I' for Inactive)
REMARK    1  A    between atoms: C_8  and  O_9
REMARK    2  A    between atoms: O_9  and  C_10
REMARK    3  A    between atoms: C_10  and  C_12
REMARK    4  A    between atoms: C_12  and  C_14
REMARK    5  A    between atoms: C_12  and  C_20
REMARK                            x       y       z     vdW  Elec       q    Type
REMARK                         _______ _______ _______ _____ _____    ______ ____
ROOT
ATOM      1  C   UNL     1       2.675   5.921  -8.184  0.00  0.00    +0.252 C 
ATOM      2  O   UNL     1       2.839   4.694  -7.516  0.00  0.00    -0.205 OA
ENDROOT
BRANCH   1   3
ATOM      3  C   UNL     1       3.946   6.221  -8.831  0.00  0.00    +0.019 A 
ATOM      4  C   UNL     1       5.053   5.504  -8.383  0.00  0.00    -0.001 A 
ATOM      5  C   UNL     1       6.214   5.408  -9.096  0.00  0.00    -0.000 A 
ATOM      6  C   UNL     1       6.327   6.009 -10.328  0.00  0.00    -0.000 A 
ATOM      7  C   UNL     1       5.261   6.791 -10.729  0.00  0.00    -0.000 A 
ATOM      8  C   UNL     1       4.151   7.012  -9.922  0.00  0.00    -0.001 A 
ENDBRANCH   1   3
BRANCH   1   9
ATOM      9  C   UNL     1       1.630   5.754  -9.241  0.00  0.00    +0.019 A 
ATOM     10  C   UNL     1       0.946   6.841  -9.770  0.00  0.00    -0.001 A 
ATOM     11  C   UNL     1       0.148   6.711 -10.874  0.00  0.00    -0.000 A 
ATOM     12  C   UNL     1      -0.056   5.460 -11.397  0.00  0.00    -0.000 A 
ATOM     13  C   UNL     1       0.483   4.367 -10.761  0.00  0.00    -0.000 A 
ATOM     14  C   UNL     1       1.064   4.521  -9.524  0.00  0.00    -0.001 A 
ENDBRANCH   1   9
BRANCH   1  15
ATOM     15  C   UNL     1       2.173   6.880  -7.217  0.00  0.00    +0.353 C 
ATOM     16  O   UNL     1       3.058   7.485  -6.536  0.00  0.00    -0.247 OA
BRANCH  15  17
ATOM     17  O   UNL     1       0.882   7.078  -6.775  0.00  0.00    -0.444 OA
BRANCH  17  21
ATOM     18  C   UNL     1      -2.104   7.585  -3.327  0.00  0.00    +0.171 C 
ATOM     19  N   UNL     1      -1.233   6.808  -4.000  0.00  0.00    +0.304 N 
ATOM     20  C   UNL     1      -0.603   7.577  -5.074  0.00  0.00    +0.153 C 
ATOM     21  C   UNL     1       0.886   6.874  -5.239  0.00  0.00    +0.224 C 
ATOM     22  C   UNL     1       0.284   5.340  -5.368  0.00  0.00    +0.058 C 
ATOM     23  C   UNL     1      -1.098   5.426  -5.899  0.00  0.00    +0.065 C 
ATOM     24  C   UNL     1       0.285   4.965  -3.889  0.00  0.00    +0.065 C 
ATOM     25  C   UNL     1      -1.985   5.766  -4.701  0.00  0.00    +0.109 C 
ATOM     26  C   UNL     1      -0.212   6.201  -3.149  0.00  0.00    +0.109 C 
ENDBRANCH  17  21
ENDBRANCH  15  17
ENDBRANCH   1  15
TORSDOF 5
ENDMDL
MODEL 8
REMARK VINA RESULT:      -8.5      3.020      6.743
REMARK  Name = 
REMARK  5 active torsions:
REMARK  status: ('A' for Active; 'I' for Inactive)
REMARK    1  A    between atoms: C_8  and  O_9
REMARK    2  A    between atoms: O_9  and  C_10
REMARK    3  A    between atoms: C_10  and  C_12
REMARK    4  A    between atoms: C_12  and  C_14
REMARK    5  A    between atoms: C_12  and  C_20
REMARK                            x       y       z     vdW  Elec       q    Type
REMARK                         _______ _______ _______ _____ _____    ______ ____
ROOT
ATOM      1  C   UNL     1       3.440   6.327  -9.024  0.00  0.00    +0.252 C 
ATOM      2  O   UNL     1       3.073   7.539  -8.414  0.00  0.00    -0.205 OA
ENDROOT
BRANCH   1   3
ATOM      3  C   UNL     1       2.436   6.046 -10.042  0.00  0.00    +0.019 A 
ATOM      4  C   UNL     1       1.161   6.557  -9.810  0.00  0.00    -0.001 A 
ATOM      5  C   UNL     1       0.222   6.686 -10.794  0.00  0.00    -0.000 A 
ATOM      6  C   UNL     1       0.517   6.332 -12.091  0.00  0.00    -0.000 A 
ATOM      7  C   UNL     1       1.750   5.744 -12.299  0.00  0.00    -0.000 A 
ATOM      8  C   UNL     1       2.633   5.471 -11.261  0.00  0.00    -0.001 A 
ENDBRANCH   1   3
BRANCH   1   9
ATOM      9  C   UNL     1       4.762   6.513  -9.699  0.00  0.00    +0.019 A 
ATOM     10  C   UNL     1       4.941   7.450 -10.710  0.00  0.00    -0.001 A 
ATOM     11  C   UNL     1       6.188   7.762 -11.178  0.00  0.00    -0.000 A 
ATOM     12  C   UNL     1       7.265   7.056 -10.708  0.00  0.00    -0.000 A 
ATOM     13  C   UNL     1       7.059   6.011  -9.840  0.00  0.00    -0.000 A 
ATOM     14  C   UNL     1       5.778   5.576  -9.593  0.00  0.00    -0.001 A 
ENDBRANCH   1   9
BRANCH   1  15
ATOM     15  C   UNL     1       3.619   5.344  -7.971  0.00  0.00    +0.353 C 
ATOM     16  O   UNL     1       2.955   4.271  -8.106  0.00  0.00    -0.247 OA
BRANCH  15  17
ATOM     17  O   UNL     1       4.228   5.485  -6.742  0.00  0.00    -0.444 OA
BRANCH  17  21
ATOM     18  C   UNL     1       4.109   4.871  -2.195  0.00  0.00    +0.171 C 
ATOM     19  N   UNL     1       3.688   5.543  -3.285  0.00  0.00    +0.304 N 
ATOM     20  C   UNL     1       4.272   4.955  -4.491  0.00  0.00    +0.153 C 
ATOM     21  C   UNL     1       3.141   5.258  -5.661  0.00  0.00    +0.224 C 
ATOM     22  C   UNL     1       3.040   6.872  -5.319  0.00  0.00    +0.058 C 
ATOM     23  C   UNL     1       4.323   7.300  -4.714  0.00  0.00    +0.065 C 
ATOM     24  C   UNL     1       1.927   6.820  -4.277  0.00  0.00    +0.065 C 
ATOM     25  C   UNL     1       4.246   6.896  -3.241  0.00  0.00    +0.109 C 
ATOM     26  C   UNL     1       2.234   5.606  -3.407  0.00  0.00    +0.109 C 
ENDBRANCH  17  21
ENDBRANCH  15  17
ENDBRANCH   1  15
TORSDOF 5
ENDMDL
MODEL 9
REMARK VINA RESULT:      -8.5      2.902      6.006
REMARK  Name = 
REMARK  5 active torsions:
REMARK  status: ('A' for Active; 'I' for Inactive)
REMARK    1  A    between atoms: C_8  and  O_9
REMARK    2  A    between atoms: O_9  and  C_10
REMARK    3  A    between atoms: C_10  and  C_12
REMARK    4  A    between atoms: C_12  and  C_14
REMARK    5  A    between atoms: C_12  and  C_20
REMARK                            x       y       z     vdW  Elec       q    Type
REMARK                         _______ _______ _______ _____ _____    ______ ____
ROOT
ATOM      1  C   UNL     1       2.839   6.424  -7.235  0.00  0.00    +0.252 C 
ATOM      2  O   UNL     1       2.489   7.777  -7.387  0.00  0.00    -0.205 OA
ENDROOT
BRANCH   1   3
ATOM      3  C   UNL     1       3.783   6.111  -8.300  0.00  0.00    +0.019 A 
ATOM      4  C   UNL     1       3.657   6.849  -9.475  0.00  0.00    -0.001 A 
ATOM      5  C   UNL     1       4.648   6.929 -10.412  0.00  0.00    -0.000 A 
ATOM      6  C   UNL     1       5.849   6.289 -10.213  0.00  0.00    -0.000 A 
ATOM      7  C   UNL     1       5.938   5.488  -9.091  0.00  0.00    -0.000 A 
ATOM      8  C   UNL     1       4.866   5.286  -8.230  0.00  0.00    -0.001 A 
ENDBRANCH   1   3
BRANCH   1   9
ATOM      9  C   UNL     1       3.532   6.254  -5.920  0.00  0.00    +0.019 A 
ATOM     10  C   UNL     1       3.625   5.015  -5.298  0.00  0.00    -0.001 A 
ATOM     11  C   UNL     1       4.432   4.824  -4.210  0.00  0.00    -0.000 A 
ATOM     12  C   UNL     1       5.074   5.907  -3.667  0.00  0.00    -0.000 A 
ATOM     13  C   UNL     1       4.837   7.159  -4.181  0.00  0.00    -0.000 A 
ATOM     14  C   UNL     1       3.834   7.334  -5.106  0.00  0.00    -0.001 A 
ENDBRANCH   1   9
BRANCH   1  15
ATOM     15  C   UNL     1       1.608   5.657  -7.185  0.00  0.00    +0.353 C 
ATOM     16  O   UNL     1       1.025   5.485  -8.300  0.00  0.00    -0.247 OA
BRANCH  15  17
ATOM     17  O   UNL     1       0.863   5.273  -6.090  0.00  0.00    -0.444 OA
BRANCH  17  21
ATOM     18  C   UNL     1      -3.135   5.277  -3.836  0.00  0.00    +0.171 C 
ATOM     19  N   UNL     1      -2.034   5.939  -4.244  0.00  0.00    +0.304 N 
ATOM     20  C   UNL     1      -1.204   5.066  -5.074  0.00  0.00    +0.153 C 
ATOM     21  C   UNL     1      -0.439   6.113  -6.102  0.00  0.00    +0.224 C 
ATOM     22  C   UNL     1       0.100   7.102  -4.892  0.00  0.00    +0.058 C 
ATOM     23  C   UNL     1       0.214   6.299  -3.652  0.00  0.00    +0.065 C 
ATOM     24  C   UNL     1      -1.089   8.056  -4.826  0.00  0.00    +0.065 C 
ATOM     25  C   UNL     1      -1.200   6.219  -3.074  0.00  0.00    +0.109 C 
ATOM     26  C   UNL     1      -2.329   7.180  -4.956  0.00  0.00    +0.109 C 
ENDBRANCH  17  21
ENDBRANCH  15  17
ENDBRANCH   1  15
TORSDOF 5
ENDMDL
