MODEL 1
REMARK VINA RESULT:      -6.2      0.000      0.000
REMARK  Name = 
REMARK  1 active torsions:
REMARK  status: ('A' for Active; 'I' for Inactive)
REMARK    1  A    between atoms: C_3  and  C_4
REMARK                            x       y       z     vdW  Elec       q    Type
REMARK                         _______ _______ _______ _____ _____    ______ ____
ROOT
ATOM      1  C   UNL     1       2.725   7.528  -9.059  0.00  0.00    +0.020 C 
ATOM      2  C   UNL     1       2.380   5.949  -8.794  0.00  0.00    +0.089 C 
ATOM      3  N   UNL     1       3.395   5.824  -7.599  0.00  0.00    -0.268 NA
ATOM      4  C   UNL     1       2.924   6.779  -6.642  0.00  0.00    +0.090 C 
ATOM      5  C   UNL     1       2.924   4.513  -7.128  0.00  0.00    +0.105 C 
ATOM      6  C   UNL     1       2.799   3.736  -8.444  0.00  0.00    +0.160 C 
ATOM      7  O   UNL     1       3.883   4.122  -9.173  0.00  0.00    -0.349 OA
ATOM      8  C   UNL     1       3.473   5.332 -10.009  0.00  0.00    +0.152 C 
ENDROOT
BRANCH   8   9
ATOM      9  C   UNL     1       4.744   6.241  -9.551  0.00  0.00    +0.006 A 
ATOM     10  C   UNL     1       5.066   6.999 -10.683  0.00  0.00    -0.002 A 
ATOM     11  C   UNL     1       6.315   7.516 -10.897  0.00  0.00    -0.000 A 
ATOM     12  C   UNL     1       7.364   6.781 -10.421  0.00  0.00    -0.000 A 
ATOM     13  C   UNL     1       7.121   5.657  -9.642  0.00  0.00    -0.000 A 
ATOM     14  C   UNL     1       5.856   5.541  -9.117  0.00  0.00    -0.002 A 
ENDBRANCH   8   9
TORSDOF 1
ENDMDL
MODEL 2
REMARK VINA RESULT:      -6.2      3.287      6.190
REMARK  Name = 
REMARK  1 active torsions:
REMARK  status: ('A' for Active; 'I' for Inactive)
REMARK    1  A    between atoms: C_3  and  C_4
REMARK                            x       y       z     vdW  Elec       q    Type
REMARK                         _______ _______ _______ _____ _____    ______ ____
ROOT
ATOM      1  C   UNL     1       2.293   7.330  -6.376  0.00  0.00    +0.020 C 
ATOM      2  C   UNL     1       2.617   5.726  -6.405  0.00  0.00    +0.089 C 
ATOM      3  N   UNL     1       1.730   5.466  -7.678  0.00  0.00    -0.268 NA
ATOM      4  C   UNL     1       2.327   6.286  -8.689  0.00  0.00    +0.090 C 
ATOM      5  C   UNL     1       2.210   4.099  -7.929  0.00  0.00    +0.105 C 
ATOM      6  C   UNL     1       2.173   3.493  -6.522  0.00  0.00    +0.160 C 
ATOM      7  O   UNL     1       1.030   3.985  -5.967  0.00  0.00    -0.349 OA
ATOM      8  C   UNL     1       1.386   5.284  -5.248  0.00  0.00    +0.152 C 
ENDROOT
BRANCH   8   9
ATOM      9  C   UNL     1       0.196   6.148  -5.950  0.00  0.00    +0.006 A 
ATOM     10  C   UNL     1      -0.234   7.034  -4.955  0.00  0.00    -0.002 A 
ATOM     11  C   UNL     1      -1.486   7.586  -4.947  0.00  0.00    -0.000 A 
ATOM     12  C   UNL     1      -2.492   6.812  -5.454  0.00  0.00    -0.000 A 
ATOM     13  C   UNL     1      -2.189   5.604  -6.068  0.00  0.00    -0.000 A 
ATOM     14  C   UNL     1      -0.875   5.415  -6.427  0.00  0.00    -0.002 A 
ENDBRANCH   8   9
TORSDOF 1
ENDMDL
MODEL 3
REMARK VINA RESULT:      -6.1      3.584      6.420
REMARK  Name = 
REMARK  1 active torsions:
REMARK  status: ('A' for Active; 'I' for Inactive)
REMARK    1  A    between atoms: C_3  and  C_4
REMARK                            x       y       z     vdW  Elec       q    Type
REMARK                         _______ _______ _______ _____ _____    ______ ____
ROOT
ATOM      1  C   UNL     1       1.387   3.963  -6.196  0.00  0.00    +0.020 C 
ATOM      2  C   UNL     1       2.247   5.201  -6.834  0.00  0.00    +0.089 C 
ATOM      3  N   UNL     1       2.377   5.954  -5.460  0.00  0.00    -0.268 NA
ATOM      4  C   UNL     1       3.068   5.024  -4.619  0.00  0.00    +0.090 C 
ATOM      5  C   UNL     1       3.386   6.925  -5.906  0.00  0.00    +0.105 C 
ATOM      6  C   UNL     1       2.817   7.366  -7.259  0.00  0.00    +0.160 C 
ATOM      7  O   UNL     1       1.474   7.458  -7.052  0.00  0.00    -0.349 OA
ATOM      8  C   UNL     1       0.859   6.102  -7.392  0.00  0.00    +0.152 C 
ENDROOT
BRANCH   8   9
ATOM      9  C   UNL     1       0.028   5.985  -5.995  0.00  0.00    +0.006 A 
ATOM     10  C   UNL     1      -1.220   5.469  -6.366  0.00  0.00    -0.002 A 
ATOM     11  C   UNL     1      -2.351   5.659  -5.619  0.00  0.00    -0.000 A 
ATOM     12  C   UNL     1      -2.434   6.841  -4.937  0.00  0.00    -0.000 A 
ATOM     13  C   UNL     1      -1.344   7.701  -4.914  0.00  0.00    -0.000 A 
ATOM     14  C   UNL     1      -0.136   7.167  -5.295  0.00  0.00    -0.002 A 
ENDBRANCH   8   9
TORSDOF 1
ENDMDL
MODEL 4
REMARK VINA RESULT:      -5.8      3.646      5.147
REMARK  Name = 
REMARK  1 active torsions:
REMARK  status: ('A' for Active; 'I' for Inactive)
REMARK    1  A    between atoms: C_3  and  C_4
REMARK                            x       y       z     vdW  Elec       q    Type
REMARK                         _______ _______ _______ _____ _____    ______ ____
ROOT
ATOM      1  C   UNL     1      -1.869   5.741  -6.288  0.00  0.00    +0.020 C 
ATOM      2  C   UNL     1      -0.746   5.399  -5.148  0.00  0.00    +0.089 C 
ATOM      3  N   UNL     1      -0.169   6.862  -5.131  0.00  0.00    -0.268 NA
ATOM      4  C   UNL     1      -1.287   7.670  -4.747  0.00  0.00    +0.090 C 
ATOM      5  C   UNL     1       0.648   6.697  -3.920  0.00  0.00    +0.105 C 
ATOM      6  C   UNL     1       1.316   5.342  -4.178  0.00  0.00    +0.160 C 
ATOM      7  O   UNL     1       1.623   5.359  -5.505  0.00  0.00    -0.349 OA
ATOM      8  C   UNL     1       0.439   4.762  -6.262  0.00  0.00    +0.152 C 
ENDROOT
BRANCH   8   9
ATOM      9  C   UNL     1       0.331   5.995  -7.323  0.00  0.00    +0.006 A 
ATOM     10  C   UNL     1      -0.068   5.396  -8.524  0.00  0.00    -0.002 A 
ATOM     11  C   UNL     1       0.181   5.956  -9.748  0.00  0.00    -0.000 A 
ATOM     12  C   UNL     1       1.336   6.678  -9.860  0.00  0.00    -0.000 A 
ATOM     13  C   UNL     1       2.105   6.926  -8.731  0.00  0.00    -0.000 A 
ATOM     14  C   UNL     1       1.493   6.720  -7.517  0.00  0.00    -0.002 A 
ENDBRANCH   8   9
TORSDOF 1
ENDMDL
MODEL 5
REMARK VINA RESULT:      -5.7      4.652      7.329
REMARK  Name = 
REMARK  1 active torsions:
REMARK  status: ('A' for Active; 'I' for Inactive)
REMARK    1  A    between atoms: C_3  and  C_4
REMARK                            x       y       z     vdW  Elec       q    Type
REMARK                         _______ _______ _______ _____ _____    ______ ____
ROOT
ATOM      1  C   UNL     1       0.032   5.318  -7.077  0.00  0.00    +0.020 C 
ATOM      2  C   UNL     1       1.344   6.067  -6.448  0.00  0.00    +0.089 C 
ATOM      3  N   UNL     1       1.689   4.873  -5.483  0.00  0.00    -0.268 NA
ATOM      4  C   UNL     1       1.910   3.767  -6.365  0.00  0.00    +0.090 C 
ATOM      5  C   UNL     1       3.022   5.359  -5.099  0.00  0.00    +0.105 C 
ATOM      6  C   UNL     1       2.746   6.842  -4.826  0.00  0.00    +0.160 C 
ATOM      7  O   UNL     1       1.540   6.855  -4.194  0.00  0.00    -0.349 OA
ATOM      8  C   UNL     1       0.457   6.993  -5.262  0.00  0.00    +0.152 C 
ENDROOT
BRANCH   8   9
ATOM      9  C   UNL     1      -0.425   5.738  -4.713  0.00  0.00    +0.006 A 
ATOM     10  C   UNL     1      -1.748   6.068  -5.029  0.00  0.00    -0.002 A 
ATOM     11  C   UNL     1      -2.820   5.556  -4.349  0.00  0.00    -0.000 A 
ATOM     12  C   UNL     1      -2.628   5.298  -3.021  0.00  0.00    -0.000 A 
ATOM     13  C   UNL     1      -1.359   5.423  -2.471  0.00  0.00    -0.000 A 
ATOM     14  C   UNL     1      -0.311   5.472  -3.360  0.00  0.00    -0.002 A 
ENDBRANCH   8   9
TORSDOF 1
ENDMDL
MODEL 6
REMARK VINA RESULT:      -5.7      1.558      2.782
REMARK  Name = 
REMARK  1 active torsions:
REMARK  status: ('A' for Active; 'I' for Inactive)
REMARK    1  A    between atoms: C_3  and  C_4
REMARK                            x       y       z     vdW  Elec       q    Type
REMARK                         _______ _______ _______ _____ _____    ______ ____
ROOT
ATOM      1  C   UNL     1       3.275   3.919  -8.748  0.00  0.00    +0.020 C 
ATOM      2  C   UNL     1       2.409   5.196  -8.200  0.00  0.00    +0.089 C 
ATOM      3  N   UNL     1       2.081   5.723  -9.645  0.00  0.00    -0.268 NA
ATOM      4  C   UNL     1       1.365   4.643 -10.254  0.00  0.00    +0.090 C 
ATOM      5  C   UNL     1       1.064   6.701  -9.230  0.00  0.00    +0.105 C 
ATOM      6  C   UNL     1       1.746   7.371  -8.033  0.00  0.00    +0.160 C 
ATOM      7  O   UNL     1       3.050   7.495  -8.407  0.00  0.00    -0.349 OA
ATOM      8  C   UNL     1       3.787   6.239  -7.947  0.00  0.00    +0.152 C 
ENDROOT
BRANCH   8   9
ATOM      9  C   UNL     1       4.467   5.951  -9.400  0.00  0.00    +0.006 A 
ATOM     10  C   UNL     1       5.777   5.554  -9.106  0.00  0.00    -0.002 A 
ATOM     11  C   UNL     1       6.806   5.681 -10.000  0.00  0.00    -0.000 A 
ATOM     12  C   UNL     1       6.741   6.749 -10.850  0.00  0.00    -0.000 A 
ATOM     13  C   UNL     1       5.604   7.546 -10.870  0.00  0.00    -0.000 A 
ATOM     14  C   UNL     1       4.480   7.020 -10.277  0.00  0.00    -0.002 A 
ENDBRANCH   8   9
TORSDOF 1
ENDMDL
MODEL 7
REMARK VINA RESULT:      -5.6      1.781      2.579
REMARK  Name = 
REMARK  1 active torsions:
REMARK  status: ('A' for Active; 'I' for Inactive)
REMARK    1  A    between atoms: C_3  and  C_4
REMARK                            x       y       z     vdW  Elec       q    Type
REMARK                         _______ _______ _______ _____ _____    ______ ____
ROOT
ATOM      1  C   UNL     1       4.569   5.453  -7.939  0.00  0.00    +0.020 C 
ATOM      2  C   UNL     1       3.226   6.025  -8.681  0.00  0.00    +0.089 C 
ATOM      3  N   UNL     1       3.030   4.729  -9.549  0.00  0.00    -0.268 NA
ATOM      4  C   UNL     1       2.865   3.686  -8.583  0.00  0.00    +0.090 C 
ATOM      5  C   UNL     1       1.678   5.059 -10.024  0.00  0.00    +0.105 C 
ATOM      6  C   UNL     1       1.837   6.532 -10.415  0.00  0.00    +0.160 C 
ATOM      7  O   UNL     1       3.065   6.601 -11.001  0.00  0.00    -0.349 OA
ATOM      8  C   UNL     1       4.082   6.925  -9.909  0.00  0.00    +0.152 C 
ENDROOT
BRANCH   8   9
ATOM      9  C   UNL     1       5.093   5.712 -10.312  0.00  0.00    +0.006 A 
ATOM     10  C   UNL     1       6.367   6.187  -9.979  0.00  0.00    -0.002 A 
ATOM     11  C   UNL     1       7.509   5.718 -10.572  0.00  0.00    -0.000 A 
ATOM     12  C   UNL     1       7.399   5.332 -11.878  0.00  0.00    -0.000 A 
ATOM     13  C   UNL     1       6.149   5.294 -12.482  0.00  0.00    -0.000 A 
ATOM     14  C   UNL     1       5.063   5.324 -11.639  0.00  0.00    -0.002 A 
ENDBRANCH   8   9
TORSDOF 1
ENDMDL
MODEL 8
REMARK VINA RESULT:      -5.6      2.869      4.861
REMARK  Name = 
REMARK  1 active torsions:
REMARK  status: ('A' for Active; 'I' for Inactive)
REMARK    1  A    between atoms: C_3  and  C_4
REMARK                            x       y       z     vdW  Elec       q    Type
REMARK                         _______ _______ _______ _____ _____    ______ ____
ROOT
ATOM      1  C   UNL     1       4.055   5.852  -7.598  0.00  0.00    +0.020 C 
ATOM      2  C   UNL     1       2.721   4.991  -7.202  0.00  0.00    +0.089 C 
ATOM      3  N   UNL     1       1.838   6.271  -6.973  0.00  0.00    -0.268 NA
ATOM      4  C   UNL     1       1.852   6.934  -8.242  0.00  0.00    +0.090 C 
ATOM      5  C   UNL     1       0.550   5.565  -6.899  0.00  0.00    +0.105 C 
ATOM      6  C   UNL     1       0.894   4.388  -5.980  0.00  0.00    +0.160 C 
ATOM      7  O   UNL     1       1.712   4.922  -5.030  0.00  0.00    -0.349 OA
ATOM      8  C   UNL     1       3.150   4.778  -5.523  0.00  0.00    +0.152 C 
ENDROOT
BRANCH   8   9
ATOM      9  C   UNL     1       3.532   6.340  -5.261  0.00  0.00    +0.006 A 
ATOM     10  C   UNL     1       4.892   6.323  -4.930  0.00  0.00    -0.002 A 
ATOM     11  C   UNL     1       5.485   7.310  -4.190  0.00  0.00    -0.000 A 
ATOM     12  C   UNL     1       4.704   7.907  -3.241  0.00  0.00    -0.000 A 
ATOM     13  C   UNL     1       3.351   7.602  -3.170  0.00  0.00    -0.000 A 
ATOM     14  C   UNL     1       2.809   6.974  -4.267  0.00  0.00    -0.002 A 
ENDBRANCH   8   9
TORSDOF 1
ENDMDL
MODEL 9
REMARK VINA RESULT:      -5.6      2.517      4.914
REMARK  Name = 
REMARK  1 active torsions:
REMARK  status: ('A' for Active; 'I' for Inactive)
REMARK    1  A    between atoms: C_3  and  C_4
REMARK                            x       y       z     vdW  Elec       q    Type
REMARK                         _______ _______ _______ _____ _____    ______ ____
ROOT
ATOM      1  C   UNL     1       2.141   4.040  -6.775  0.00  0.00    +0.020 C 
ATOM      2  C   UNL     1       1.923   5.440  -7.594  0.00  0.00    +0.089 C 
ATOM      3  N   UNL     1       3.447   5.587  -7.952  0.00  0.00    -0.268 NA
ATOM      4  C   UNL     1       3.741   4.408  -8.710  0.00  0.00    +0.090 C 
ATOM      5  C   UNL     1       3.277   6.668  -8.933  0.00  0.00    +0.105 C 
ATOM      6  C   UNL     1       2.309   7.603  -8.201  0.00  0.00    +0.160 C 
ATOM      7  O   UNL     1       2.731   7.588  -6.905  0.00  0.00    -0.349 OA
ATOM      8  C   UNL     1       1.979   6.471  -6.185  0.00  0.00    +0.152 C 
ENDROOT
BRANCH   8   9
ATOM      9  C   UNL     1       3.322   5.798  -5.555  0.00  0.00    +0.006 A 
ATOM     10  C   UNL     1       2.921   5.309  -4.306  0.00  0.00    -0.002 A 
ATOM     11  C   UNL     1       3.798   5.111  -3.273  0.00  0.00    -0.000 A 
ATOM     12  C   UNL     1       4.855   5.974  -3.203  0.00  0.00    -0.000 A 
ATOM     13  C   UNL     1       5.068   6.887  -4.227  0.00  0.00    -0.000 A 
ATOM     14  C   UNL     1       4.404   6.647  -5.407  0.00  0.00    -0.002 A 
ENDBRANCH   8   9
TORSDOF 1
ENDMDL
