MODEL 1
REMARK VINA RESULT:      -4.3      0.000      0.000
REMARK  Name = 
REMARK  4 active torsions:
REMARK  status: ('A' for Active; 'I' for Inactive)
REMARK    1  A    between atoms: O_2  and  C_3
REMARK    2  A    between atoms: C_3  and  C_5
REMARK    3  A    between atoms: C_6  and  C_7
REMARK    4  A    between atoms: C_7  and  O_9
REMARK                            x       y       z     vdW  Elec       q    Type
REMARK                         _______ _______ _______ _____ _____    ______ ____
ROOT
ATOM      1  C   UNL     1       7.586   6.241 -11.048  0.00  0.00    +0.089 C 
ATOM      2  C   UNL     1       7.191   5.681  -9.936  0.00  0.00    +0.089 C 
ENDROOT
BRANCH   1   3
ATOM      3  C   UNL     1       8.376   5.619 -12.084  0.00  0.00    +0.342 C 
ATOM      4  O   UNL     1       9.602   5.903 -12.175  0.00  0.00    -0.245 OA
BRANCH   3   6
ATOM      5  C   UNL     1       6.836   5.470 -14.001  0.00  0.00    +0.256 C 
ATOM      6  O   UNL     1       7.838   4.906 -13.157  0.00  0.00    -0.441 OA
ENDBRANCH   3   6
ENDBRANCH   1   3
BRANCH   2   7
ATOM      7  C   UNL     1       5.821   5.770  -9.421  0.00  0.00    +0.342 C 
ATOM      8  O   UNL     1       5.466   5.266  -8.326  0.00  0.00    -0.245 OA
BRANCH   7   9
ATOM      9  O   UNL     1       4.922   6.646  -9.997  0.00  0.00    -0.441 OA
ATOM     10  C   UNL     1       3.872   6.240 -10.848  0.00  0.00    +0.256 C 
ENDBRANCH   7   9
ENDBRANCH   2   7
TORSDOF 4
ENDMDL
MODEL 2
REMARK VINA RESULT:      -4.3      0.854      4.406
REMARK  Name = 
REMARK  4 active torsions:
REMARK  status: ('A' for Active; 'I' for Inactive)
REMARK    1  A    between atoms: O_2  and  C_3
REMARK    2  A    between atoms: C_3  and  C_5
REMARK    3  A    between atoms: C_6  and  C_7
REMARK    4  A    between atoms: C_7  and  O_9
REMARK                            x       y       z     vdW  Elec       q    Type
REMARK                         _______ _______ _______ _____ _____    ______ ____
ROOT
ATOM      1  C   UNL     1       6.922   5.780 -10.225  0.00  0.00    +0.089 C 
ATOM      2  C   UNL     1       7.512   6.449 -11.180  0.00  0.00    +0.089 C 
ENDROOT
BRANCH   1   3
ATOM      3  C   UNL     1       5.548   5.922  -9.806  0.00  0.00    +0.342 C 
ATOM      4  O   UNL     1       4.877   6.907 -10.223  0.00  0.00    -0.245 OA
BRANCH   3   6
ATOM      5  C   UNL     1       3.851   4.326  -9.004  0.00  0.00    +0.256 C 
ATOM      6  O   UNL     1       4.965   5.187  -8.773  0.00  0.00    -0.441 OA
ENDBRANCH   3   6
ENDBRANCH   1   3
BRANCH   2   7
ATOM      7  C   UNL     1       8.350   5.829 -12.211  0.00  0.00    +0.342 C 
ATOM      8  O   UNL     1       9.605   5.800 -12.149  0.00  0.00    -0.245 OA
BRANCH   7   9
ATOM      9  O   UNL     1       7.779   5.012 -13.167  0.00  0.00    -0.441 OA
ATOM     10  C   UNL     1       6.856   5.467 -14.132  0.00  0.00    +0.256 C 
ENDBRANCH   7   9
ENDBRANCH   2   7
TORSDOF 4
ENDMDL
MODEL 3
REMARK VINA RESULT:      -4.1      1.690      2.371
REMARK  Name = 
REMARK  4 active torsions:
REMARK  status: ('A' for Active; 'I' for Inactive)
REMARK    1  A    between atoms: O_2  and  C_3
REMARK    2  A    between atoms: C_3  and  C_5
REMARK    3  A    between atoms: C_6  and  C_7
REMARK    4  A    between atoms: C_7  and  O_9
REMARK                            x       y       z     vdW  Elec       q    Type
REMARK                         _______ _______ _______ _____ _____    ______ ____
ROOT
ATOM      1  C   UNL     1       5.472   5.584 -11.200  0.00  0.00    +0.089 C 
ATOM      2  C   UNL     1       5.825   5.629  -9.942  0.00  0.00    +0.089 C 
ENDROOT
BRANCH   1   3
ATOM      3  C   UNL     1       6.314   5.209 -12.311  0.00  0.00    +0.342 C 
ATOM      4  O   UNL     1       5.791   5.032 -13.445  0.00  0.00    -0.245 OA
BRANCH   3   6
ATOM      5  C   UNL     1       8.730   5.691 -12.298  0.00  0.00    +0.256 C 
ATOM      6  O   UNL     1       7.637   4.782 -12.180  0.00  0.00    -0.441 OA
ENDBRANCH   3   6
ENDBRANCH   1   3
BRANCH   2   7
ATOM      7  C   UNL     1       5.027   5.061  -8.852  0.00  0.00    +0.342 C 
ATOM      8  O   UNL     1       4.988   5.561  -7.699  0.00  0.00    -0.245 OA
BRANCH   7   9
ATOM      9  O   UNL     1       4.074   4.099  -9.120  0.00  0.00    -0.441 OA
ATOM     10  C   UNL     1       2.744   4.166  -8.655  0.00  0.00    +0.256 C 
ENDBRANCH   7   9
ENDBRANCH   2   7
TORSDOF 4
ENDMDL
MODEL 4
REMARK VINA RESULT:      -4.1      8.832     11.086
REMARK  Name = 
REMARK  4 active torsions:
REMARK  status: ('A' for Active; 'I' for Inactive)
REMARK    1  A    between atoms: O_2  and  C_3
REMARK    2  A    between atoms: C_3  and  C_5
REMARK    3  A    between atoms: C_6  and  C_7
REMARK    4  A    between atoms: C_7  and  O_9
REMARK                            x       y       z     vdW  Elec       q    Type
REMARK                         _______ _______ _______ _____ _____    ______ ____
ROOT
ATOM      1  C   UNL     1      -2.279   5.617  -5.402  0.00  0.00    +0.089 C 
ATOM      2  C   UNL     1      -2.492   6.380  -4.363  0.00  0.00    +0.089 C 
ENDROOT
BRANCH   1   3
ATOM      3  C   UNL     1      -1.123   5.654  -6.266  0.00  0.00    +0.342 C 
ATOM      4  O   UNL     1      -1.217   5.198  -7.438  0.00  0.00    -0.245 OA
BRANCH   3   6
ATOM      5  C   UNL     1       0.948   4.965  -5.122  0.00  0.00    +0.256 C 
ATOM      6  O   UNL     1       0.173   5.933  -5.827  0.00  0.00    -0.441 OA
ENDBRANCH   3   6
ENDBRANCH   1   3
BRANCH   2   7
ATOM      7  C   UNL     1      -2.951   5.877  -3.065  0.00  0.00    +0.342 C 
ATOM      8  O   UNL     1      -2.911   4.661  -2.747  0.00  0.00    -0.245 OA
BRANCH   7   9
ATOM      9  O   UNL     1      -3.203   6.758  -2.031  0.00  0.00    -0.441 OA
ATOM     10  C   UNL     1      -2.252   7.100  -1.048  0.00  0.00    +0.256 C 
ENDBRANCH   7   9
ENDBRANCH   2   7
TORSDOF 4
ENDMDL
MODEL 5
REMARK VINA RESULT:      -4.1      3.159      5.668
REMARK  Name = 
REMARK  4 active torsions:
REMARK  status: ('A' for Active; 'I' for Inactive)
REMARK    1  A    between atoms: O_2  and  C_3
REMARK    2  A    between atoms: C_3  and  C_5
REMARK    3  A    between atoms: C_6  and  C_7
REMARK    4  A    between atoms: C_7  and  O_9
REMARK                            x       y       z     vdW  Elec       q    Type
REMARK                         _______ _______ _______ _____ _____    ______ ____
ROOT
ATOM      1  C   UNL     1       7.157   6.495 -14.373  0.00  0.00    +0.089 C 
ATOM      2  C   UNL     1       6.271   7.375 -14.756  0.00  0.00    +0.089 C 
ENDROOT
BRANCH   1   3
ATOM      3  C   UNL     1       6.896   5.289 -13.624  0.00  0.00    +0.342 C 
ATOM      4  O   UNL     1       5.718   4.839 -13.576  0.00  0.00    -0.245 OA
BRANCH   3   6
ATOM      5  C   UNL     1       8.675   5.499 -11.932  0.00  0.00    +0.256 C 
ATOM      6  O   UNL     1       7.803   4.707 -12.736  0.00  0.00    -0.441 OA
ENDBRANCH   3   6
ENDBRANCH   1   3
BRANCH   2   7
ATOM      7  C   UNL     1       6.208   7.932 -16.110  0.00  0.00    +0.342 C 
ATOM      8  O   UNL     1       5.537   8.955 -16.401  0.00  0.00    -0.245 OA
BRANCH   7   9
ATOM      9  O   UNL     1       7.102   7.509 -17.074  0.00  0.00    -0.441 OA
ATOM     10  C   UNL     1       8.098   8.335 -17.633  0.00  0.00    +0.256 C 
ENDBRANCH   7   9
ENDBRANCH   2   7
TORSDOF 4
ENDMDL
MODEL 6
REMARK VINA RESULT:      -4.0      8.050     11.024
REMARK  Name = 
REMARK  4 active torsions:
REMARK  status: ('A' for Active; 'I' for Inactive)
REMARK    1  A    between atoms: O_2  and  C_3
REMARK    2  A    between atoms: C_3  and  C_5
REMARK    3  A    between atoms: C_6  and  C_7
REMARK    4  A    between atoms: C_7  and  O_9
REMARK                            x       y       z     vdW  Elec       q    Type
REMARK                         _______ _______ _______ _____ _____    ______ ____
ROOT
ATOM      1  C   UNL     1      -1.718   5.912  -4.597  0.00  0.00    +0.089 C 
ATOM      2  C   UNL     1      -1.790   5.428  -5.808  0.00  0.00    +0.089 C 
ENDROOT
BRANCH   1   3
ATOM      3  C   UNL     1      -2.249   5.302  -3.401  0.00  0.00    +0.342 C 
ATOM      4  O   UNL     1      -3.498   5.160  -3.286  0.00  0.00    -0.245 OA
BRANCH   3   6
ATOM      5  C   UNL     1      -0.089   5.246  -2.217  0.00  0.00    +0.256 C 
ATOM      6  O   UNL     1      -1.505   5.075  -2.241  0.00  0.00    -0.441 OA
ENDBRANCH   3   6
ENDBRANCH   1   3
BRANCH   2   7
ATOM      7  C   UNL     1      -0.652   5.369  -6.730  0.00  0.00    +0.342 C 
ATOM      8  O   UNL     1      -0.766   5.526  -7.973  0.00  0.00    -0.245 OA
BRANCH   7   9
ATOM      9  O   UNL     1       0.638   5.402  -6.239  0.00  0.00    -0.441 OA
ATOM     10  C   UNL     1       1.401   4.246  -5.969  0.00  0.00    +0.256 C 
ENDBRANCH   7   9
ENDBRANCH   2   7
TORSDOF 4
ENDMDL
MODEL 7
REMARK VINA RESULT:      -3.9      3.144      4.716
REMARK  Name = 
REMARK  4 active torsions:
REMARK  status: ('A' for Active; 'I' for Inactive)
REMARK    1  A    between atoms: O_2  and  C_3
REMARK    2  A    between atoms: C_3  and  C_5
REMARK    3  A    between atoms: C_6  and  C_7
REMARK    4  A    between atoms: C_7  and  O_9
REMARK                            x       y       z     vdW  Elec       q    Type
REMARK                         _______ _______ _______ _____ _____    ______ ____
ROOT
ATOM      1  C   UNL     1       6.710   6.677 -15.124  0.00  0.00    +0.089 C 
ATOM      2  C   UNL     1       6.563   5.703 -14.265  0.00  0.00    +0.089 C 
ENDROOT
BRANCH   1   3
ATOM      3  C   UNL     1       5.650   7.418 -15.764  0.00  0.00    +0.342 C 
ATOM      4  O   UNL     1       4.652   6.794 -16.218  0.00  0.00    -0.245 OA
BRANCH   3   6
ATOM      5  C   UNL     1       4.913   9.312 -17.158  0.00  0.00    +0.256 C 
ATOM      6  O   UNL     1       5.752   8.757 -16.146  0.00  0.00    -0.441 OA
ENDBRANCH   3   6
ENDBRANCH   1   3
BRANCH   2   7
ATOM      7  C   UNL     1       7.311   5.605 -13.008  0.00  0.00    +0.342 C 
ATOM      8  O   UNL     1       7.855   4.542 -12.614  0.00  0.00    -0.245 OA
BRANCH   7   9
ATOM      9  O   UNL     1       7.676   6.751 -12.330  0.00  0.00    -0.441 OA
ATOM     10  C   UNL     1       6.820   7.444 -11.449  0.00  0.00    +0.256 C 
ENDBRANCH   7   9
ENDBRANCH   2   7
TORSDOF 4
ENDMDL
MODEL 8
REMARK VINA RESULT:      -3.9     10.873     11.888
REMARK  Name = 
REMARK  4 active torsions:
REMARK  status: ('A' for Active; 'I' for Inactive)
REMARK    1  A    between atoms: O_2  and  C_3
REMARK    2  A    between atoms: C_3  and  C_5
REMARK    3  A    between atoms: C_6  and  C_7
REMARK    4  A    between atoms: C_7  and  O_9
REMARK                            x       y       z     vdW  Elec       q    Type
REMARK                         _______ _______ _______ _____ _____    ______ ____
ROOT
ATOM      1  C   UNL     1      -0.668   6.004  -2.431  0.00  0.00    +0.089 C 
ATOM      2  C   UNL     1       0.331   5.202  -2.173  0.00  0.00    +0.089 C 
ENDROOT
BRANCH   1   3
ATOM      3  C   UNL     1      -1.983   5.613  -2.879  0.00  0.00    +0.342 C 
ATOM      4  O   UNL     1      -2.582   4.677  -2.281  0.00  0.00    -0.245 OA
BRANCH   3   6
ATOM      5  C   UNL     1      -1.917   5.769  -5.337  0.00  0.00    +0.256 C 
ATOM      6  O   UNL     1      -2.553   6.024  -4.086  0.00  0.00    -0.441 OA
ENDBRANCH   3   6
ENDBRANCH   1   3
BRANCH   2   7
ATOM      7  C   UNL     1       1.163   5.298  -0.970  0.00  0.00    +0.342 C 
ATOM      8  O   UNL     1       0.889   6.057  -0.006  0.00  0.00    -0.245 OA
BRANCH   7   9
ATOM      9  O   UNL     1       2.144   4.356  -0.730  0.00  0.00    -0.441 OA
ATOM     10  C   UNL     1       3.479   4.491  -1.165  0.00  0.00    +0.256 C 
ENDBRANCH   7   9
ENDBRANCH   2   7
TORSDOF 4
ENDMDL
MODEL 9
REMARK VINA RESULT:      -3.8      3.209      5.124
REMARK  Name = 
REMARK  4 active torsions:
REMARK  status: ('A' for Active; 'I' for Inactive)
REMARK    1  A    between atoms: O_2  and  C_3
REMARK    2  A    between atoms: C_3  and  C_5
REMARK    3  A    between atoms: C_6  and  C_7
REMARK    4  A    between atoms: C_7  and  O_9
REMARK                            x       y       z     vdW  Elec       q    Type
REMARK                         _______ _______ _______ _____ _____    ______ ____
ROOT
ATOM      1  C   UNL     1       6.621   5.797 -14.373  0.00  0.00    +0.089 C 
ATOM      2  C   UNL     1       6.669   6.930 -15.022  0.00  0.00    +0.089 C 
ENDROOT
BRANCH   1   3
ATOM      3  C   UNL     1       7.019   5.581 -13.002  0.00  0.00    +0.342 C 
ATOM      4  O   UNL     1       7.796   4.624 -12.732  0.00  0.00    -0.245 OA
BRANCH   3   6
ATOM      5  C   UNL     1       6.910   7.429 -11.377  0.00  0.00    +0.256 C 
ATOM      6  O   UNL     1       6.417   6.200 -11.905  0.00  0.00    -0.441 OA
ENDBRANCH   3   6
ENDBRANCH   1   3
BRANCH   2   7
ATOM      7  C   UNL     1       5.568   7.447 -15.839  0.00  0.00    +0.342 C 
ATOM      8  O   UNL     1       4.502   6.810 -16.037  0.00  0.00    -0.245 OA
BRANCH   7   9
ATOM      9  O   UNL     1       5.547   8.777 -16.211  0.00  0.00    -0.441 OA
ATOM     10  C   UNL     1       4.553   9.343 -17.035  0.00  0.00    +0.256 C 
ENDBRANCH   7   9
ENDBRANCH   2   7
TORSDOF 4
ENDMDL
