MODEL 1
REMARK VINA RESULT:      -8.2      0.000      0.000
REMARK  Name = 
REMARK  11 active torsions:
REMARK  status: ('A' for Active; 'I' for Inactive)
REMARK    1  A    between atoms: C_2  and  C_3
REMARK    2  A    between atoms: C_3  and  C_4
REMARK    3  A    between atoms: C_4  and  C_5
REMARK    4  A    between atoms: C_13  and  C_14
REMARK    5  A    between atoms: C_14  and  C_16
REMARK    6  A    between atoms: C_20  and  O_21
REMARK    7  A    between atoms: O_21  and  C_22
REMARK    8  A    between atoms: C_22  and  C_23
REMARK    9  A    between atoms: C_23  and  N_24
REMARK   10  A    between atoms: N_24  and  C_25
REMARK   11  A    between atoms: N_24  and  C_27
REMARK                            x       y       z     vdW  Elec       q    Type
REMARK                         _______ _______ _______ _____ _____    ______ ____
ROOT
ATOM      1  C   UNL     1       3.070   5.085  -7.212  0.00  0.00    +0.040 A 
ATOM      2  C   UNL     1       3.980   5.330  -6.190  0.00  0.00    +0.012 A 
ATOM      3  C   UNL     1       3.513   6.063  -5.107  0.00  0.00    +0.064 A 
ATOM      4  I   UNL     1       4.730   7.489  -4.124  0.00  0.00    -0.039 I 
ATOM      5  C   UNL     1       2.168   5.911  -4.789  0.00  0.00    +0.149 A 
ATOM      6  C   UNL     1       1.236   5.551  -5.754  0.00  0.00    +0.064 A 
ATOM      7  I   UNL     1      -0.793   6.122  -5.605  0.00  0.00    -0.039 I 
ATOM      8  C   UNL     1       1.706   5.124  -6.989  0.00  0.00    +0.012 A 
ENDROOT
BRANCH   1   9
ATOM      9  C   UNL     1       3.551   4.697  -8.545  0.00  0.00    +0.198 C 
ATOM     10  O   UNL     1       3.272   3.510  -8.892  0.00  0.00    -0.286 OA
BRANCH   9  12
ATOM     11  C   UNL     1       3.423   6.105 -10.633  0.00  0.00    +0.126 A 
ATOM     12  C   UNL     1       4.076   5.660  -9.490  0.00  0.00    +0.072 A 
ATOM     13  C   UNL     1       5.412   5.998  -9.667  0.00  0.00    +0.040 A 
ATOM     14  C   UNL     1       5.374   7.042 -10.579  0.00  0.00    +0.145 A 
ATOM     15  C   UNL     1       6.608   7.552 -10.955  0.00  0.00    +0.037 A 
ATOM     16  C   UNL     1       7.748   6.771 -10.825  0.00  0.00    +0.003 A 
ATOM     17  C   UNL     1       7.788   5.763  -9.888  0.00  0.00    +0.000 A 
ATOM     18  C   UNL     1       6.611   5.462  -9.227  0.00  0.00    +0.003 A 
ATOM     19  O   UNL     1       4.172   7.059 -11.118  0.00  0.00    -0.458 OA
BRANCH  11  20
ATOM     20  C   UNL     1       2.074   5.641 -11.073  0.00  0.00    +0.065 C 
BRANCH  20  21
ATOM     21  C   UNL     1       1.040   6.574 -10.507  0.00  0.00    +0.008 C 
BRANCH  21  23
ATOM     22  C   UNL     1       0.103   4.334 -10.505  0.00  0.00    +0.000 C 
ATOM     23  C   UNL     1      -0.125   5.743  -9.980  0.00  0.00    +0.000 C 
ENDBRANCH  21  23
ENDBRANCH  20  21
ENDBRANCH  11  20
ENDBRANCH   9  12
ENDBRANCH   1   9
BRANCH   5  24
ATOM     24  O   UNL     1       1.726   6.389  -3.563  0.00  0.00    -0.473 OA
BRANCH  24  25
ATOM     25  C   UNL     1       1.832   5.561  -2.408  0.00  0.00    +0.223 C 
BRANCH  25  26
ATOM     26  C   UNL     1       0.461   5.069  -2.036  0.00  0.00    +0.120 C 
BRANCH  26  27
ATOM     27  N   UNL     1      -0.223   6.121  -1.326  0.00  0.00    -0.270 NA
BRANCH  27  28
ATOM     28  C   UNL     1       0.472   6.501  -0.118  0.00  0.00    +0.072 C 
ATOM     29  C   UNL     1      -0.006   7.839   0.377  0.00  0.00    +0.019 C 
ENDBRANCH  27  28
BRANCH  27  30
ATOM     30  C   UNL     1      -1.621   5.844  -1.109  0.00  0.00    +0.072 C 
ATOM     31  C   UNL     1      -2.501   6.664  -2.017  0.00  0.00    +0.019 C 
ENDBRANCH  27  30
ENDBRANCH  26  27
ENDBRANCH  25  26
ENDBRANCH  24  25
ENDBRANCH   5  24
TORSDOF 11
ENDMDL
MODEL 2
REMARK VINA RESULT:      -8.2      1.072      1.791
REMARK  Name = 
REMARK  11 active torsions:
REMARK  status: ('A' for Active; 'I' for Inactive)
REMARK    1  A    between atoms: C_2  and  C_3
REMARK    2  A    between atoms: C_3  and  C_4
REMARK    3  A    between atoms: C_4  and  C_5
REMARK    4  A    between atoms: C_13  and  C_14
REMARK    5  A    between atoms: C_14  and  C_16
REMARK    6  A    between atoms: C_20  and  O_21
REMARK    7  A    between atoms: O_21  and  C_22
REMARK    8  A    between atoms: C_22  and  C_23
REMARK    9  A    between atoms: C_23  and  N_24
REMARK   10  A    between atoms: N_24  and  C_25
REMARK   11  A    between atoms: N_24  and  C_27
REMARK                            x       y       z     vdW  Elec       q    Type
REMARK                         _______ _______ _______ _____ _____    ______ ____
ROOT
ATOM      1  C   UNL     1       3.109   5.157  -7.152  0.00  0.00    +0.040 A 
ATOM      2  C   UNL     1       4.066   5.348  -6.162  0.00  0.00    +0.012 A 
ATOM      3  C   UNL     1       3.679   6.105  -5.063  0.00  0.00    +0.064 A 
ATOM      4  I   UNL     1       5.009   7.458  -4.124  0.00  0.00    -0.039 I 
ATOM      5  C   UNL     1       2.339   6.030  -4.700  0.00  0.00    +0.149 A 
ATOM      6  C   UNL     1       1.356   5.726  -5.632  0.00  0.00    +0.064 A 
ATOM      7  I   UNL     1      -0.631   6.413  -5.415  0.00  0.00    -0.039 I 
ATOM      8  C   UNL     1       1.758   5.274  -6.882  0.00  0.00    +0.012 A 
ENDROOT
BRANCH   1   9
ATOM      9  C   UNL     1       3.522   4.744  -8.500  0.00  0.00    +0.198 C 
ATOM     10  O   UNL     1       3.164   3.575  -8.837  0.00  0.00    -0.286 OA
BRANCH   9  12
ATOM     11  C   UNL     1       3.433   6.102 -10.623  0.00  0.00    +0.126 A 
ATOM     12  C   UNL     1       4.068   5.677  -9.463  0.00  0.00    +0.072 A 
ATOM     13  C   UNL     1       5.411   5.993  -9.635  0.00  0.00    +0.040 A 
ATOM     14  C   UNL     1       5.395   7.015 -10.573  0.00  0.00    +0.145 A 
ATOM     15  C   UNL     1       6.640   7.498 -10.950  0.00  0.00    +0.037 A 
ATOM     16  C   UNL     1       7.767   6.706 -10.790  0.00  0.00    +0.003 A 
ATOM     17  C   UNL     1       7.785   5.720  -9.828  0.00  0.00    +0.000 A 
ATOM     18  C   UNL     1       6.598   5.451  -9.171  0.00  0.00    +0.003 A 
ATOM     19  O   UNL     1       4.199   7.034 -11.124  0.00  0.00    -0.458 OA
BRANCH  11  20
ATOM     20  C   UNL     1       2.081   5.645 -11.065  0.00  0.00    +0.065 C 
BRANCH  20  21
ATOM     21  C   UNL     1       1.054   6.600 -10.523  0.00  0.00    +0.008 C 
BRANCH  21  23
ATOM     22  C   UNL     1      -0.022   4.424 -10.584  0.00  0.00    +0.000 C 
ATOM     23  C   UNL     1      -0.089   5.791  -9.920  0.00  0.00    +0.000 C 
ENDBRANCH  21  23
ENDBRANCH  20  21
ENDBRANCH  11  20
ENDBRANCH   9  12
ENDBRANCH   1   9
BRANCH   5  24
ATOM     24  O   UNL     1       1.968   6.531  -3.459  0.00  0.00    -0.473 OA
BRANCH  24  25
ATOM     25  C   UNL     1       1.575   5.631  -2.428  0.00  0.00    +0.223 C 
BRANCH  25  26
ATOM     26  C   UNL     1       2.718   5.467  -1.465  0.00  0.00    +0.120 C 
BRANCH  26  27
ATOM     27  N   UNL     1       2.391   6.168  -0.249  0.00  0.00    -0.270 NA
BRANCH  27  28
ATOM     28  C   UNL     1       1.012   6.599  -0.225  0.00  0.00    +0.072 C 
ATOM     29  C   UNL     1       0.855   7.844   0.604  0.00  0.00    +0.019 C 
ENDBRANCH  27  28
BRANCH  27  30
ATOM     30  C   UNL     1       3.318   7.228   0.061  0.00  0.00    +0.072 C 
ATOM     31  C   UNL     1       4.750   6.772  -0.063  0.00  0.00    +0.019 C 
ENDBRANCH  27  30
ENDBRANCH  26  27
ENDBRANCH  25  26
ENDBRANCH  24  25
ENDBRANCH   5  24
TORSDOF 11
ENDMDL
MODEL 3
REMARK VINA RESULT:      -8.0      3.744      9.378
REMARK  Name = 
REMARK  11 active torsions:
REMARK  status: ('A' for Active; 'I' for Inactive)
REMARK    1  A    between atoms: C_2  and  C_3
REMARK    2  A    between atoms: C_3  and  C_4
REMARK    3  A    between atoms: C_4  and  C_5
REMARK    4  A    between atoms: C_13  and  C_14
REMARK    5  A    between atoms: C_14  and  C_16
REMARK    6  A    between atoms: C_20  and  O_21
REMARK    7  A    between atoms: O_21  and  C_22
REMARK    8  A    between atoms: C_22  and  C_23
REMARK    9  A    between atoms: C_23  and  N_24
REMARK   10  A    between atoms: N_24  and  C_25
REMARK   11  A    between atoms: N_24  and  C_27
REMARK                            x       y       z     vdW  Elec       q    Type
REMARK                         _______ _______ _______ _____ _____    ______ ____
ROOT
ATOM      1  C   UNL     1       2.324   4.809  -8.354  0.00  0.00    +0.040 A 
ATOM      2  C   UNL     1       1.442   4.854  -9.427  0.00  0.00    +0.012 A 
ATOM      3  C   UNL     1       1.864   5.559 -10.547  0.00  0.00    +0.064 A 
ATOM      4  I   UNL     1       0.524   6.734 -11.689  0.00  0.00    -0.039 I 
ATOM      5  C   UNL     1       3.231   5.563 -10.798  0.00  0.00    +0.149 A 
ATOM      6  C   UNL     1       4.153   5.403  -9.771  0.00  0.00    +0.064 A 
ATOM      7  I   UNL     1       6.096   6.225  -9.885  0.00  0.00    -0.039 I 
ATOM      8  C   UNL     1       3.681   5.011  -8.525  0.00  0.00    +0.012 A 
ENDROOT
BRANCH   1   9
ATOM      9  C   UNL     1       1.831   4.462  -7.014  0.00  0.00    +0.198 C 
ATOM     10  O   UNL     1       2.130   3.295  -6.617  0.00  0.00    -0.286 OA
BRANCH   9  12
ATOM     11  C   UNL     1       1.804   5.811  -4.884  0.00  0.00    +0.126 A 
ATOM     12  C   UNL     1       1.271   5.448  -6.114  0.00  0.00    +0.072 A 
ATOM     13  C   UNL     1      -0.043   5.899  -6.100  0.00  0.00    +0.040 A 
ATOM     14  C   UNL     1      -0.036   6.917  -5.158  0.00  0.00    +0.145 A 
ATOM     15  C   UNL     1      -1.261   7.526  -4.927  0.00  0.00    +0.037 A 
ATOM     16  C   UNL     1      -2.436   6.851  -5.226  0.00  0.00    +0.003 A 
ATOM     17  C   UNL     1      -2.439   5.869  -6.191  0.00  0.00    +0.000 A 
ATOM     18  C   UNL     1      -1.216   5.479  -6.706  0.00  0.00    +0.003 A 
ATOM     19  O   UNL     1       1.082   6.817  -4.469  0.00  0.00    -0.458 OA
BRANCH  11  20
ATOM     20  C   UNL     1       3.041   5.221  -4.289  0.00  0.00    +0.065 C 
BRANCH  20  21
ATOM     21  C   UNL     1       4.231   5.744  -5.045  0.00  0.00    +0.008 C 
BRANCH  21  23
ATOM     22  C   UNL     1       5.539   7.532  -4.051  0.00  0.00    +0.000 C 
ATOM     23  C   UNL     1       4.287   7.258  -4.871  0.00  0.00    +0.000 C 
ENDBRANCH  21  23
ENDBRANCH  20  21
ENDBRANCH  11  20
ENDBRANCH   9  12
ENDBRANCH   1   9
BRANCH   5  24
ATOM     24  O   UNL     1       3.668   6.002 -12.041  0.00  0.00    -0.473 OA
BRANCH  24  25
ATOM     25  C   UNL     1       4.345   5.096 -12.906  0.00  0.00    +0.223 C 
BRANCH  25  26
ATOM     26  C   UNL     1       4.757   5.831 -14.152  0.00  0.00    +0.120 C 
BRANCH  26  27
ATOM     27  N   UNL     1       6.065   6.397 -13.934  0.00  0.00    -0.270 NA
BRANCH  27  28
ATOM     28  C   UNL     1       6.394   7.397 -14.924  0.00  0.00    +0.072 C 
ATOM     29  C   UNL     1       6.775   6.753 -16.229  0.00  0.00    +0.019 C 
ENDBRANCH  27  28
BRANCH  27  30
ATOM     30  C   UNL     1       7.095   5.401 -13.775  0.00  0.00    +0.072 C 
ATOM     31  C   UNL     1       8.244   5.913 -12.946  0.00  0.00    +0.019 C 
ENDBRANCH  27  30
ENDBRANCH  26  27
ENDBRANCH  25  26
ENDBRANCH  24  25
ENDBRANCH   5  24
TORSDOF 11
ENDMDL
MODEL 4
REMARK VINA RESULT:      -7.9      0.957      1.934
REMARK  Name = 
REMARK  11 active torsions:
REMARK  status: ('A' for Active; 'I' for Inactive)
REMARK    1  A    between atoms: C_2  and  C_3
REMARK    2  A    between atoms: C_3  and  C_4
REMARK    3  A    between atoms: C_4  and  C_5
REMARK    4  A    between atoms: C_13  and  C_14
REMARK    5  A    between atoms: C_14  and  C_16
REMARK    6  A    between atoms: C_20  and  O_21
REMARK    7  A    between atoms: O_21  and  C_22
REMARK    8  A    between atoms: C_22  and  C_23
REMARK    9  A    between atoms: C_23  and  N_24
REMARK   10  A    between atoms: N_24  and  C_25
REMARK   11  A    between atoms: N_24  and  C_27
REMARK                            x       y       z     vdW  Elec       q    Type
REMARK                         _______ _______ _______ _____ _____    ______ ____
ROOT
ATOM      1  C   UNL     1       2.715   5.385  -7.417  0.00  0.00    +0.040 A 
ATOM      2  C   UNL     1       1.428   5.906  -7.492  0.00  0.00    +0.012 A 
ATOM      3  C   UNL     1       0.728   6.003  -6.296  0.00  0.00    +0.064 A 
ATOM      4  I   UNL     1      -1.349   5.610  -6.191  0.00  0.00    -0.039 I 
ATOM      5  C   UNL     1       1.484   6.234  -5.152  0.00  0.00    +0.149 A 
ATOM      6  C   UNL     1       2.812   5.836  -5.073  0.00  0.00    +0.064 A 
ATOM      7  I   UNL     1       3.721   5.360  -3.226  0.00  0.00    -0.039 I 
ATOM      8  C   UNL     1       3.436   5.409  -6.238  0.00  0.00    +0.012 A 
ENDROOT
BRANCH   1   9
ATOM      9  C   UNL     1       3.366   4.865  -8.628  0.00  0.00    +0.198 C 
ATOM     10  O   UNL     1       3.173   3.632  -8.854  0.00  0.00    -0.286 OA
BRANCH   9  12
ATOM     11  C   UNL     1       3.411   6.050 -10.853  0.00  0.00    +0.126 A 
ATOM     12  C   UNL     1       3.965   5.733  -9.619  0.00  0.00    +0.072 A 
ATOM     13  C   UNL     1       5.310   6.069  -9.716  0.00  0.00    +0.040 A 
ATOM     14  C   UNL     1       5.345   7.014 -10.731  0.00  0.00    +0.145 A 
ATOM     15  C   UNL     1       6.606   7.498 -11.052  0.00  0.00    +0.037 A 
ATOM     16  C   UNL     1       7.733   6.750 -10.746  0.00  0.00    +0.003 A 
ATOM     17  C   UNL     1       7.697   5.843  -9.710  0.00  0.00    +0.000 A 
ATOM     18  C   UNL     1       6.470   5.596  -9.123  0.00  0.00    +0.003 A 
ATOM     19  O   UNL     1       4.195   6.959 -11.368  0.00  0.00    -0.458 OA
BRANCH  11  20
ATOM     20  C   UNL     1       2.107   5.526 -11.356  0.00  0.00    +0.065 C 
BRANCH  20  21
ATOM     21  C   UNL     1       1.087   6.628 -11.279  0.00  0.00    +0.008 C 
BRANCH  21  23
ATOM     22  C   UNL     1      -0.016   4.545 -10.698  0.00  0.00    +0.000 C 
ATOM     23  C   UNL     1      -0.206   6.054 -10.712  0.00  0.00    +0.000 C 
ENDBRANCH  21  23
ENDBRANCH  20  21
ENDBRANCH  11  20
ENDBRANCH   9  12
ENDBRANCH   1   9
BRANCH   5  24
ATOM     24  O   UNL     1       0.820   6.619  -3.995  0.00  0.00    -0.473 OA
BRANCH  24  25
ATOM     25  C   UNL     1       0.186   5.632  -3.188  0.00  0.00    +0.223 C 
BRANCH  25  26
ATOM     26  C   UNL     1       0.072   6.153  -1.783  0.00  0.00    +0.120 C 
BRANCH  26  27
ATOM     27  N   UNL     1      -1.311   6.473  -1.529  0.00  0.00    -0.270 NA
BRANCH  27  28
ATOM     28  C   UNL     1      -1.587   6.600  -0.116  0.00  0.00    +0.072 C 
ATOM     29  C   UNL     1      -1.712   8.047   0.277  0.00  0.00    +0.019 C 
ENDBRANCH  27  28
BRANCH  27  30
ATOM     30  C   UNL     1      -2.230   5.592  -2.205  0.00  0.00    +0.072 C 
ATOM     31  C   UNL     1      -3.486   6.312  -2.626  0.00  0.00    +0.019 C 
ENDBRANCH  27  30
ENDBRANCH  26  27
ENDBRANCH  25  26
ENDBRANCH  24  25
ENDBRANCH   5  24
TORSDOF 11
ENDMDL
MODEL 5
REMARK VINA RESULT:      -7.7      3.646      9.039
REMARK  Name = 
REMARK  11 active torsions:
REMARK  status: ('A' for Active; 'I' for Inactive)
REMARK    1  A    between atoms: C_2  and  C_3
REMARK    2  A    between atoms: C_3  and  C_4
REMARK    3  A    between atoms: C_4  and  C_5
REMARK    4  A    between atoms: C_13  and  C_14
REMARK    5  A    between atoms: C_14  and  C_16
REMARK    6  A    between atoms: C_20  and  O_21
REMARK    7  A    between atoms: O_21  and  C_22
REMARK    8  A    between atoms: C_22  and  C_23
REMARK    9  A    between atoms: C_23  and  N_24
REMARK   10  A    between atoms: N_24  and  C_25
REMARK   11  A    between atoms: N_24  and  C_27
REMARK                            x       y       z     vdW  Elec       q    Type
REMARK                         _______ _______ _______ _____ _____    ______ ____
ROOT
ATOM      1  C   UNL     1       2.646   5.432  -7.974  0.00  0.00    +0.040 A 
ATOM      2  C   UNL     1       3.989   5.759  -7.825  0.00  0.00    +0.012 A 
ATOM      3  C   UNL     1       4.741   5.836  -8.990  0.00  0.00    +0.064 A 
ATOM      4  I   UNL     1       6.746   5.161  -9.063  0.00  0.00    -0.039 I 
ATOM      5  C   UNL     1       4.070   6.249 -10.136  0.00  0.00    +0.149 A 
ATOM      6  C   UNL     1       2.703   6.049 -10.281  0.00  0.00    +0.064 A 
ATOM      7  I   UNL     1       1.809   5.831 -12.183  0.00  0.00    -0.039 I 
ATOM      8  C   UNL     1       1.981   5.637  -9.168  0.00  0.00    +0.012 A 
ENDROOT
BRANCH   1   9
ATOM      9  C   UNL     1       1.882   4.930  -6.823  0.00  0.00    +0.198 C 
ATOM     10  O   UNL     1       2.125   3.728  -6.501  0.00  0.00    -0.286 OA
BRANCH   9  12
ATOM     11  C   UNL     1       1.483   6.229  -4.699  0.00  0.00    +0.126 A 
ATOM     12  C   UNL     1       1.107   5.803  -5.967  0.00  0.00    +0.072 A 
ATOM     13  C   UNL     1      -0.260   6.039  -6.051  0.00  0.00    +0.040 A 
ATOM     14  C   UNL     1      -0.484   7.032  -5.109  0.00  0.00    +0.145 A 
ATOM     15  C   UNL     1      -1.805   7.435  -4.971  0.00  0.00    +0.037 A 
ATOM     16  C   UNL     1      -2.832   6.586  -5.358  0.00  0.00    +0.003 A 
ATOM     17  C   UNL     1      -2.606   5.629  -6.323  0.00  0.00    +0.000 A 
ATOM     18  C   UNL     1      -1.302   5.446  -6.744  0.00  0.00    +0.003 A 
ATOM     19  O   UNL     1       0.581   7.102  -4.339  0.00  0.00    -0.458 OA
BRANCH  11  20
ATOM     20  C   UNL     1       2.750   5.835  -4.014  0.00  0.00    +0.065 C 
BRANCH  20  21
ATOM     21  C   UNL     1       3.724   6.976  -4.120  0.00  0.00    +0.008 C 
BRANCH  21  23
ATOM     22  C   UNL     1       4.950   4.890  -4.331  0.00  0.00    +0.000 C 
ATOM     23  C   UNL     1       5.125   6.401  -4.299  0.00  0.00    +0.000 C 
ENDBRANCH  21  23
ENDBRANCH  20  21
ENDBRANCH  11  20
ENDBRANCH   9  12
ENDBRANCH   1   9
BRANCH   5  24
ATOM     24  O   UNL     1       4.825   6.612 -11.242  0.00  0.00    -0.473 OA
BRANCH  24  25
ATOM     25  C   UNL     1       5.628   7.787 -11.189  0.00  0.00    +0.223 C 
BRANCH  25  26
ATOM     26  C   UNL     1       6.863   7.570 -12.017  0.00  0.00    +0.120 C 
BRANCH  26  27
ATOM     27  N   UNL     1       6.549   6.627 -13.062  0.00  0.00    -0.270 NA
BRANCH  27  28
ATOM     28  C   UNL     1       7.536   5.575 -13.157  0.00  0.00    +0.072 C 
ATOM     29  C   UNL     1       8.773   5.930 -12.379  0.00  0.00    +0.019 C 
ENDBRANCH  27  28
BRANCH  27  30
ATOM     30  C   UNL     1       6.272   7.255 -14.329  0.00  0.00    +0.072 C 
ATOM     31  C   UNL     1       6.873   6.487 -15.477  0.00  0.00    +0.019 C 
ENDBRANCH  27  30
ENDBRANCH  26  27
ENDBRANCH  25  26
ENDBRANCH  24  25
ENDBRANCH   5  24
TORSDOF 11
ENDMDL
MODEL 6
REMARK VINA RESULT:      -7.3      3.642      8.709
REMARK  Name = 
REMARK  11 active torsions:
REMARK  status: ('A' for Active; 'I' for Inactive)
REMARK    1  A    between atoms: C_2  and  C_3
REMARK    2  A    between atoms: C_3  and  C_4
REMARK    3  A    between atoms: C_4  and  C_5
REMARK    4  A    between atoms: C_13  and  C_14
REMARK    5  A    between atoms: C_14  and  C_16
REMARK    6  A    between atoms: C_20  and  O_21
REMARK    7  A    between atoms: O_21  and  C_22
REMARK    8  A    between atoms: C_22  and  C_23
REMARK    9  A    between atoms: C_23  and  N_24
REMARK   10  A    between atoms: N_24  and  C_25
REMARK   11  A    between atoms: N_24  and  C_27
REMARK                            x       y       z     vdW  Elec       q    Type
REMARK                         _______ _______ _______ _____ _____    ______ ____
ROOT
ATOM      1  C   UNL     1       2.684   4.807  -8.150  0.00  0.00    +0.040 A 
ATOM      2  C   UNL     1       1.764   4.829  -9.192  0.00  0.00    +0.012 A 
ATOM      3  C   UNL     1       2.133   5.533 -10.331  0.00  0.00    +0.064 A 
ATOM      4  I   UNL     1       0.731   6.677 -11.431  0.00  0.00    -0.039 I 
ATOM      5  C   UNL     1       3.490   5.560 -10.631  0.00  0.00    +0.149 A 
ATOM      6  C   UNL     1       4.450   5.424  -9.637  0.00  0.00    +0.064 A 
ATOM      7  I   UNL     1       6.373   6.280  -9.825  0.00  0.00    -0.039 I 
ATOM      8  C   UNL     1       4.030   5.033  -8.372  0.00  0.00    +0.012 A 
ENDROOT
BRANCH   1   9
ATOM      9  C   UNL     1       2.246   4.461  -6.792  0.00  0.00    +0.198 C 
ATOM     10  O   UNL     1       2.229   3.219  -6.533  0.00  0.00    -0.286 OA
BRANCH   9  12
ATOM     11  C   UNL     1       0.998   6.299  -5.599  0.00  0.00    +0.126 A 
ATOM     12  C   UNL     1       2.090   5.454  -5.750  0.00  0.00    +0.072 A 
ATOM     13  C   UNL     1       3.108   6.019  -4.991  0.00  0.00    +0.040 A 
ATOM     14  C   UNL     1       2.436   6.798  -4.061  0.00  0.00    +0.145 A 
ATOM     15  C   UNL     1       3.243   7.508  -3.183  0.00  0.00    +0.037 A 
ATOM     16  C   UNL     1       4.555   7.799  -3.531  0.00  0.00    +0.003 A 
ATOM     17  C   UNL     1       5.224   6.994  -4.426  0.00  0.00    +0.000 A 
ATOM     18  C   UNL     1       4.491   6.018  -5.075  0.00  0.00    +0.003 A 
ATOM     19  O   UNL     1       1.192   6.928  -4.471  0.00  0.00    -0.458 OA
BRANCH  11  20
ATOM     20  C   UNL     1      -0.187   6.322  -6.507  0.00  0.00    +0.065 C 
BRANCH  20  21
ATOM     21  C   UNL     1      -1.282   5.501  -5.884  0.00  0.00    +0.008 C 
BRANCH  21  23
ATOM     22  C   UNL     1      -2.746   5.576  -3.949  0.00  0.00    +0.000 C 
ATOM     23  C   UNL     1      -2.182   6.428  -5.076  0.00  0.00    +0.000 C 
ENDBRANCH  21  23
ENDBRANCH  20  21
ENDBRANCH  11  20
ENDBRANCH   9  12
ENDBRANCH   1   9
BRANCH   5  24
ATOM     24  O   UNL     1       3.874   5.998 -11.891  0.00  0.00    -0.473 OA
BRANCH  24  25
ATOM     25  C   UNL     1       4.366   5.058 -12.841  0.00  0.00    +0.223 C 
BRANCH  25  26
ATOM     26  C   UNL     1       4.780   5.795 -14.084  0.00  0.00    +0.120 C 
BRANCH  26  27
ATOM     27  N   UNL     1       6.105   6.325 -13.878  0.00  0.00    -0.270 NA
BRANCH  27  28
ATOM     28  C   UNL     1       6.540   7.144 -14.987  0.00  0.00    +0.072 C 
ATOM     29  C   UNL     1       5.395   7.434 -15.919  0.00  0.00    +0.019 C 
ENDBRANCH  27  28
BRANCH  27  30
ATOM     30  C   UNL     1       7.068   5.318 -13.510  0.00  0.00    +0.072 C 
ATOM     31  C   UNL     1       8.361   5.928 -13.034  0.00  0.00    +0.019 C 
ENDBRANCH  27  30
ENDBRANCH  26  27
ENDBRANCH  25  26
ENDBRANCH  24  25
ENDBRANCH   5  24
TORSDOF 11
ENDMDL
MODEL 7
REMARK VINA RESULT:      -7.1      2.470      8.912
REMARK  Name = 
REMARK  11 active torsions:
REMARK  status: ('A' for Active; 'I' for Inactive)
REMARK    1  A    between atoms: C_2  and  C_3
REMARK    2  A    between atoms: C_3  and  C_4
REMARK    3  A    between atoms: C_4  and  C_5
REMARK    4  A    between atoms: C_13  and  C_14
REMARK    5  A    between atoms: C_14  and  C_16
REMARK    6  A    between atoms: C_20  and  O_21
REMARK    7  A    between atoms: O_21  and  C_22
REMARK    8  A    between atoms: C_22  and  C_23
REMARK    9  A    between atoms: C_23  and  N_24
REMARK   10  A    between atoms: N_24  and  C_25
REMARK   11  A    between atoms: N_24  and  C_27
REMARK                            x       y       z     vdW  Elec       q    Type
REMARK                         _______ _______ _______ _____ _____    ______ ____
ROOT
ATOM      1  C   UNL     1       1.638   5.564  -2.403  0.00  0.00    +0.040 A 
ATOM      2  C   UNL     1       0.759   5.127  -3.388  0.00  0.00    +0.012 A 
ATOM      3  C   UNL     1       0.998   5.582  -4.678  0.00  0.00    +0.064 A 
ATOM      4  I   UNL     1      -0.588   6.087  -5.987  0.00  0.00    -0.039 I 
ATOM      5  C   UNL     1       2.325   5.819  -5.017  0.00  0.00    +0.149 A 
ATOM      6  C   UNL     1       3.268   6.145  -4.051  0.00  0.00    +0.064 A 
ATOM      7  I   UNL     1       4.969   7.312  -4.508  0.00  0.00    -0.039 I 
ATOM      8  C   UNL     1       2.910   6.005  -2.716  0.00  0.00    +0.012 A 
ENDROOT
BRANCH   1   9
ATOM      9  C   UNL     1       1.250   5.487  -0.988  0.00  0.00    +0.198 C 
ATOM     10  O   UNL     1       1.657   4.453  -0.376  0.00  0.00    -0.286 OA
BRANCH   9  12
ATOM     11  C   UNL     1      -0.670   6.963  -0.286  0.00  0.00    +0.126 A 
ATOM     12  C   UNL     1       0.674   6.610  -0.280  0.00  0.00    +0.072 A 
ATOM     13  C   UNL     1       1.353   7.733   0.177  0.00  0.00    +0.040 A 
ATOM     14  C   UNL     1       0.393   8.434   0.892  0.00  0.00    +0.145 A 
ATOM     15  C   UNL     1       0.818   9.637   1.438  0.00  0.00    +0.037 A 
ATOM     16  C   UNL     1       1.915  10.294   0.899  0.00  0.00    +0.003 A 
ATOM     17  C   UNL     1       2.881   9.580   0.225  0.00  0.00    +0.000 A 
ATOM     18  C   UNL     1       2.623   8.246  -0.032  0.00  0.00    +0.003 A 
ATOM     19  O   UNL     1      -0.784   7.933   0.580  0.00  0.00    -0.458 OA
BRANCH  11  20
ATOM     20  C   UNL     1      -1.733   6.238  -1.045  0.00  0.00    +0.065 C 
BRANCH  20  21
ATOM     21  C   UNL     1      -2.251   7.146  -2.125  0.00  0.00    +0.008 C 
BRANCH  21  23
ATOM     22  C   UNL     1      -3.033   5.093  -3.159  0.00  0.00    +0.000 C 
ATOM     23  C   UNL     1      -3.474   6.493  -2.761  0.00  0.00    +0.000 C 
ENDBRANCH  21  23
ENDBRANCH  20  21
ENDBRANCH  11  20
ENDBRANCH   9  12
ENDBRANCH   1   9
BRANCH   5  24
ATOM     24  O   UNL     1       2.637   5.995  -6.358  0.00  0.00    -0.473 OA
BRANCH  24  25
ATOM     25  C   UNL     1       3.096   4.886  -7.124  0.00  0.00    +0.223 C 
BRANCH  25  26
ATOM     26  C   UNL     1       2.468   4.944  -8.488  0.00  0.00    +0.120 C 
BRANCH  26  27
ATOM     27  N   UNL     1       2.496   6.312  -8.943  0.00  0.00    -0.270 NA
BRANCH  27  28
ATOM     28  C   UNL     1       1.260   6.695  -9.586  0.00  0.00    +0.072 C 
ATOM     29  C   UNL     1       0.415   5.487  -9.884  0.00  0.00    +0.019 C 
ENDBRANCH  27  28
BRANCH  27  30
ATOM     30  C   UNL     1       3.662   6.624  -9.732  0.00  0.00    +0.072 C 
ATOM     31  C   UNL     1       4.083   5.459 -10.591  0.00  0.00    +0.019 C 
ENDBRANCH  27  30
ENDBRANCH  26  27
ENDBRANCH  25  26
ENDBRANCH  24  25
ENDBRANCH   5  24
TORSDOF 11
ENDMDL
MODEL 8
REMARK VINA RESULT:      -7.0      3.312      8.350
REMARK  Name = 
REMARK  11 active torsions:
REMARK  status: ('A' for Active; 'I' for Inactive)
REMARK    1  A    between atoms: C_2  and  C_3
REMARK    2  A    between atoms: C_3  and  C_4
REMARK    3  A    between atoms: C_4  and  C_5
REMARK    4  A    between atoms: C_13  and  C_14
REMARK    5  A    between atoms: C_14  and  C_16
REMARK    6  A    between atoms: C_20  and  O_21
REMARK    7  A    between atoms: O_21  and  C_22
REMARK    8  A    between atoms: C_22  and  C_23
REMARK    9  A    between atoms: C_23  and  N_24
REMARK   10  A    between atoms: N_24  and  C_25
REMARK   11  A    between atoms: N_24  and  C_27
REMARK                            x       y       z     vdW  Elec       q    Type
REMARK                         _______ _______ _______ _____ _____    ______ ____
ROOT
ATOM      1  C   UNL     1       0.934   5.769  -7.827  0.00  0.00    +0.040 A 
ATOM      2  C   UNL     1       2.241   6.190  -7.611  0.00  0.00    +0.012 A 
ATOM      3  C   UNL     1       3.113   6.082  -8.686  0.00  0.00    +0.064 A 
ATOM      4  I   UNL     1       5.136   5.514  -8.422  0.00  0.00    -0.039 I 
ATOM      5  C   UNL     1       2.559   6.231  -9.952  0.00  0.00    +0.149 A 
ATOM      6  C   UNL     1       1.224   5.934 -10.193  0.00  0.00    +0.064 A 
ATOM      7  I   UNL     1       0.551   5.308 -12.096  0.00  0.00    -0.039 I 
ATOM      8  C   UNL     1       0.398   5.705  -9.100  0.00  0.00    +0.012 A 
ENDROOT
BRANCH   1   9
ATOM      9  C   UNL     1       0.066   5.456  -6.684  0.00  0.00    +0.198 C 
ATOM     10  O   UNL     1      -0.963   4.770  -6.963  0.00  0.00    -0.286 OA
BRANCH   9  12
ATOM     11  C   UNL     1       0.009   6.711  -4.498  0.00  0.00    +0.126 A 
ATOM     12  C   UNL     1       0.473   5.688  -5.315  0.00  0.00    +0.072 A 
ATOM     13  C   UNL     1       1.639   5.229  -4.712  0.00  0.00    +0.040 A 
ATOM     14  C   UNL     1       1.496   5.601  -3.384  0.00  0.00    +0.145 A 
ATOM     15  C   UNL     1       2.562   5.278  -2.556  0.00  0.00    +0.037 A 
ATOM     16  C   UNL     1       3.822   5.073  -3.099  0.00  0.00    +0.003 A 
ATOM     17  C   UNL     1       3.949   4.665  -4.408  0.00  0.00    +0.000 A 
ATOM     18  C   UNL     1       2.803   4.643  -5.181  0.00  0.00    +0.003 A 
ATOM     19  O   UNL     1       0.515   6.477  -3.317  0.00  0.00    -0.458 OA
BRANCH  11  20
ATOM     20  C   UNL     1      -0.981   7.747  -4.918  0.00  0.00    +0.065 C 
BRANCH  20  21
ATOM     21  C   UNL     1      -2.363   7.173  -4.774  0.00  0.00    +0.008 C 
BRANCH  21  23
ATOM     22  C   UNL     1      -3.247   5.674  -3.081  0.00  0.00    +0.000 C 
ATOM     23  C   UNL     1      -2.696   7.076  -3.289  0.00  0.00    +0.000 C 
ENDBRANCH  21  23
ENDBRANCH  20  21
ENDBRANCH  11  20
ENDBRANCH   9  12
ENDBRANCH   1   9
BRANCH   5  24
ATOM     24  O   UNL     1       3.418   6.415 -11.027  0.00  0.00    -0.473 OA
BRANCH  24  25
ATOM     25  C   UNL     1       4.058   5.288 -11.615  0.00  0.00    +0.223 C 
BRANCH  25  26
ATOM     26  C   UNL     1       4.968   5.763 -12.713  0.00  0.00    +0.120 C 
BRANCH  26  27
ATOM     27  N   UNL     1       6.250   6.082 -12.135  0.00  0.00    -0.270 NA
BRANCH  27  28
ATOM     28  C   UNL     1       6.667   7.429 -12.450  0.00  0.00    +0.072 C 
ATOM     29  C   UNL     1       6.412   8.354 -11.292  0.00  0.00    +0.019 C 
ENDBRANCH  27  28
BRANCH  27  30
ATOM     30  C   UNL     1       7.262   5.097 -12.421  0.00  0.00    +0.072 C 
ATOM     31  C   UNL     1       8.651   5.665 -12.280  0.00  0.00    +0.019 C 
ENDBRANCH  27  30
ENDBRANCH  26  27
ENDBRANCH  25  26
ENDBRANCH  24  25
ENDBRANCH   5  24
TORSDOF 11
ENDMDL
MODEL 9
REMARK VINA RESULT:      -6.9      1.247      4.091
REMARK  Name = 
REMARK  11 active torsions:
REMARK  status: ('A' for Active; 'I' for Inactive)
REMARK    1  A    between atoms: C_2  and  C_3
REMARK    2  A    between atoms: C_3  and  C_4
REMARK    3  A    between atoms: C_4  and  C_5
REMARK    4  A    between atoms: C_13  and  C_14
REMARK    5  A    between atoms: C_14  and  C_16
REMARK    6  A    between atoms: C_20  and  O_21
REMARK    7  A    between atoms: O_21  and  C_22
REMARK    8  A    between atoms: C_22  and  C_23
REMARK    9  A    between atoms: C_23  and  N_24
REMARK   10  A    between atoms: N_24  and  C_25
REMARK   11  A    between atoms: N_24  and  C_27
REMARK                            x       y       z     vdW  Elec       q    Type
REMARK                         _______ _______ _______ _____ _____    ______ ____
ROOT
ATOM      1  C   UNL     1       2.236   5.303  -7.649  0.00  0.00    +0.040 A 
ATOM      2  C   UNL     1       0.963   5.859  -7.603  0.00  0.00    +0.012 A 
ATOM      3  C   UNL     1       0.405   6.025  -6.342  0.00  0.00    +0.064 A 
ATOM      4  I   UNL     1      -1.657   5.700  -5.990  0.00  0.00    -0.039 I 
ATOM      5  C   UNL     1       1.290   6.281  -5.300  0.00  0.00    +0.149 A 
ATOM      6  C   UNL     1       2.608   5.846  -5.352  0.00  0.00    +0.064 A 
ATOM      7  I   UNL     1       3.706   5.419  -3.598  0.00  0.00    -0.039 I 
ATOM      8  C   UNL     1       3.086   5.353  -6.559  0.00  0.00    +0.012 A 
ENDROOT
BRANCH   1   9
ATOM      9  C   UNL     1       2.734   4.716  -8.900  0.00  0.00    +0.198 C 
ATOM     10  O   UNL     1       2.959   3.468  -8.855  0.00  0.00    -0.286 OA
BRANCH   9  12
ATOM     11  C   UNL     1       3.799   6.152 -10.678  0.00  0.00    +0.126 A 
ATOM     12  C   UNL     1       2.728   5.440 -10.153  0.00  0.00    +0.072 A 
ATOM     13  C   UNL     1       1.606   5.892 -10.838  0.00  0.00    +0.040 A 
ATOM     14  C   UNL     1       2.121   6.397 -12.024  0.00  0.00    +0.145 A 
ATOM     15  C   UNL     1       1.189   6.949 -12.891  0.00  0.00    +0.037 A 
ATOM     16  C   UNL     1      -0.028   7.401 -12.403  0.00  0.00    +0.003 A 
ATOM     17  C   UNL     1      -0.547   6.863 -11.245  0.00  0.00    +0.000 A 
ATOM     18  C   UNL     1       0.262   6.007 -10.523  0.00  0.00    +0.003 A 
ATOM     19  O   UNL     1       3.422   6.527 -11.871  0.00  0.00    -0.458 OA
BRANCH  11  20
ATOM     20  C   UNL     1       5.129   6.293 -10.015  0.00  0.00    +0.065 C 
BRANCH  20  21
ATOM     21  C   UNL     1       5.936   7.310 -10.773  0.00  0.00    +0.008 C 
BRANCH  21  23
ATOM     22  C   UNL     1       7.711   5.876 -11.602  0.00  0.00    +0.000 C 
ATOM     23  C   UNL     1       7.415   6.982 -10.601  0.00  0.00    +0.000 C 
ENDBRANCH  21  23
ENDBRANCH  20  21
ENDBRANCH  11  20
ENDBRANCH   9  12
ENDBRANCH   1   9
BRANCH   5  24
ATOM     24  O   UNL     1       0.770   6.732  -4.095  0.00  0.00    -0.473 OA
BRANCH  24  25
ATOM     25  C   UNL     1       0.120   5.813  -3.223  0.00  0.00    +0.223 C 
BRANCH  25  26
ATOM     26  C   UNL     1       0.149   6.366  -1.825  0.00  0.00    +0.120 C 
BRANCH  26  27
ATOM     27  N   UNL     1      -1.208   6.620  -1.409  0.00  0.00    -0.270 NA
BRANCH  27  28
ATOM     28  C   UNL     1      -1.325   6.720   0.028  0.00  0.00    +0.072 C 
ATOM     29  C   UNL     1      -1.732   8.109   0.436  0.00  0.00    +0.019 C 
ENDBRANCH  27  28
BRANCH  27  30
ATOM     30  C   UNL     1      -2.160   5.705  -1.989  0.00  0.00    +0.072 C 
ATOM     31  C   UNL     1      -3.398   6.418  -2.470  0.00  0.00    +0.019 C 
ENDBRANCH  27  30
ENDBRANCH  26  27
ENDBRANCH  25  26
ENDBRANCH  24  25
ENDBRANCH   5  24
TORSDOF 11
ENDMDL
