MODEL 1
REMARK VINA RESULT:      -5.2      0.000      0.000
REMARK  Name = 
REMARK  7 active torsions:
REMARK  status: ('A' for Active; 'I' for Inactive)
REMARK    1  A    between atoms: S_2  and  O_5
REMARK    2  A    between atoms: O_5  and  C_6
REMARK    3  A    between atoms: C_6  and  C_7
REMARK    4  A    between atoms: C_7  and  C_8
REMARK    5  A    between atoms: C_8  and  C_9
REMARK    6  A    between atoms: C_9  and  O_10
REMARK    7  A    between atoms: O_10  and  S_11
REMARK                            x       y       z     vdW  Elec       q    Type
REMARK                         _______ _______ _______ _____ _____    ______ ____
ROOT
ATOM      1  C   UNL     1      -1.523   6.290  -6.130  0.00  0.00    +0.037 C 
ENDROOT
BRANCH   1   2
ATOM      2  C   UNL     1      -2.007   5.617  -4.872  0.00  0.00    +0.174 C 
BRANCH   2   3
ATOM      3  O   UNL     1      -0.944   5.661  -3.958  0.00  0.00    -0.224 OA
BRANCH   3   5
ATOM      4  C   UNL     1      -2.028   7.232  -1.879  0.00  0.00    +0.210 C 
ATOM      5  S   UNL     1      -1.638   5.587  -2.419  0.00  0.00    +0.096 S 
ATOM      6  O   UNL     1      -0.611   4.970  -1.499  0.00  0.00    -0.146 OA
ATOM      7  O   UNL     1      -2.869   4.738  -2.532  0.00  0.00    -0.146 OA
ENDBRANCH   3   5
ENDBRANCH   2   3
ENDBRANCH   1   2
BRANCH   1   8
ATOM      8  C   UNL     1      -0.969   5.306  -7.112  0.00  0.00    +0.037 C 
BRANCH   8   9
ATOM      9  C   UNL     1       0.520   5.388  -7.286  0.00  0.00    +0.174 C 
BRANCH   9  10
ATOM     10  O   UNL     1       1.021   6.430  -6.489  0.00  0.00    -0.224 OA
BRANCH  10  11
ATOM     11  S   UNL     1       2.406   7.106  -7.129  0.00  0.00    +0.096 S 
ATOM     12  O   UNL     1       2.089   8.366  -7.897  0.00  0.00    -0.146 OA
ATOM     13  O   UNL     1       3.414   7.482  -6.095  0.00  0.00    -0.146 OA
ATOM     14  C   UNL     1       3.217   5.969  -8.243  0.00  0.00    +0.210 C 
ENDBRANCH  10  11
ENDBRANCH   9  10
ENDBRANCH   8   9
ENDBRANCH   1   8
TORSDOF 7
ENDMDL
MODEL 2
REMARK VINA RESULT:      -5.1      4.627      9.140
REMARK  Name = 
REMARK  7 active torsions:
REMARK  status: ('A' for Active; 'I' for Inactive)
REMARK    1  A    between atoms: S_2  and  O_5
REMARK    2  A    between atoms: O_5  and  C_6
REMARK    3  A    between atoms: C_6  and  C_7
REMARK    4  A    between atoms: C_7  and  C_8
REMARK    5  A    between atoms: C_8  and  C_9
REMARK    6  A    between atoms: C_9  and  O_10
REMARK    7  A    between atoms: O_10  and  S_11
REMARK                            x       y       z     vdW  Elec       q    Type
REMARK                         _______ _______ _______ _____ _____    ______ ____
ROOT
ATOM      1  C   UNL     1       6.827   5.815  -9.295  0.00  0.00    +0.037 C 
ENDROOT
BRANCH   1   2
ATOM      2  C   UNL     1       7.003   6.317 -10.705  0.00  0.00    +0.174 C 
BRANCH   2   3
ATOM      3  O   UNL     1       5.815   6.019 -11.388  0.00  0.00    -0.224 OA
BRANCH   3   5
ATOM      4  C   UNL     1       6.527   6.864 -13.984  0.00  0.00    +0.210 C 
ATOM      5  S   UNL     1       6.272   5.468 -12.919  0.00  0.00    +0.096 S 
ATOM      6  O   UNL     1       5.139   4.618 -13.441  0.00  0.00    -0.146 OA
ATOM      7  O   UNL     1       7.531   4.673 -12.741  0.00  0.00    -0.146 OA
ENDBRANCH   3   5
ENDBRANCH   2   3
ENDBRANCH   1   2
BRANCH   1   8
ATOM      8  C   UNL     1       5.507   5.138  -9.103  0.00  0.00    +0.037 C 
BRANCH   8   9
ATOM      9  C   UNL     1       4.672   5.729  -8.004  0.00  0.00    +0.174 C 
BRANCH   9  10
ATOM     10  O   UNL     1       3.537   6.339  -8.563  0.00  0.00    -0.224 OA
BRANCH  10  11
ATOM     11  S   UNL     1       2.612   7.124  -7.418  0.00  0.00    +0.096 S 
ATOM     12  O   UNL     1       3.410   7.388  -6.164  0.00  0.00    -0.146 OA
ATOM     13  O   UNL     1       2.094   8.445  -7.878  0.00  0.00    -0.146 OA
ATOM     14  C   UNL     1       1.187   6.145  -6.967  0.00  0.00    +0.210 C 
ENDBRANCH  10  11
ENDBRANCH   9  10
ENDBRANCH   8   9
ENDBRANCH   1   8
TORSDOF 7
ENDMDL
MODEL 3
REMARK VINA RESULT:      -5.0      1.797      5.877
REMARK  Name = 
REMARK  7 active torsions:
REMARK  status: ('A' for Active; 'I' for Inactive)
REMARK    1  A    between atoms: S_2  and  O_5
REMARK    2  A    between atoms: O_5  and  C_6
REMARK    3  A    between atoms: C_6  and  C_7
REMARK    4  A    between atoms: C_7  and  C_8
REMARK    5  A    between atoms: C_8  and  C_9
REMARK    6  A    between atoms: C_9  and  O_10
REMARK    7  A    between atoms: O_10  and  S_11
REMARK                            x       y       z     vdW  Elec       q    Type
REMARK                         _______ _______ _______ _____ _____    ______ ____
ROOT
ATOM      1  C   UNL     1      -1.023   5.285  -7.253  0.00  0.00    +0.037 C 
ENDROOT
BRANCH   1   2
ATOM      2  C   UNL     1       0.397   5.788  -7.290  0.00  0.00    +0.174 C 
BRANCH   2   3
ATOM      3  O   UNL     1       1.047   5.082  -8.313  0.00  0.00    -0.224 OA
BRANCH   3   5
ATOM      4  C   UNL     1       3.495   5.752  -7.080  0.00  0.00    +0.210 C 
ATOM      5  S   UNL     1       2.446   4.429  -7.625  0.00  0.00    +0.096 S 
ATOM      6  O   UNL     1       3.138   3.629  -8.703  0.00  0.00    -0.146 OA
ATOM      7  O   UNL     1       2.010   3.564  -6.481  0.00  0.00    -0.146 OA
ENDBRANCH   3   5
ENDBRANCH   2   3
ENDBRANCH   1   2
BRANCH   1   8
ATOM      8  C   UNL     1      -1.745   5.742  -6.025  0.00  0.00    +0.037 C 
BRANCH   8   9
ATOM      9  C   UNL     1      -0.847   6.307  -4.962  0.00  0.00    +0.174 C 
BRANCH   9  10
ATOM     10  O   UNL     1      -0.615   5.325  -3.985  0.00  0.00    -0.224 OA
BRANCH  10  11
ATOM     11  S   UNL     1      -1.582   5.530  -2.641  0.00  0.00    +0.096 S 
ATOM     12  O   UNL     1      -2.812   4.660  -2.721  0.00  0.00    -0.146 OA
ATOM     13  O   UNL     1      -0.898   5.182  -1.361  0.00  0.00    -0.146 OA
ATOM     14  C   UNL     1      -2.116   7.228  -2.489  0.00  0.00    +0.210 C 
ENDBRANCH  10  11
ENDBRANCH   9  10
ENDBRANCH   8   9
ENDBRANCH   1   8
TORSDOF 7
ENDMDL
MODEL 4
REMARK VINA RESULT:      -5.0      1.584      5.883
REMARK  Name = 
REMARK  7 active torsions:
REMARK  status: ('A' for Active; 'I' for Inactive)
REMARK    1  A    between atoms: S_2  and  O_5
REMARK    2  A    between atoms: O_5  and  C_6
REMARK    3  A    between atoms: C_6  and  C_7
REMARK    4  A    between atoms: C_7  and  C_8
REMARK    5  A    between atoms: C_8  and  C_9
REMARK    6  A    between atoms: C_9  and  O_10
REMARK    7  A    between atoms: O_10  and  S_11
REMARK                            x       y       z     vdW  Elec       q    Type
REMARK                         _______ _______ _______ _____ _____    ______ ____
ROOT
ATOM      1  C   UNL     1      -1.052   5.217  -7.096  0.00  0.00    +0.037 C 
ENDROOT
BRANCH   1   2
ATOM      2  C   UNL     1       0.276   5.801  -6.687  0.00  0.00    +0.174 C 
BRANCH   2   3
ATOM      3  O   UNL     1       0.954   6.126  -7.872  0.00  0.00    -0.224 OA
BRANCH   3   5
ATOM      4  C   UNL     1       2.516   6.883  -5.647  0.00  0.00    +0.210 C 
ATOM      5  S   UNL     1       2.332   6.986  -7.409  0.00  0.00    +0.096 S 
ATOM      6  O   UNL     1       2.119   8.422  -7.825  0.00  0.00    -0.146 OA
ATOM      7  O   UNL     1       3.497   6.365  -8.122  0.00  0.00    -0.146 OA
ENDBRANCH   3   5
ENDBRANCH   2   3
ENDBRANCH   1   2
BRANCH   1   8
ATOM      8  C   UNL     1      -2.184   5.797  -6.309  0.00  0.00    +0.037 C 
BRANCH   8   9
ATOM      9  C   UNL     1      -1.753   6.743  -5.226  0.00  0.00    +0.174 C 
BRANCH   9  10
ATOM     10  O   UNL     1      -2.750   6.799  -4.239  0.00  0.00    -0.224 OA
BRANCH  10  11
ATOM     11  S   UNL     1      -2.291   6.028  -2.832  0.00  0.00    +0.096 S 
ATOM     12  O   UNL     1      -2.769   6.787  -1.618  0.00  0.00    -0.146 OA
ATOM     13  O   UNL     1      -2.836   4.644  -2.710  0.00  0.00    -0.146 OA
ATOM     14  C   UNL     1      -0.513   5.888  -2.730  0.00  0.00    +0.210 C 
ENDBRANCH  10  11
ENDBRANCH   9  10
ENDBRANCH   8   9
ENDBRANCH   1   8
TORSDOF 7
ENDMDL
MODEL 5
REMARK VINA RESULT:      -5.0      1.284      6.329
REMARK  Name = 
REMARK  7 active torsions:
REMARK  status: ('A' for Active; 'I' for Inactive)
REMARK    1  A    between atoms: S_2  and  O_5
REMARK    2  A    between atoms: O_5  and  C_6
REMARK    3  A    between atoms: C_6  and  C_7
REMARK    4  A    between atoms: C_7  and  C_8
REMARK    5  A    between atoms: C_8  and  C_9
REMARK    6  A    between atoms: C_9  and  O_10
REMARK    7  A    between atoms: O_10  and  S_11
REMARK                            x       y       z     vdW  Elec       q    Type
REMARK                         _______ _______ _______ _____ _____    ______ ____
ROOT
ATOM      1  C   UNL     1      -0.838   5.263  -7.197  0.00  0.00    +0.037 C 
ENDROOT
BRANCH   1   2
ATOM      2  C   UNL     1       0.523   5.911  -7.179  0.00  0.00    +0.174 C 
BRANCH   2   3
ATOM      3  O   UNL     1       1.209   5.436  -8.306  0.00  0.00    -0.224 OA
BRANCH   3   5
ATOM      4  C   UNL     1       3.359   6.426  -9.843  0.00  0.00    +0.210 C 
ATOM      5  S   UNL     1       1.781   6.801  -9.123  0.00  0.00    +0.096 S 
ATOM      6  O   UNL     1       1.927   7.901  -8.099  0.00  0.00    -0.146 OA
ATOM      7  O   UNL     1       0.765   7.145 -10.170  0.00  0.00    -0.146 OA
ENDBRANCH   3   5
ENDBRANCH   2   3
ENDBRANCH   1   2
BRANCH   1   8
ATOM      8  C   UNL     1      -1.759   5.868  -6.186  0.00  0.00    +0.037 C 
BRANCH   8   9
ATOM      9  C   UNL     1      -1.058   6.460  -4.997  0.00  0.00    +0.174 C 
BRANCH   9  10
ATOM     10  O   UNL     1      -0.767   5.438  -4.078  0.00  0.00    -0.224 OA
BRANCH  10  11
ATOM     11  S   UNL     1      -1.686   5.555  -2.691  0.00  0.00    +0.096 S 
ATOM     12  O   UNL     1      -2.908   4.673  -2.775  0.00  0.00    -0.146 OA
ATOM     13  O   UNL     1      -0.951   5.147  -1.458  0.00  0.00    -0.146 OA
ATOM     14  C   UNL     1      -2.235   7.234  -2.426  0.00  0.00    +0.210 C 
ENDBRANCH  10  11
ENDBRANCH   9  10
ENDBRANCH   8   9
ENDBRANCH   1   8
TORSDOF 7
ENDMDL
MODEL 6
REMARK VINA RESULT:      -4.9      4.748      7.221
REMARK  Name = 
REMARK  7 active torsions:
REMARK  status: ('A' for Active; 'I' for Inactive)
REMARK    1  A    between atoms: S_2  and  O_5
REMARK    2  A    between atoms: O_5  and  C_6
REMARK    3  A    between atoms: C_6  and  C_7
REMARK    4  A    between atoms: C_7  and  C_8
REMARK    5  A    between atoms: C_8  and  C_9
REMARK    6  A    between atoms: C_9  and  O_10
REMARK    7  A    between atoms: O_10  and  S_11
REMARK                            x       y       z     vdW  Elec       q    Type
REMARK                         _______ _______ _______ _____ _____    ______ ____
ROOT
ATOM      1  C   UNL     1       3.797   5.383 -10.309  0.00  0.00    +0.037 C 
ENDROOT
BRANCH   1   2
ATOM      2  C   UNL     1       3.017   5.483  -9.024  0.00  0.00    +0.174 C 
BRANCH   2   3
ATOM      3  O   UNL     1       3.763   6.304  -8.165  0.00  0.00    -0.224 OA
BRANCH   3   5
ATOM      4  C   UNL     1       1.273   6.014  -6.869  0.00  0.00    +0.210 C 
ATOM      5  S   UNL     1       2.645   7.096  -7.176  0.00  0.00    +0.096 S 
ATOM      6  O   UNL     1       2.180   8.322  -7.925  0.00  0.00    -0.146 OA
ATOM      7  O   UNL     1       3.359   7.455  -5.906  0.00  0.00    -0.146 OA
ENDBRANCH   3   5
ENDBRANCH   2   3
ENDBRANCH   1   2
BRANCH   1   8
ATOM      8  C   UNL     1       4.661   6.583 -10.534  0.00  0.00    +0.037 C 
BRANCH   8   9
ATOM      9  C   UNL     1       6.087   6.255 -10.872  0.00  0.00    +0.174 C 
BRANCH   9  10
ATOM     10  O   UNL     1       6.398   6.793 -12.131  0.00  0.00    -0.224 OA
BRANCH  10  11
ATOM     11  S   UNL     1       6.561   5.614 -13.300  0.00  0.00    +0.096 S 
ATOM     12  O   UNL     1       7.700   4.680 -12.973  0.00  0.00    -0.146 OA
ATOM     13  O   UNL     1       5.346   4.763 -13.458  0.00  0.00    -0.146 OA
ATOM     14  C   UNL     1       6.886   6.340 -14.900  0.00  0.00    +0.210 C 
ENDBRANCH  10  11
ENDBRANCH   9  10
ENDBRANCH   8   9
ENDBRANCH   1   8
TORSDOF 7
ENDMDL
MODEL 7
REMARK VINA RESULT:      -4.8      1.699      2.021
REMARK  Name = 
REMARK  7 active torsions:
REMARK  status: ('A' for Active; 'I' for Inactive)
REMARK    1  A    between atoms: S_2  and  O_5
REMARK    2  A    between atoms: O_5  and  C_6
REMARK    3  A    between atoms: C_6  and  C_7
REMARK    4  A    between atoms: C_7  and  C_8
REMARK    5  A    between atoms: C_8  and  C_9
REMARK    6  A    between atoms: C_9  and  O_10
REMARK    7  A    between atoms: O_10  and  S_11
REMARK                            x       y       z     vdW  Elec       q    Type
REMARK                         _______ _______ _______ _____ _____    ______ ____
ROOT
ATOM      1  C   UNL     1      -2.261   6.960  -5.423  0.00  0.00    +0.037 C 
ENDROOT
BRANCH   1   2
ATOM      2  C   UNL     1      -2.713   6.593  -4.033  0.00  0.00    +0.174 C 
BRANCH   2   3
ATOM      3  O   UNL     1      -1.652   6.904  -3.170  0.00  0.00    -0.224 OA
BRANCH   3   5
ATOM      4  C   UNL     1      -1.623   6.278  -0.418  0.00  0.00    +0.210 C 
ATOM      5  S   UNL     1      -1.547   5.627  -2.067  0.00  0.00    +0.096 S 
ATOM      6  O   UNL     1      -0.217   4.951  -2.297  0.00  0.00    -0.146 OA
ATOM      7  O   UNL     1      -2.697   4.707  -2.350  0.00  0.00    -0.146 OA
ENDBRANCH   3   5
ENDBRANCH   2   3
ENDBRANCH   1   2
BRANCH   1   8
ATOM      8  C   UNL     1      -1.853   5.758  -6.214  0.00  0.00    +0.037 C 
BRANCH   8   9
ATOM      9  C   UNL     1      -0.437   5.320  -5.974  0.00  0.00    +0.174 C 
BRANCH   9  10
ATOM     10  O   UNL     1       0.214   5.171  -7.209  0.00  0.00    -0.224 OA
BRANCH  10  11
ATOM     11  S   UNL     1       1.778   4.614  -7.037  0.00  0.00    +0.096 S 
ATOM     12  O   UNL     1       2.656   5.656  -6.388  0.00  0.00    -0.146 OA
ATOM     13  O   UNL     1       1.880   3.387  -6.193  0.00  0.00    -0.146 OA
ATOM     14  C   UNL     1       2.490   4.204  -8.623  0.00  0.00    +0.210 C 
ENDBRANCH  10  11
ENDBRANCH   9  10
ENDBRANCH   8   9
ENDBRANCH   1   8
TORSDOF 7
ENDMDL
MODEL 8
REMARK VINA RESULT:      -4.6      4.491      6.714
REMARK  Name = 
REMARK  7 active torsions:
REMARK  status: ('A' for Active; 'I' for Inactive)
REMARK    1  A    between atoms: S_2  and  O_5
REMARK    2  A    between atoms: O_5  and  C_6
REMARK    3  A    between atoms: C_6  and  C_7
REMARK    4  A    between atoms: C_7  and  C_8
REMARK    5  A    between atoms: C_8  and  C_9
REMARK    6  A    between atoms: C_9  and  O_10
REMARK    7  A    between atoms: O_10  and  S_11
REMARK                            x       y       z     vdW  Elec       q    Type
REMARK                         _______ _______ _______ _____ _____    ______ ____
ROOT
ATOM      1  C   UNL     1       4.782   5.184  -8.533  0.00  0.00    +0.037 C 
ENDROOT
BRANCH   1   2
ATOM      2  C   UNL     1       3.738   5.236  -7.447  0.00  0.00    +0.174 C 
BRANCH   2   3
ATOM      3  O   UNL     1       4.396   5.644  -6.277  0.00  0.00    -0.224 OA
BRANCH   3   5
ATOM      4  C   UNL     1       2.198   6.228  -4.605  0.00  0.00    +0.210 C 
ATOM      5  S   UNL     1       3.476   6.907  -5.632  0.00  0.00    +0.096 S 
ATOM      6  O   UNL     1       2.866   7.651  -6.796  0.00  0.00    -0.146 OA
ATOM      7  O   UNL     1       4.413   7.774  -4.844  0.00  0.00    -0.146 OA
ENDBRANCH   3   5
ENDBRANCH   2   3
ENDBRANCH   1   2
BRANCH   1   8
ATOM      8  C   UNL     1       4.168   5.118  -9.895  0.00  0.00    +0.037 C 
BRANCH   8   9
ATOM      9  C   UNL     1       4.823   6.015 -10.905  0.00  0.00    +0.174 C 
BRANCH   9  10
ATOM     10  O   UNL     1       5.396   5.229 -11.918  0.00  0.00    -0.224 OA
BRANCH  10  11
ATOM     11  S   UNL     1       6.930   5.741 -12.326  0.00  0.00    +0.096 S 
ATOM     12  O   UNL     1       7.791   4.581 -12.762  0.00  0.00    -0.146 OA
ATOM     13  O   UNL     1       6.948   6.727 -13.446  0.00  0.00    -0.146 OA
ATOM     14  C   UNL     1       7.731   6.531 -10.938  0.00  0.00    +0.210 C 
ENDBRANCH  10  11
ENDBRANCH   9  10
ENDBRANCH   8   9
ENDBRANCH   1   8
TORSDOF 7
ENDMDL
MODEL 9
REMARK VINA RESULT:      -4.6      1.679      6.490
REMARK  Name = 
REMARK  7 active torsions:
REMARK  status: ('A' for Active; 'I' for Inactive)
REMARK    1  A    between atoms: S_2  and  O_5
REMARK    2  A    between atoms: O_5  and  C_6
REMARK    3  A    between atoms: C_6  and  C_7
REMARK    4  A    between atoms: C_7  and  C_8
REMARK    5  A    between atoms: C_8  and  C_9
REMARK    6  A    between atoms: C_9  and  O_10
REMARK    7  A    between atoms: O_10  and  S_11
REMARK                            x       y       z     vdW  Elec       q    Type
REMARK                         _______ _______ _______ _____ _____    ______ ____
ROOT
ATOM      1  C   UNL     1       2.058   4.434  -5.821  0.00  0.00    +0.037 C 
ENDROOT
BRANCH   1   2
ATOM      2  C   UNL     1       2.396   4.478  -7.289  0.00  0.00    +0.174 C 
BRANCH   2   3
ATOM      3  O   UNL     1       1.486   5.365  -7.884  0.00  0.00    -0.224 OA
BRANCH   3   5
ATOM      4  C   UNL     1       2.122   6.281 -10.476  0.00  0.00    +0.210 C 
ATOM      5  S   UNL     1       2.412   6.491  -8.738  0.00  0.00    +0.096 S 
ATOM      6  O   UNL     1       3.860   6.209  -8.417  0.00  0.00    -0.146 OA
ATOM      7  O   UNL     1       1.991   7.852  -8.270  0.00  0.00    -0.146 OA
ENDBRANCH   3   5
ENDBRANCH   2   3
ENDBRANCH   1   2
BRANCH   1   8
ATOM      8  C   UNL     1       0.626   4.785  -5.566  0.00  0.00    +0.037 C 
BRANCH   8   9
ATOM      9  C   UNL     1       0.380   5.415  -4.226  0.00  0.00    +0.174 C 
BRANCH   9  10
ATOM     10  O   UNL     1      -0.962   5.821  -4.146  0.00  0.00    -0.224 OA
BRANCH  10  11
ATOM     11  S   UNL     1      -1.610   5.572  -2.630  0.00  0.00    +0.096 S 
ATOM     12  O   UNL     1      -2.818   4.669  -2.699  0.00  0.00    -0.146 OA
ATOM     13  O   UNL     1      -0.657   4.934  -1.675  0.00  0.00    -0.146 OA
ATOM     14  C   UNL     1      -2.118   7.116  -1.889  0.00  0.00    +0.210 C 
ENDBRANCH  10  11
ENDBRANCH   9  10
ENDBRANCH   8   9
ENDBRANCH   1   8
TORSDOF 7
ENDMDL
