MODEL 1
REMARK VINA RESULT:      -4.7      0.000      0.000
REMARK  Name = 
REMARK  5 active torsions:
REMARK  status: ('A' for Active; 'I' for Inactive)
REMARK    1  A    between atoms: C_2  and  C_4
REMARK    2  A    between atoms: C_4  and  C_5
REMARK    3  A    between atoms: C_5  and  C_7
REMARK    4  A    between atoms: C_5  and  C_11
REMARK    5  A    between atoms: C_7  and  C_8
REMARK                            x       y       z     vdW  Elec       q    Type
REMARK                         _______ _______ _______ _____ _____    ______ ____
ROOT
ATOM      1  C   UNL     1       0.231   6.151  -5.985  0.00  0.00    +0.240 C 
ATOM      2  O   UNL     1       0.398   7.230  -5.148  0.00  0.00    -0.213 OA
ENDROOT
BRANCH   1   3
ATOM      3  C   UNL     1       0.782   4.953  -5.273  0.00  0.00    +0.393 C 
ATOM      4  O   UNL     1       1.163   5.009  -3.944  0.00  0.00    -0.243 OA
ATOM      5  O   UNL     1       1.137   3.913  -5.907  0.00  0.00    -0.243 OA
ENDBRANCH   1   3
BRANCH   1   6
ATOM      6  C   UNL     1       0.984   6.276  -7.281  0.00  0.00    +0.156 C 
BRANCH   6   8
ATOM      7  O   UNL     1       2.087   8.350  -7.878  0.00  0.00    -0.246 OA
ATOM      8  C   UNL     1       2.081   7.260  -7.242  0.00  0.00    +0.368 C 
ATOM      9  O   UNL     1       3.346   6.756  -6.925  0.00  0.00    -0.246 OA
ENDBRANCH   6   8
ENDBRANCH   1   6
BRANCH   1  10
ATOM     10  C   UNL     1      -1.205   5.822  -6.291  0.00  0.00    +0.156 C 
BRANCH  10  11
ATOM     11  C   UNL     1      -2.137   6.235  -5.227  0.00  0.00    +0.368 C 
ATOM     12  O   UNL     1      -2.838   7.423  -5.451  0.00  0.00    -0.246 OA
ATOM     13  O   UNL     1      -2.764   5.351  -4.570  0.00  0.00    -0.246 OA
ENDBRANCH  10  11
ENDBRANCH   1  10
TORSDOF 5
ENDMDL
MODEL 2
REMARK VINA RESULT:      -4.6      1.428      4.184
REMARK  Name = 
REMARK  5 active torsions:
REMARK  status: ('A' for Active; 'I' for Inactive)
REMARK    1  A    between atoms: C_2  and  C_4
REMARK    2  A    between atoms: C_4  and  C_5
REMARK    3  A    between atoms: C_5  and  C_7
REMARK    4  A    between atoms: C_5  and  C_11
REMARK    5  A    between atoms: C_7  and  C_8
REMARK                            x       y       z     vdW  Elec       q    Type
REMARK                         _______ _______ _______ _____ _____    ______ ____
ROOT
ATOM      1  C   UNL     1       0.508   5.591  -7.282  0.00  0.00    +0.240 C 
ATOM      2  O   UNL     1       0.523   5.786  -8.645  0.00  0.00    -0.213 OA
ENDROOT
BRANCH   1   3
ATOM      3  C   UNL     1       1.469   4.481  -6.986  0.00  0.00    +0.393 C 
ATOM      4  O   UNL     1       2.341   3.998  -7.947  0.00  0.00    -0.243 OA
ATOM      5  O   UNL     1       1.371   3.786  -5.930  0.00  0.00    -0.243 OA
ENDBRANCH   1   3
BRANCH   1   6
ATOM      6  C   UNL     1      -0.834   5.163  -6.754  0.00  0.00    +0.156 C 
BRANCH   6   8
ATOM      7  O   UNL     1      -1.063   5.481  -4.362  0.00  0.00    -0.246 OA
ATOM      8  C   UNL     1      -1.258   5.886  -5.542  0.00  0.00    +0.368 C 
ATOM      9  O   UNL     1      -2.342   6.757  -5.694  0.00  0.00    -0.246 OA
ENDBRANCH   6   8
ENDBRANCH   1   6
BRANCH   1  10
ATOM     10  C   UNL     1       0.986   6.773  -6.483  0.00  0.00    +0.156 C 
BRANCH  10  11
ATOM     11  C   UNL     1       2.243   7.352  -6.994  0.00  0.00    +0.368 C 
ATOM     12  O   UNL     1       2.110   8.408  -7.898  0.00  0.00    -0.246 OA
ATOM     13  O   UNL     1       3.254   7.412  -6.233  0.00  0.00    -0.246 OA
ENDBRANCH  10  11
ENDBRANCH   1  10
TORSDOF 5
ENDMDL
MODEL 3
REMARK VINA RESULT:      -4.6      1.807      5.165
REMARK  Name = 
REMARK  5 active torsions:
REMARK  status: ('A' for Active; 'I' for Inactive)
REMARK    1  A    between atoms: C_2  and  C_4
REMARK    2  A    between atoms: C_4  and  C_5
REMARK    3  A    between atoms: C_5  and  C_7
REMARK    4  A    between atoms: C_5  and  C_11
REMARK    5  A    between atoms: C_7  and  C_8
REMARK                            x       y       z     vdW  Elec       q    Type
REMARK                         _______ _______ _______ _____ _____    ______ ____
ROOT
ATOM      1  C   UNL     1      -1.518   6.141  -4.675  0.00  0.00    +0.240 C 
ATOM      2  O   UNL     1      -0.455   6.401  -3.840  0.00  0.00    -0.213 OA
ENDROOT
BRANCH   1   3
ATOM      3  C   UNL     1      -2.107   7.464  -5.061  0.00  0.00    +0.393 C 
ATOM      4  O   UNL     1      -1.667   8.648  -4.497  0.00  0.00    -0.243 OA
ATOM      5  O   UNL     1      -3.177   7.538  -5.738  0.00  0.00    -0.243 OA
ENDBRANCH   1   3
BRANCH   1   6
ATOM      6  C   UNL     1      -2.614   5.347  -4.019  0.00  0.00    +0.156 C 
BRANCH   6   8
ATOM      7  O   UNL     1      -2.515   5.005  -1.621  0.00  0.00    -0.246 OA
ATOM      8  C   UNL     1      -2.855   5.711  -2.611  0.00  0.00    +0.368 C 
ATOM      9  O   UNL     1      -3.929   6.576  -2.376  0.00  0.00    -0.246 OA
ENDBRANCH   6   8
ENDBRANCH   1   6
BRANCH   1  10
ATOM     10  C   UNL     1      -1.140   5.467  -5.966  0.00  0.00    +0.156 C 
BRANCH  10  11
ATOM     11  C   UNL     1       0.317   5.321  -6.142  0.00  0.00    +0.368 C 
ATOM     12  O   UNL     1       0.839   4.048  -5.906  0.00  0.00    -0.246 OA
ATOM     13  O   UNL     1       0.904   5.991  -7.043  0.00  0.00    -0.246 OA
ENDBRANCH  10  11
ENDBRANCH   1  10
TORSDOF 5
ENDMDL
MODEL 4
REMARK VINA RESULT:      -4.5      2.600      4.208
REMARK  Name = 
REMARK  5 active torsions:
REMARK  status: ('A' for Active; 'I' for Inactive)
REMARK    1  A    between atoms: C_2  and  C_4
REMARK    2  A    between atoms: C_4  and  C_5
REMARK    3  A    between atoms: C_5  and  C_7
REMARK    4  A    between atoms: C_5  and  C_11
REMARK    5  A    between atoms: C_7  and  C_8
REMARK                            x       y       z     vdW  Elec       q    Type
REMARK                         _______ _______ _______ _____ _____    ______ ____
ROOT
ATOM      1  C   UNL     1       1.940   4.926  -7.988  0.00  0.00    +0.240 C 
ATOM      2  O   UNL     1       2.348   3.781  -8.634  0.00  0.00    -0.213 OA
ENDROOT
BRANCH   1   3
ATOM      3  C   UNL     1       1.749   4.571  -6.545  0.00  0.00    +0.393 C 
ATOM      4  O   UNL     1       2.793   4.104  -5.765  0.00  0.00    -0.243 OA
ATOM      5  O   UNL     1       0.591   4.463  -6.039  0.00  0.00    -0.243 OA
ENDBRANCH   1   3
BRANCH   1   6
ATOM      6  C   UNL     1       0.625   5.458  -8.487  0.00  0.00    +0.156 C 
BRANCH   6   8
ATOM      7  O   UNL     1       0.629   6.754 -10.536  0.00  0.00    -0.246 OA
ATOM      8  C   UNL     1       0.569   5.638  -9.949  0.00  0.00    +0.368 C 
ATOM      9  O   UNL     1      -0.082   4.628 -10.667  0.00  0.00    -0.246 OA
ENDBRANCH   6   8
ENDBRANCH   1   6
BRANCH   1  10
ATOM     10  C   UNL     1       2.950   6.040  -8.007  0.00  0.00    +0.156 C 
BRANCH  10  11
ATOM     11  C   UNL     1       2.529   7.222  -7.232  0.00  0.00    +0.368 C 
ATOM     12  O   UNL     1       3.227   7.461  -6.046  0.00  0.00    -0.246 OA
ATOM     13  O   UNL     1       2.130   8.257  -7.845  0.00  0.00    -0.246 OA
ENDBRANCH  10  11
ENDBRANCH   1  10
TORSDOF 5
ENDMDL
MODEL 5
REMARK VINA RESULT:      -4.5      5.501      7.652
REMARK  Name = 
REMARK  5 active torsions:
REMARK  status: ('A' for Active; 'I' for Inactive)
REMARK    1  A    between atoms: C_2  and  C_4
REMARK    2  A    between atoms: C_4  and  C_5
REMARK    3  A    between atoms: C_5  and  C_7
REMARK    4  A    between atoms: C_5  and  C_11
REMARK    5  A    between atoms: C_7  and  C_8
REMARK                            x       y       z     vdW  Elec       q    Type
REMARK                         _______ _______ _______ _____ _____    ______ ____
ROOT
ATOM      1  C   UNL     1       5.715   6.334 -10.522  0.00  0.00    +0.240 C 
ATOM      2  O   UNL     1       5.361   7.615 -10.876  0.00  0.00    -0.213 OA
ENDROOT
BRANCH   1   3
ATOM      3  C   UNL     1       7.163   6.368 -10.141  0.00  0.00    +0.393 C 
ATOM      4  O   UNL     1       7.758   5.328  -9.447  0.00  0.00    -0.243 OA
ATOM      5  O   UNL     1       7.845   7.433 -10.231  0.00  0.00    -0.243 OA
ENDBRANCH   1   3
BRANCH   1   6
ATOM      6  C   UNL     1       5.580   5.343 -11.646  0.00  0.00    +0.156 C 
BRANCH   6   8
ATOM      7  O   UNL     1       6.192   6.310 -13.782  0.00  0.00    -0.246 OA
ATOM      8  C   UNL     1       6.484   5.600 -12.781  0.00  0.00    +0.368 C 
ATOM      9  O   UNL     1       7.469   4.634 -13.011  0.00  0.00    -0.246 OA
ENDBRANCH   6   8
ENDBRANCH   1   6
BRANCH   1  10
ATOM     10  C   UNL     1       4.986   5.801  -9.318  0.00  0.00    +0.156 C 
BRANCH  10  11
ATOM     11  C   UNL     1       3.757   5.061  -9.662  0.00  0.00    +0.368 C 
ATOM     12  O   UNL     1       3.555   3.858  -8.982  0.00  0.00    -0.246 OA
ATOM     13  O   UNL     1       2.705   5.705  -9.952  0.00  0.00    -0.246 OA
ENDBRANCH  10  11
ENDBRANCH   1  10
TORSDOF 5
ENDMDL
MODEL 6
REMARK VINA RESULT:      -4.5      1.169      3.936
REMARK  Name = 
REMARK  5 active torsions:
REMARK  status: ('A' for Active; 'I' for Inactive)
REMARK    1  A    between atoms: C_2  and  C_4
REMARK    2  A    between atoms: C_4  and  C_5
REMARK    3  A    between atoms: C_5  and  C_7
REMARK    4  A    between atoms: C_5  and  C_11
REMARK    5  A    between atoms: C_7  and  C_8
REMARK                            x       y       z     vdW  Elec       q    Type
REMARK                         _______ _______ _______ _____ _____    ______ ____
ROOT
ATOM      1  C   UNL     1       0.218   5.864  -6.255  0.00  0.00    +0.240 C 
ATOM      2  O   UNL     1      -1.014   5.348  -6.590  0.00  0.00    -0.213 OA
ENDROOT
BRANCH   1   3
ATOM      3  C   UNL     1       0.956   4.789  -5.516  0.00  0.00    +0.393 C 
ATOM      4  O   UNL     1       1.526   5.019  -4.276  0.00  0.00    -0.243 OA
ATOM      5  O   UNL     1       1.288   3.705  -6.085  0.00  0.00    -0.243 OA
ENDBRANCH   1   3
BRANCH   1   6
ATOM      6  C   UNL     1       0.138   7.053  -5.337  0.00  0.00    +0.156 C 
BRANCH   6   8
ATOM      7  O   UNL     1      -1.938   8.204  -4.846  0.00  0.00    -0.246 OA
ATOM      8  C   UNL     1      -1.171   7.215  -4.680  0.00  0.00    +0.368 C 
ATOM      9  O   UNL     1      -1.337   6.538  -3.467  0.00  0.00    -0.246 OA
ENDBRANCH   6   8
ENDBRANCH   1   6
BRANCH   1  10
ATOM     10  C   UNL     1       1.081   6.220  -7.434  0.00  0.00    +0.156 C 
BRANCH  10  11
ATOM     11  C   UNL     1       2.055   7.288  -7.141  0.00  0.00    +0.368 C 
ATOM     12  O   UNL     1       3.295   6.870  -6.651  0.00  0.00    -0.246 OA
ATOM     13  O   UNL     1       2.080   8.324  -7.869  0.00  0.00    -0.246 OA
ENDBRANCH  10  11
ENDBRANCH   1  10
TORSDOF 5
ENDMDL
MODEL 7
REMARK VINA RESULT:      -4.5      1.283      4.198
REMARK  Name = 
REMARK  5 active torsions:
REMARK  status: ('A' for Active; 'I' for Inactive)
REMARK    1  A    between atoms: C_2  and  C_4
REMARK    2  A    between atoms: C_4  and  C_5
REMARK    3  A    between atoms: C_5  and  C_7
REMARK    4  A    between atoms: C_5  and  C_11
REMARK    5  A    between atoms: C_7  and  C_8
REMARK                            x       y       z     vdW  Elec       q    Type
REMARK                         _______ _______ _______ _____ _____    ______ ____
ROOT
ATOM      1  C   UNL     1       0.223   6.160  -5.746  0.00  0.00    +0.240 C 
ATOM      2  O   UNL     1      -0.024   7.342  -5.086  0.00  0.00    -0.213 OA
ENDROOT
BRANCH   1   3
ATOM      3  C   UNL     1      -1.092   5.663  -6.262  0.00  0.00    +0.393 C 
ATOM      4  O   UNL     1      -2.217   5.610  -5.457  0.00  0.00    -0.243 OA
ATOM      5  O   UNL     1      -1.181   5.059  -7.374  0.00  0.00    -0.243 OA
ENDBRANCH   1   3
BRANCH   1   6
ATOM      6  C   UNL     1       0.782   5.083  -4.857  0.00  0.00    +0.156 C 
BRANCH   6   8
ATOM      7  O   UNL     1       1.833   5.737  -2.773  0.00  0.00    -0.246 OA
ATOM      8  C   UNL     1       0.795   5.437  -3.426  0.00  0.00    +0.368 C 
ATOM      9  O   UNL     1      -0.258   4.928  -2.659  0.00  0.00    -0.246 OA
ENDBRANCH   6   8
ENDBRANCH   1   6
BRANCH   1  10
ATOM     10  C   UNL     1       1.112   6.300  -6.953  0.00  0.00    +0.156 C 
BRANCH  10  11
ATOM     11  C   UNL     1       1.978   7.492  -6.904  0.00  0.00    +0.368 C 
ATOM     12  O   UNL     1       3.166   7.358  -6.182  0.00  0.00    -0.246 OA
ATOM     13  O   UNL     1       2.037   8.259  -7.910  0.00  0.00    -0.246 OA
ENDBRANCH  10  11
ENDBRANCH   1  10
TORSDOF 5
ENDMDL
MODEL 8
REMARK VINA RESULT:      -4.5      2.569      4.969
REMARK  Name = 
REMARK  5 active torsions:
REMARK  status: ('A' for Active; 'I' for Inactive)
REMARK    1  A    between atoms: C_2  and  C_4
REMARK    2  A    between atoms: C_4  and  C_5
REMARK    3  A    between atoms: C_5  and  C_7
REMARK    4  A    between atoms: C_5  and  C_11
REMARK    5  A    between atoms: C_7  and  C_8
REMARK                            x       y       z     vdW  Elec       q    Type
REMARK                         _______ _______ _______ _____ _____    ______ ____
ROOT
ATOM      1  C   UNL     1       2.670   4.825  -7.661  0.00  0.00    +0.240 C 
ATOM      2  O   UNL     1       2.702   3.760  -8.531  0.00  0.00    -0.213 OA
ENDROOT
BRANCH   1   3
ATOM      3  C   UNL     1       2.345   4.275  -6.306  0.00  0.00    +0.393 C 
ATOM      4  O   UNL     1       1.081   3.806  -5.995  0.00  0.00    -0.243 OA
ATOM      5  O   UNL     1       3.135   4.425  -5.325  0.00  0.00    -0.243 OA
ENDBRANCH   1   3
BRANCH   1   6
ATOM      6  C   UNL     1       1.606   5.836  -7.991  0.00  0.00    +0.156 C 
BRANCH   6   8
ATOM      7  O   UNL     1       1.020   7.286  -6.139  0.00  0.00    -0.246 OA
ATOM      8  C   UNL     1       1.685   7.071  -7.189  0.00  0.00    +0.368 C 
ATOM      9  O   UNL     1       2.095   8.221  -7.873  0.00  0.00    -0.246 OA
ENDBRANCH   6   8
ENDBRANCH   1   6
BRANCH   1  10
ATOM     10  C   UNL     1       3.985   5.540  -7.510  0.00  0.00    +0.156 C 
BRANCH  10  11
ATOM     11  C   UNL     1       4.801   5.525  -8.737  0.00  0.00    +0.368 C 
ATOM     12  O   UNL     1       4.517   6.520  -9.676  0.00  0.00    -0.246 OA
ATOM     13  O   UNL     1       6.016   5.171  -8.673  0.00  0.00    -0.246 OA
ENDBRANCH  10  11
ENDBRANCH   1  10
TORSDOF 5
ENDMDL
MODEL 9
REMARK VINA RESULT:      -4.4      1.659      2.634
REMARK  Name = 
REMARK  5 active torsions:
REMARK  status: ('A' for Active; 'I' for Inactive)
REMARK    1  A    between atoms: C_2  and  C_4
REMARK    2  A    between atoms: C_4  and  C_5
REMARK    3  A    between atoms: C_5  and  C_7
REMARK    4  A    between atoms: C_5  and  C_11
REMARK    5  A    between atoms: C_7  and  C_8
REMARK                            x       y       z     vdW  Elec       q    Type
REMARK                         _______ _______ _______ _____ _____    ______ ____
ROOT
ATOM      1  C   UNL     1       0.717   5.514  -6.423  0.00  0.00    +0.240 C 
ATOM      2  O   UNL     1       0.893   4.273  -5.855  0.00  0.00    -0.213 OA
ENDROOT
BRANCH   1   3
ATOM      3  C   UNL     1      -0.486   5.424  -7.311  0.00  0.00    +0.393 C 
ATOM      4  O   UNL     1      -1.732   5.079  -6.816  0.00  0.00    -0.243 OA
ATOM      5  O   UNL     1      -0.377   5.431  -8.575  0.00  0.00    -0.243 OA
ENDBRANCH   1   3
BRANCH   1   6
ATOM      6  C   UNL     1       1.870   5.945  -7.288  0.00  0.00    +0.156 C 
BRANCH   6   8
ATOM      7  O   UNL     1       2.128   8.290  -7.847  0.00  0.00    -0.246 OA
ATOM      8  C   UNL     1       2.312   7.330  -7.047  0.00  0.00    +0.368 C 
ATOM      9  O   UNL     1       3.400   7.485  -6.182  0.00  0.00    -0.246 OA
ENDBRANCH   6   8
ENDBRANCH   1   6
BRANCH   1  10
ATOM     10  C   UNL     1       0.418   6.610  -5.436  0.00  0.00    +0.156 C 
BRANCH  10  11
ATOM     11  C   UNL     1       0.435   6.152  -4.035  0.00  0.00    +0.368 C 
ATOM     12  O   UNL     1       1.572   6.486  -3.294  0.00  0.00    -0.246 OA
ATOM     13  O   UNL     1      -0.649   6.114  -3.379  0.00  0.00    -0.246 OA
ENDBRANCH  10  11
ENDBRANCH   1  10
TORSDOF 5
ENDMDL
