MODEL 1
REMARK VINA RESULT:      -6.8      0.000      0.000
REMARK  Name = 
REMARK  10 active torsions:
REMARK  status: ('A' for Active; 'I' for Inactive)
REMARK    1  A    between atoms: C_2  and  C_3
REMARK    2  A    between atoms: C_3  and  C_4
REMARK    3  A    between atoms: C_4  and  C_5
REMARK    4  A    between atoms: C_5  and  C_6
REMARK    5  A    between atoms: C_5  and  C_8
REMARK    6  A    between atoms: C_8  and  O_9
REMARK    7  A    between atoms: O_9  and  C_10
REMARK    8  A    between atoms: C_10  and  C_12
REMARK    9  A    between atoms: C_13  and  C_14
REMARK   10  A    between atoms: C_17  and  O_18
REMARK                            x       y       z     vdW  Elec       q    Type
REMARK                         _______ _______ _______ _____ _____    ______ ____
ROOT
ATOM      1  C   UNL     1       1.261   4.997  -9.122  0.00  0.00    +0.341 C 
ATOM      2  O   UNL     1       1.181   4.931 -10.363  0.00  0.00    -0.245 OA
ENDROOT
BRANCH   1   3
ATOM      3  C   UNL     1       0.340   5.750  -8.272  0.00  0.00    +0.082 C 
ATOM      4  C   UNL     1      -0.580   5.132  -7.563  0.00  0.00    +0.007 C 
BRANCH   4   5
ATOM      5  C   UNL     1      -0.962   5.678  -6.254  0.00  0.00    +0.000 A 
ATOM      6  C   UNL     1      -0.027   5.633  -5.242  0.00  0.00    +0.003 A 
ATOM      7  C   UNL     1      -0.397   5.572  -3.915  0.00  0.00    +0.037 A 
ATOM      8  C   UNL     1      -1.735   5.523  -3.591  0.00  0.00    +0.139 A 
ATOM      9  C   UNL     1      -2.648   5.716  -4.592  0.00  0.00    +0.037 A 
ATOM     10  C   UNL     1      -2.266   5.907  -5.907  0.00  0.00    +0.003 A 
BRANCH   8  11
ATOM     11  O   UNL     1      -2.114   4.919  -2.395  0.00  0.00    -0.471 OA
ATOM     12  C   UNL     1      -1.987   5.716  -1.221  0.00  0.00    +0.252 C 
ENDBRANCH   8  11
ENDBRANCH   4   5
ENDBRANCH   1   3
BRANCH   1  13
ATOM     13  O   UNL     1       2.224   4.258  -8.487  0.00  0.00    -0.445 OA
BRANCH  13  14
ATOM     14  C   UNL     1       3.554   4.297  -8.904  0.00  0.00    +0.209 C 
BRANCH  14  15
ATOM     15  C   UNL     1       4.119   5.796  -8.527  0.00  0.00    +0.044 C 
BRANCH  15  16
ATOM     16  C   UNL     1       5.678   5.269  -8.450  0.00  0.00    +0.004 C 
ATOM     17  C   UNL     1       6.309   5.828  -9.720  0.00  0.00    +0.000 C 
ENDBRANCH  15  16
BRANCH  15  18
ATOM     18  C   UNL     1       3.900   5.587  -6.909  0.00  0.00    +0.004 C 
BRANCH  18  19
ATOM     19  C   UNL     1       3.350   6.878  -6.386  0.00  0.00    +0.000 C 
BRANCH  19  21
ATOM     20  C   UNL     1       4.444   7.258  -4.744  0.00  0.00    +0.000 C 
ATOM     21  C   UNL     1       3.672   7.089  -4.924  0.00  0.00    +0.000 C 
ENDBRANCH  19  21
ENDBRANCH  18  19
ENDBRANCH  15  18
ENDBRANCH  14  15
ENDBRANCH  13  14
ENDBRANCH   1  13
TORSDOF 10
ENDMDL
MODEL 2
REMARK VINA RESULT:      -6.6      1.834      3.218
REMARK  Name = 
REMARK  10 active torsions:
REMARK  status: ('A' for Active; 'I' for Inactive)
REMARK    1  A    between atoms: C_2  and  C_3
REMARK    2  A    between atoms: C_3  and  C_4
REMARK    3  A    between atoms: C_4  and  C_5
REMARK    4  A    between atoms: C_5  and  C_6
REMARK    5  A    between atoms: C_5  and  C_8
REMARK    6  A    between atoms: C_8  and  O_9
REMARK    7  A    between atoms: O_9  and  C_10
REMARK    8  A    between atoms: C_10  and  C_12
REMARK    9  A    between atoms: C_13  and  C_14
REMARK   10  A    between atoms: C_17  and  O_18
REMARK                            x       y       z     vdW  Elec       q    Type
REMARK                         _______ _______ _______ _____ _____    ______ ____
ROOT
ATOM      1  C   UNL     1       0.631   6.299 -10.255  0.00  0.00    +0.341 C 
ATOM      2  O   UNL     1       0.168   7.403 -10.597  0.00  0.00    -0.245 OA
ENDROOT
BRANCH   1   3
ATOM      3  C   UNL     1       0.062   5.451  -9.208  0.00  0.00    +0.082 C 
ATOM      4  C   UNL     1       0.648   5.344  -8.035  0.00  0.00    +0.007 C 
BRANCH   4   5
ATOM      5  C   UNL     1      -0.179   5.170  -6.835  0.00  0.00    +0.000 A 
ATOM      6  C   UNL     1      -1.545   5.299  -6.971  0.00  0.00    +0.003 A 
ATOM      7  C   UNL     1      -2.342   5.712  -5.925  0.00  0.00    +0.037 A 
ATOM      8  C   UNL     1      -1.759   6.034  -4.720  0.00  0.00    +0.139 A 
ATOM      9  C   UNL     1      -0.428   5.760  -4.556  0.00  0.00    +0.037 A 
ATOM     10  C   UNL     1       0.342   5.224  -5.570  0.00  0.00    +0.003 A 
BRANCH   8  11
ATOM     11  O   UNL     1      -2.404   6.941  -3.883  0.00  0.00    -0.471 OA
ATOM     12  C   UNL     1      -3.337   6.388  -2.959  0.00  0.00    +0.252 C 
ENDBRANCH   8  11
ENDBRANCH   4   5
ENDBRANCH   1   3
BRANCH   1  13
ATOM     13  O   UNL     1       1.700   5.794 -10.946  0.00  0.00    -0.445 OA
BRANCH  13  14
ATOM     14  C   UNL     1       2.973   6.346 -10.810  0.00  0.00    +0.209 C 
BRANCH  14  15
ATOM     15  C   UNL     1       3.906   5.199 -10.087  0.00  0.00    +0.044 C 
BRANCH  15  16
ATOM     16  C   UNL     1       4.115   6.116  -8.735  0.00  0.00    +0.004 C 
ATOM     17  C   UNL     1       4.995   5.248  -7.844  0.00  0.00    +0.000 C 
ENDBRANCH  15  16
BRANCH  15  18
ATOM     18  C   UNL     1       5.300   5.759 -10.760  0.00  0.00    +0.004 C 
BRANCH  18  19
ATOM     19  C   UNL     1       5.115   7.234 -10.950  0.00  0.00    +0.000 C 
BRANCH  19  21
ATOM     20  C   UNL     1       7.086   7.623 -10.973  0.00  0.00    +0.000 C 
ATOM     21  C   UNL     1       6.409   7.936 -11.290  0.00  0.00    +0.000 C 
ENDBRANCH  19  21
ENDBRANCH  18  19
ENDBRANCH  15  18
ENDBRANCH  14  15
ENDBRANCH  13  14
ENDBRANCH   1  13
TORSDOF 10
ENDMDL
MODEL 3
REMARK VINA RESULT:      -6.6      2.769      8.718
REMARK  Name = 
REMARK  10 active torsions:
REMARK  status: ('A' for Active; 'I' for Inactive)
REMARK    1  A    between atoms: C_2  and  C_3
REMARK    2  A    between atoms: C_3  and  C_4
REMARK    3  A    between atoms: C_4  and  C_5
REMARK    4  A    between atoms: C_5  and  C_6
REMARK    5  A    between atoms: C_5  and  C_8
REMARK    6  A    between atoms: C_8  and  O_9
REMARK    7  A    between atoms: O_9  and  C_10
REMARK    8  A    between atoms: C_10  and  C_12
REMARK    9  A    between atoms: C_13  and  C_14
REMARK   10  A    between atoms: C_17  and  O_18
REMARK                            x       y       z     vdW  Elec       q    Type
REMARK                         _______ _______ _______ _____ _____    ______ ____
ROOT
ATOM      1  C   UNL     1       3.773   4.756  -8.493  0.00  0.00    +0.341 C 
ATOM      2  O   UNL     1       3.543   3.658  -9.033  0.00  0.00    -0.245 OA
ENDROOT
BRANCH   1   3
ATOM      3  C   UNL     1       4.680   5.769  -9.031  0.00  0.00    +0.082 C 
ATOM      4  C   UNL     1       5.982   5.572  -9.038  0.00  0.00    +0.007 C 
BRANCH   4   5
ATOM      5  C   UNL     1       6.783   6.121 -10.139  0.00  0.00    +0.000 A 
ATOM      6  C   UNL     1       6.246   7.161 -10.868  0.00  0.00    +0.003 A 
ATOM      7  C   UNL     1       6.589   7.375 -12.186  0.00  0.00    +0.037 A 
ATOM      8  C   UNL     1       7.466   6.511 -12.803  0.00  0.00    +0.139 A 
ATOM      9  C   UNL     1       8.099   5.577 -12.030  0.00  0.00    +0.037 A 
ATOM     10  C   UNL     1       7.848   5.450 -10.677  0.00  0.00    +0.003 A 
BRANCH   8  11
ATOM     11  O   UNL     1       7.394   6.356 -14.185  0.00  0.00    -0.471 OA
ATOM     12  C   UNL     1       6.398   7.126 -14.852  0.00  0.00    +0.252 C 
ENDBRANCH   8  11
ENDBRANCH   4   5
ENDBRANCH   1   3
BRANCH   1  13
ATOM     13  O   UNL     1       3.080   5.087  -7.359  0.00  0.00    -0.445 OA
BRANCH  13  14
ATOM     14  C   UNL     1       1.759   4.679  -7.176  0.00  0.00    +0.209 C 
BRANCH  14  15
ATOM     15  C   UNL     1       0.834   6.039  -7.252  0.00  0.00    +0.044 C 
BRANCH  15  16
ATOM     16  C   UNL     1      -0.136   5.536  -6.019  0.00  0.00    +0.004 C 
ATOM     17  C   UNL     1      -1.507   5.405  -6.672  0.00  0.00    +0.000 C 
ENDBRANCH  15  16
BRANCH  15  18
ATOM     18  C   UNL     1      -0.177   5.413  -8.389  0.00  0.00    +0.004 C 
BRANCH  18  19
ATOM     19  C   UNL     1       0.418   5.757  -9.720  0.00  0.00    +0.000 C 
BRANCH  19  21
ATOM     20  C   UNL     1       0.354   4.783 -11.476  0.00  0.00    +0.000 C 
ATOM     21  C   UNL     1       0.369   4.597 -10.688  0.00  0.00    +0.000 C 
ENDBRANCH  19  21
ENDBRANCH  18  19
ENDBRANCH  15  18
ENDBRANCH  14  15
ENDBRANCH  13  14
ENDBRANCH   1  13
TORSDOF 10
ENDMDL
MODEL 4
REMARK VINA RESULT:      -6.6      2.486      7.989
REMARK  Name = 
REMARK  10 active torsions:
REMARK  status: ('A' for Active; 'I' for Inactive)
REMARK    1  A    between atoms: C_2  and  C_3
REMARK    2  A    between atoms: C_3  and  C_4
REMARK    3  A    between atoms: C_4  and  C_5
REMARK    4  A    between atoms: C_5  and  C_6
REMARK    5  A    between atoms: C_5  and  C_8
REMARK    6  A    between atoms: C_8  and  O_9
REMARK    7  A    between atoms: O_9  and  C_10
REMARK    8  A    between atoms: C_10  and  C_12
REMARK    9  A    between atoms: C_13  and  C_14
REMARK   10  A    between atoms: C_17  and  O_18
REMARK                            x       y       z     vdW  Elec       q    Type
REMARK                         _______ _______ _______ _____ _____    ______ ____
ROOT
ATOM      1  C   UNL     1       3.312   5.522  -6.429  0.00  0.00    +0.341 C 
ATOM      2  O   UNL     1       3.096   4.475  -5.791  0.00  0.00    -0.245 OA
ENDROOT
BRANCH   1   3
ATOM      3  C   UNL     1       4.537   5.796  -7.181  0.00  0.00    +0.082 C 
ATOM      4  C   UNL     1       4.921   4.999  -8.155  0.00  0.00    +0.007 C 
BRANCH   4   5
ATOM      5  C   UNL     1       5.611   5.572  -9.318  0.00  0.00    +0.000 A 
ATOM      6  C   UNL     1       4.929   5.610 -10.515  0.00  0.00    +0.003 A 
ATOM      7  C   UNL     1       5.587   5.579 -11.726  0.00  0.00    +0.037 A 
ATOM      8  C   UNL     1       6.961   5.475 -11.743  0.00  0.00    +0.139 A 
ATOM      9  C   UNL     1       7.630   5.586 -10.555  0.00  0.00    +0.037 A 
ATOM     10  C   UNL     1       6.968   5.749  -9.352  0.00  0.00    +0.003 A 
BRANCH   8  11
ATOM     11  O   UNL     1       7.576   4.896 -12.850  0.00  0.00    -0.471 OA
ATOM     12  C   UNL     1       7.210   5.427 -14.121  0.00  0.00    +0.252 C 
ENDBRANCH   8  11
ENDBRANCH   4   5
ENDBRANCH   1   3
BRANCH   1  13
ATOM     13  O   UNL     1       2.317   6.460  -6.507  0.00  0.00    -0.445 OA
BRANCH  13  14
ATOM     14  C   UNL     1       1.623   6.677  -7.697  0.00  0.00    +0.209 C 
BRANCH  14  15
ATOM     15  C   UNL     1       1.141   5.197  -8.234  0.00  0.00    +0.044 C 
BRANCH  15  16
ATOM     16  C   UNL     1       1.180   5.676  -9.810  0.00  0.00    +0.004 C 
ATOM     17  C   UNL     1       0.467   4.548 -10.545  0.00  0.00    +0.000 C 
ENDBRANCH  15  16
BRANCH  15  18
ATOM     18  C   UNL     1      -0.460   5.554  -8.099  0.00  0.00    +0.004 C 
BRANCH  18  19
ATOM     19  C   UNL     1      -0.867   5.157  -6.712  0.00  0.00    +0.000 C 
BRANCH  19  21
ATOM     20  C   UNL     1      -2.382   6.193  -5.896  0.00  0.00    +0.000 C 
ATOM     21  C   UNL     1      -2.288   5.560  -6.392  0.00  0.00    +0.000 C 
ENDBRANCH  19  21
ENDBRANCH  18  19
ENDBRANCH  15  18
ENDBRANCH  14  15
ENDBRANCH  13  14
ENDBRANCH   1  13
TORSDOF 10
ENDMDL
MODEL 5
REMARK VINA RESULT:      -6.5      1.556      2.099
REMARK  Name = 
REMARK  10 active torsions:
REMARK  status: ('A' for Active; 'I' for Inactive)
REMARK    1  A    between atoms: C_2  and  C_3
REMARK    2  A    between atoms: C_3  and  C_4
REMARK    3  A    between atoms: C_4  and  C_5
REMARK    4  A    between atoms: C_5  and  C_6
REMARK    5  A    between atoms: C_5  and  C_8
REMARK    6  A    between atoms: C_8  and  O_9
REMARK    7  A    between atoms: O_9  and  C_10
REMARK    8  A    between atoms: C_10  and  C_12
REMARK    9  A    between atoms: C_13  and  C_14
REMARK   10  A    between atoms: C_17  and  O_18
REMARK                            x       y       z     vdW  Elec       q    Type
REMARK                         _______ _______ _______ _____ _____    ______ ____
ROOT
ATOM      1  C   UNL     1       0.877   4.757  -6.606  0.00  0.00    +0.341 C 
ATOM      2  O   UNL     1       1.281   3.781  -5.948  0.00  0.00    -0.245 OA
ENDROOT
BRANCH   1   3
ATOM      3  C   UNL     1      -0.041   5.776  -6.098  0.00  0.00    +0.082 C 
ATOM      4  C   UNL     1      -1.343   5.583  -6.124  0.00  0.00    +0.007 C 
BRANCH   4   5
ATOM      5  C   UNL     1      -2.170   6.141  -5.047  0.00  0.00    +0.000 A 
ATOM      6  C   UNL     1      -1.883   7.417  -4.610  0.00  0.00    +0.003 A 
ATOM      7  C   UNL     1      -2.161   7.822  -3.322  0.00  0.00    +0.037 A 
ATOM      8  C   UNL     1      -2.712   6.922  -2.437  0.00  0.00    +0.139 A 
ATOM      9  C   UNL     1      -3.126   5.711  -2.924  0.00  0.00    +0.037 A 
ATOM     10  C   UNL     1      -2.961   5.358  -4.250  0.00  0.00    +0.003 A 
BRANCH   8  11
ATOM     11  O   UNL     1      -2.487   7.097  -1.074  0.00  0.00    -0.471 OA
ATOM     12  C   UNL     1      -1.533   6.223  -0.478  0.00  0.00    +0.252 C 
ENDBRANCH   8  11
ENDBRANCH   4   5
ENDBRANCH   1   3
BRANCH   1  13
ATOM     13  O   UNL     1       1.373   4.948  -7.869  0.00  0.00    -0.445 OA
BRANCH  13  14
ATOM     14  C   UNL     1       2.729   4.778  -8.143  0.00  0.00    +0.209 C 
BRANCH  14  15
ATOM     15  C   UNL     1       3.432   6.256  -7.967  0.00  0.00    +0.044 C 
BRANCH  15  16
ATOM     16  C   UNL     1       4.493   5.980  -9.196  0.00  0.00    +0.004 C 
ATOM     17  C   UNL     1       5.572   5.118  -8.551  0.00  0.00    +0.000 C 
ENDBRANCH  15  16
BRANCH  15  18
ATOM     18  C   UNL     1       4.504   5.727  -6.836  0.00  0.00    +0.004 C 
BRANCH  18  19
ATOM     19  C   UNL     1       4.118   6.385  -5.546  0.00  0.00    +0.000 C 
BRANCH  19  21
ATOM     20  C   UNL     1       4.532   4.789  -4.399  0.00  0.00    +0.000 C 
ATOM     21  C   UNL     1       3.995   5.396  -4.410  0.00  0.00    +0.000 C 
ENDBRANCH  19  21
ENDBRANCH  18  19
ENDBRANCH  15  18
ENDBRANCH  14  15
ENDBRANCH  13  14
ENDBRANCH   1  13
TORSDOF 10
ENDMDL
MODEL 6
REMARK VINA RESULT:      -6.5      2.134      3.080
REMARK  Name = 
REMARK  10 active torsions:
REMARK  status: ('A' for Active; 'I' for Inactive)
REMARK    1  A    between atoms: C_2  and  C_3
REMARK    2  A    between atoms: C_3  and  C_4
REMARK    3  A    between atoms: C_4  and  C_5
REMARK    4  A    between atoms: C_5  and  C_6
REMARK    5  A    between atoms: C_5  and  C_8
REMARK    6  A    between atoms: C_8  and  O_9
REMARK    7  A    between atoms: O_9  and  C_10
REMARK    8  A    between atoms: C_10  and  C_12
REMARK    9  A    between atoms: C_13  and  C_14
REMARK   10  A    between atoms: C_17  and  O_18
REMARK                            x       y       z     vdW  Elec       q    Type
REMARK                         _______ _______ _______ _____ _____    ______ ____
ROOT
ATOM      1  C   UNL     1      -0.142   5.381  -7.927  0.00  0.00    +0.341 C 
ATOM      2  O   UNL     1      -0.032   5.402  -9.167  0.00  0.00    -0.245 OA
ENDROOT
BRANCH   1   3
ATOM      3  C   UNL     1      -1.334   5.805  -7.194  0.00  0.00    +0.082 C 
ATOM      4  C   UNL     1      -1.690   5.202  -6.079  0.00  0.00    +0.007 C 
BRANCH   4   5
ATOM      5  C   UNL     1      -2.330   5.986  -5.015  0.00  0.00    +0.000 A 
ATOM      6  C   UNL     1      -1.927   7.294  -4.850  0.00  0.00    +0.003 A 
ATOM      7  C   UNL     1      -2.000   7.926  -3.627  0.00  0.00    +0.037 A 
ATOM      8  C   UNL     1      -2.458   7.225  -2.533  0.00  0.00    +0.139 A 
ATOM      9  C   UNL     1      -2.989   5.981  -2.741  0.00  0.00    +0.037 A 
ATOM     10  C   UNL     1      -3.032   5.402  -3.996  0.00  0.00    +0.003 A 
BRANCH   8  11
ATOM     11  O   UNL     1      -2.033   7.610  -1.264  0.00  0.00    -0.471 OA
ATOM     12  C   UNL     1      -1.419   6.595  -0.474  0.00  0.00    +0.252 C 
ENDBRANCH   8  11
ENDBRANCH   4   5
ENDBRANCH   1   3
BRANCH   1  13
ATOM     13  O   UNL     1       0.884   4.855  -7.186  0.00  0.00    -0.445 OA
BRANCH  13  14
ATOM     14  C   UNL     1       1.785   5.681  -6.516  0.00  0.00    +0.209 C 
BRANCH  14  15
ATOM     15  C   UNL     1       2.290   4.844  -5.190  0.00  0.00    +0.044 C 
BRANCH  15  16
ATOM     16  C   UNL     1       1.869   6.065  -4.168  0.00  0.00    +0.004 C 
ATOM     17  C   UNL     1       0.847   5.420  -3.240  0.00  0.00    +0.000 C 
ENDBRANCH  15  16
BRANCH  15  18
ATOM     18  C   UNL     1       3.838   5.389  -5.307  0.00  0.00    +0.004 C 
BRANCH  18  19
ATOM     19  C   UNL     1       3.794   6.857  -5.012  0.00  0.00    +0.000 C 
BRANCH  19  21
ATOM     20  C   UNL     1       5.086   7.962  -3.942  0.00  0.00    +0.000 C 
ATOM     21  C   UNL     1       5.118   7.383  -4.507  0.00  0.00    +0.000 C 
ENDBRANCH  19  21
ENDBRANCH  18  19
ENDBRANCH  15  18
ENDBRANCH  14  15
ENDBRANCH  13  14
ENDBRANCH   1  13
TORSDOF 10
ENDMDL
MODEL 7
REMARK VINA RESULT:      -6.4      2.408      3.277
REMARK  Name = 
REMARK  10 active torsions:
REMARK  status: ('A' for Active; 'I' for Inactive)
REMARK    1  A    between atoms: C_2  and  C_3
REMARK    2  A    between atoms: C_3  and  C_4
REMARK    3  A    between atoms: C_4  and  C_5
REMARK    4  A    between atoms: C_5  and  C_6
REMARK    5  A    between atoms: C_5  and  C_8
REMARK    6  A    between atoms: C_8  and  O_9
REMARK    7  A    between atoms: O_9  and  C_10
REMARK    8  A    between atoms: C_10  and  C_12
REMARK    9  A    between atoms: C_13  and  C_14
REMARK   10  A    between atoms: C_17  and  O_18
REMARK                            x       y       z     vdW  Elec       q    Type
REMARK                         _______ _______ _______ _____ _____    ______ ____
ROOT
ATOM      1  C   UNL     1       0.297   5.233  -7.427  0.00  0.00    +0.341 C 
ATOM      2  O   UNL     1       0.562   5.225  -8.644  0.00  0.00    -0.245 OA
ENDROOT
BRANCH   1   3
ATOM      3  C   UNL     1      -0.771   6.025  -6.817  0.00  0.00    +0.082 C 
ATOM      4  C   UNL     1      -1.746   5.443  -6.152  0.00  0.00    +0.007 C 
BRANCH   4   5
ATOM      5  C   UNL     1      -2.331   6.129  -4.994  0.00  0.00    +0.000 A 
ATOM      6  C   UNL     1      -2.054   7.471  -4.834  0.00  0.00    +0.003 A 
ATOM      7  C   UNL     1      -2.045   8.066  -3.591  0.00  0.00    +0.037 A 
ATOM      8  C   UNL     1      -2.288   7.297  -2.474  0.00  0.00    +0.139 A 
ATOM      9  C   UNL     1      -2.704   6.007  -2.659  0.00  0.00    +0.037 A 
ATOM     10  C   UNL     1      -2.837   5.451  -3.918  0.00  0.00    +0.003 A 
BRANCH   8  11
ATOM     11  O   UNL     1      -1.755   7.701  -1.253  0.00  0.00    -0.471 OA
ATOM     12  C   UNL     1      -2.065   6.880  -0.130  0.00  0.00    +0.252 C 
ENDBRANCH   8  11
ENDBRANCH   4   5
ENDBRANCH   1   3
BRANCH   1  13
ATOM     13  O   UNL     1       0.991   4.391  -6.599  0.00  0.00    -0.445 OA
BRANCH  13  14
ATOM     14  C   UNL     1       1.265   4.744  -5.279  0.00  0.00    +0.209 C 
BRANCH  14  15
ATOM     15  C   UNL     1       2.460   5.876  -5.335  0.00  0.00    +0.044 C 
BRANCH  15  16
ATOM     16  C   UNL     1       3.537   4.882  -4.583  0.00  0.00    +0.004 C 
ATOM     17  C   UNL     1       4.730   5.789  -4.306  0.00  0.00    +0.000 C 
ENDBRANCH  15  16
BRANCH  15  18
ATOM     18  C   UNL     1       2.011   6.571  -3.912  0.00  0.00    +0.004 C 
BRANCH  18  19
ATOM     19  C   UNL     1       0.960   5.682  -3.319  0.00  0.00    +0.000 C 
BRANCH  19  21
ATOM     20  C   UNL     1       0.833   4.939  -1.457  0.00  0.00    +0.000 C 
ATOM     21  C   UNL     1       1.026   5.642  -1.810  0.00  0.00    +0.000 C 
ENDBRANCH  19  21
ENDBRANCH  18  19
ENDBRANCH  15  18
ENDBRANCH  14  15
ENDBRANCH  13  14
ENDBRANCH   1  13
TORSDOF 10
ENDMDL
MODEL 8
REMARK VINA RESULT:      -6.4      2.112      5.330
REMARK  Name = 
REMARK  10 active torsions:
REMARK  status: ('A' for Active; 'I' for Inactive)
REMARK    1  A    between atoms: C_2  and  C_3
REMARK    2  A    between atoms: C_3  and  C_4
REMARK    3  A    between atoms: C_4  and  C_5
REMARK    4  A    between atoms: C_5  and  C_6
REMARK    5  A    between atoms: C_5  and  C_8
REMARK    6  A    between atoms: C_8  and  O_9
REMARK    7  A    between atoms: O_9  and  C_10
REMARK    8  A    between atoms: C_10  and  C_12
REMARK    9  A    between atoms: C_13  and  C_14
REMARK   10  A    between atoms: C_17  and  O_18
REMARK                            x       y       z     vdW  Elec       q    Type
REMARK                         _______ _______ _______ _____ _____    ______ ____
ROOT
ATOM      1  C   UNL     1       2.787   5.348  -8.522  0.00  0.00    +0.341 C 
ATOM      2  O   UNL     1       2.835   5.534  -9.752  0.00  0.00    -0.245 OA
ENDROOT
BRANCH   1   3
ATOM      3  C   UNL     1       3.856   5.703  -7.588  0.00  0.00    +0.082 C 
ATOM      4  C   UNL     1       3.671   6.631  -6.673  0.00  0.00    +0.007 C 
BRANCH   4   5
ATOM      5  C   UNL     1       4.333   6.493  -5.371  0.00  0.00    +0.000 A 
ATOM      6  C   UNL     1       4.486   5.222  -4.858  0.00  0.00    +0.003 A 
ATOM      7  C   UNL     1       4.551   4.991  -3.500  0.00  0.00    +0.037 A 
ATOM      8  C   UNL     1       4.430   6.052  -2.630  0.00  0.00    +0.139 A 
ATOM      9  C   UNL     1       4.427   7.316  -3.153  0.00  0.00    +0.037 A 
ATOM     10  C   UNL     1       4.493   7.548  -4.514  0.00  0.00    +0.003 A 
BRANCH   8  11
ATOM     11  O   UNL     1       3.941   5.815  -1.348  0.00  0.00    -0.471 OA
ATOM     12  C   UNL     1       3.068   6.807  -0.815  0.00  0.00    +0.252 C 
ENDBRANCH   8  11
ENDBRANCH   4   5
ENDBRANCH   1   3
BRANCH   1  13
ATOM     13  O   UNL     1       1.634   4.848  -7.978  0.00  0.00    -0.445 OA
BRANCH  13  14
ATOM     14  C   UNL     1       0.413   5.498  -8.155  0.00  0.00    +0.209 C 
BRANCH  14  15
ATOM     15  C   UNL     1      -0.074   5.993  -6.662  0.00  0.00    +0.044 C 
BRANCH  15  16
ATOM     16  C   UNL     1       0.531   4.644  -5.937  0.00  0.00    +0.004 C 
ATOM     17  C   UNL     1       0.930   5.131  -4.549  0.00  0.00    +0.000 C 
ENDBRANCH  15  16
BRANCH  15  18
ATOM     18  C   UNL     1      -1.569   5.321  -6.813  0.00  0.00    +0.004 C 
BRANCH  18  19
ATOM     19  C   UNL     1      -2.321   5.678  -5.567  0.00  0.00    +0.000 C 
BRANCH  19  21
ATOM     20  C   UNL     1      -2.442   7.410  -4.557  0.00  0.00    +0.000 C 
ATOM     21  C   UNL     1      -2.357   7.169  -5.325  0.00  0.00    +0.000 C 
ENDBRANCH  19  21
ENDBRANCH  18  19
ENDBRANCH  15  18
ENDBRANCH  14  15
ENDBRANCH  13  14
ENDBRANCH   1  13
TORSDOF 10
ENDMDL
MODEL 9
REMARK VINA RESULT:      -6.4      3.076      4.636
REMARK  Name = 
REMARK  10 active torsions:
REMARK  status: ('A' for Active; 'I' for Inactive)
REMARK    1  A    between atoms: C_2  and  C_3
REMARK    2  A    between atoms: C_3  and  C_4
REMARK    3  A    between atoms: C_4  and  C_5
REMARK    4  A    between atoms: C_5  and  C_6
REMARK    5  A    between atoms: C_5  and  C_8
REMARK    6  A    between atoms: C_8  and  O_9
REMARK    7  A    between atoms: O_9  and  C_10
REMARK    8  A    between atoms: C_10  and  C_12
REMARK    9  A    between atoms: C_13  and  C_14
REMARK   10  A    between atoms: C_17  and  O_18
REMARK                            x       y       z     vdW  Elec       q    Type
REMARK                         _______ _______ _______ _____ _____    ______ ____
ROOT
ATOM      1  C   UNL     1       1.398   6.303 -11.306  0.00  0.00    +0.341 C 
ATOM      2  O   UNL     1       0.513   6.270 -12.181  0.00  0.00    -0.245 OA
ENDROOT
BRANCH   1   3
ATOM      3  C   UNL     1       1.177   6.717  -9.920  0.00  0.00    +0.082 C 
ATOM      4  C   UNL     1       0.801   5.844  -9.009  0.00  0.00    +0.007 C 
BRANCH   4   5
ATOM      5  C   UNL     1       1.273   6.005  -7.628  0.00  0.00    +0.000 A 
ATOM      6  C   UNL     1       2.067   7.096  -7.342  0.00  0.00    +0.003 A 
ATOM      7  C   UNL     1       2.992   7.071  -6.321  0.00  0.00    +0.037 A 
ATOM      8  C   UNL     1       3.153   5.918  -5.584  0.00  0.00    +0.139 A 
ATOM      9  C   UNL     1       2.260   4.899  -5.782  0.00  0.00    +0.037 A 
ATOM     10  C   UNL     1       1.250   4.980  -6.721  0.00  0.00    +0.003 A 
BRANCH   8  11
ATOM     11  O   UNL     1       4.382   5.675  -4.977  0.00  0.00    -0.471 OA
ATOM     12  C   UNL     1       4.349   4.904  -3.780  0.00  0.00    +0.252 C 
ENDBRANCH   8  11
ENDBRANCH   4   5
ENDBRANCH   1   3
BRANCH   1  13
ATOM     13  O   UNL     1       2.652   5.853 -11.623  0.00  0.00    -0.445 OA
BRANCH  13  14
ATOM     14  C   UNL     1       3.791   6.517 -11.171  0.00  0.00    +0.209 C 
BRANCH  14  15
ATOM     15  C   UNL     1       4.955   5.369 -10.976  0.00  0.00    +0.044 C 
BRANCH  15  16
ATOM     16  C   UNL     1       4.337   4.885  -9.528  0.00  0.00    +0.004 C 
ATOM     17  C   UNL     1       5.432   5.247  -8.531  0.00  0.00    +0.000 C 
ENDBRANCH  15  16
BRANCH  15  18
ATOM     18  C   UNL     1       6.006   6.409 -10.252  0.00  0.00    +0.004 C 
BRANCH  18  19
ATOM     19  C   UNL     1       6.984   6.825 -11.308  0.00  0.00    +0.000 C 
BRANCH  19  21
ATOM     20  C   UNL     1       8.581   5.896 -12.099  0.00  0.00    +0.000 C 
ATOM     21  C   UNL     1       7.889   5.691 -11.732  0.00  0.00    +0.000 C 
ENDBRANCH  19  21
ENDBRANCH  18  19
ENDBRANCH  15  18
ENDBRANCH  14  15
ENDBRANCH  13  14
ENDBRANCH   1  13
TORSDOF 10
ENDMDL
