MODEL 1
REMARK VINA RESULT:      -7.9      0.000      0.000
REMARK  Name = 
REMARK  5 active torsions:
REMARK  status: ('A' for Active; 'I' for Inactive)
REMARK    1  A    between atoms: C_2  and  C_3
REMARK    2  A    between atoms: C_3  and  O_4
REMARK    3  A    between atoms: O_4  and  C_5
REMARK    4  A    between atoms: C_5  and  C_6
REMARK    5  A    between atoms: C_6  and  N_7
REMARK                            x       y       z     vdW  Elec       q    Type
REMARK                         _______ _______ _______ _____ _____    ______ ____
ROOT
ATOM      1  N   UNL     1       2.180   5.534  -9.112  0.00  0.00    -0.264 NA
ATOM      2  C   UNL     1       2.504   4.535  -8.124  0.00  0.00    +0.124 C 
ATOM      3  C   UNL     1       1.766   4.717  -6.827  0.00  0.00    +0.220 C 
ATOM      4  N   UNL     1       1.958   6.051  -6.304  0.00  0.00    -0.188 N 
ATOM      5  C   UNL     1       1.761   6.252  -4.899  0.00  0.00    +0.324 C 
ATOM      6  C   UNL     1       0.352   6.132  -4.502  0.00  0.00    +0.088 A 
ATOM      7  C   UNL     1      -0.156   5.606  -3.320  0.00  0.00    +0.037 A 
ATOM      8  C   UNL     1      -1.482   5.886  -3.014  0.00  0.00    +0.007 A 
ATOM      9  C   UNL     1      -2.202   6.718  -3.858  0.00  0.00    +0.001 A 
ATOM     10  C   UNL     1      -1.832   6.819  -5.193  0.00  0.00    +0.000 A 
ATOM     11  S   UNL     1       0.744   5.176  -1.825  0.00  0.00    -0.083 S 
ATOM     12  C   UNL     1       2.180   6.255  -1.775  0.00  0.00    +0.072 A 
ATOM     13  C   UNL     1       2.887   6.867  -2.799  0.00  0.00    +0.199 A 
ATOM     14  C   UNL     1       3.814   7.846  -2.517  0.00  0.00    +0.047 A 
ATOM     15  C   UNL     1       3.812   8.481  -1.282  0.00  0.00    +0.004 A 
ATOM     16  C   UNL     1       2.775   8.175  -0.412  0.00  0.00    +0.001 A 
ATOM     17  C   UNL     1       2.226   6.906  -0.549  0.00  0.00    +0.010 A 
ATOM     18  C   UNL     1      -0.497   6.584  -5.499  0.00  0.00    +0.008 A 
ATOM     19  N   UNL     1       2.776   6.527  -4.168  0.00  0.00    -0.040 NA
ATOM     20  C   UNL     1       2.182   7.125  -7.235  0.00  0.00    +0.220 C 
ATOM     21  C   UNL     1       1.554   6.707  -8.558  0.00  0.00    +0.124 C 
ENDROOT
BRANCH   1  22
ATOM     22  C   UNL     1       1.253   4.956 -10.075  0.00  0.00    +0.105 C 
BRANCH  22  23
ATOM     23  C   UNL     1       0.394   6.032 -10.683  0.00  0.00    +0.160 C 
BRANCH  23  24
ATOM     24  O   UNL     1       0.203   5.866 -12.044  0.00  0.00    -0.350 OA
BRANCH  24  25
ATOM     25  C   UNL     1       1.375   5.505 -12.715  0.00  0.00    +0.178 C 
BRANCH  25  27
ATOM     26  O   UNL     1       0.622   5.343 -14.983  0.00  0.00    -0.218 OA
ATOM     27  C   UNL     1       0.994   4.593 -13.867  0.00  0.00    +0.214 C 
ENDBRANCH  25  27
ENDBRANCH  24  25
ENDBRANCH  23  24
ENDBRANCH  22  23
ENDBRANCH   1  22
TORSDOF 5
ENDMDL
MODEL 2
REMARK VINA RESULT:      -7.8      4.205      7.836
REMARK  Name = 
REMARK  5 active torsions:
REMARK  status: ('A' for Active; 'I' for Inactive)
REMARK    1  A    between atoms: C_2  and  C_3
REMARK    2  A    between atoms: C_3  and  O_4
REMARK    3  A    between atoms: O_4  and  C_5
REMARK    4  A    between atoms: C_5  and  C_6
REMARK    5  A    between atoms: C_6  and  N_7
REMARK                            x       y       z     vdW  Elec       q    Type
REMARK                         _______ _______ _______ _____ _____    ______ ____
ROOT
ATOM      1  N   UNL     1      -2.901   6.793  -3.041  0.00  0.00    -0.264 NA
ATOM      2  C   UNL     1      -2.695   5.471  -3.581  0.00  0.00    +0.124 C 
ATOM      3  C   UNL     1      -1.313   5.262  -4.136  0.00  0.00    +0.220 C 
ATOM      4  N   UNL     1      -0.986   6.281  -5.109  0.00  0.00    -0.188 N 
ATOM      5  C   UNL     1       0.033   5.982  -6.071  0.00  0.00    +0.324 C 
ATOM      6  C   UNL     1       1.372   5.904  -5.473  0.00  0.00    +0.088 A 
ATOM      7  C   UNL     1       2.413   5.054  -5.826  0.00  0.00    +0.037 A 
ATOM      8  C   UNL     1       3.682   5.369  -5.357  0.00  0.00    +0.007 A 
ATOM      9  C   UNL     1       3.854   6.533  -4.624  0.00  0.00    +0.001 A 
ATOM     10  C   UNL     1       2.779   7.063  -3.925  0.00  0.00    +0.000 A 
ATOM     11  S   UNL     1       2.536   4.003  -7.278  0.00  0.00    -0.083 S 
ATOM     12  C   UNL     1       1.562   4.799  -8.561  0.00  0.00    +0.072 A 
ATOM     13  C   UNL     1       0.468   5.647  -8.470  0.00  0.00    +0.199 A 
ATOM     14  C   UNL     1       0.024   6.333  -9.579  0.00  0.00    +0.047 A 
ATOM     15  C   UNL     1       0.842   6.472 -10.693  0.00  0.00    +0.004 A 
ATOM     16  C   UNL     1       2.145   6.004 -10.588  0.00  0.00    +0.001 A 
ATOM     17  C   UNL     1       2.338   4.951  -9.703  0.00  0.00    +0.010 A 
ATOM     18  C   UNL     1       1.508   6.790  -4.416  0.00  0.00    +0.008 A 
ATOM     19  N   UNL     1      -0.303   5.843  -7.300  0.00  0.00    -0.040 NA
ATOM     20  C   UNL     1      -1.583   7.582  -4.965  0.00  0.00    +0.220 C 
ATOM     21  C   UNL     1      -1.926   7.754  -3.490  0.00  0.00    +0.124 C 
ENDROOT
BRANCH   1  22
ATOM     22  C   UNL     1      -2.812   6.725  -1.590  0.00  0.00    +0.105 C 
BRANCH  22  23
ATOM     23  C   UNL     1      -1.484   7.257  -1.122  0.00  0.00    +0.160 C 
BRANCH  23  24
ATOM     24  O   UNL     1      -0.743   6.321  -0.422  0.00  0.00    -0.350 OA
BRANCH  24  25
ATOM     25  C   UNL     1       0.604   6.309  -0.794  0.00  0.00    +0.178 C 
BRANCH  25  27
ATOM     26  O   UNL     1       2.198   4.525  -0.683  0.00  0.00    -0.218 OA
ATOM     27  C   UNL     1       0.962   4.895  -1.215  0.00  0.00    +0.214 C 
ENDBRANCH  25  27
ENDBRANCH  24  25
ENDBRANCH  23  24
ENDBRANCH  22  23
ENDBRANCH   1  22
TORSDOF 5
ENDMDL
MODEL 3
REMARK VINA RESULT:      -7.6      4.761      9.616
REMARK  Name = 
REMARK  5 active torsions:
REMARK  status: ('A' for Active; 'I' for Inactive)
REMARK    1  A    between atoms: C_2  and  C_3
REMARK    2  A    between atoms: C_3  and  O_4
REMARK    3  A    between atoms: O_4  and  C_5
REMARK    4  A    between atoms: C_5  and  C_6
REMARK    5  A    between atoms: C_6  and  N_7
REMARK                            x       y       z     vdW  Elec       q    Type
REMARK                         _______ _______ _______ _____ _____    ______ ____
ROOT
ATOM      1  N   UNL     1       2.795   5.484  -6.436  0.00  0.00    -0.264 NA
ATOM      2  C   UNL     1       2.567   4.422  -7.386  0.00  0.00    +0.124 C 
ATOM      3  C   UNL     1       3.177   4.687  -8.735  0.00  0.00    +0.220 C 
ATOM      4  N   UNL     1       2.740   5.961  -9.260  0.00  0.00    -0.188 N 
ATOM      5  C   UNL     1       2.808   6.156 -10.678  0.00  0.00    +0.324 C 
ATOM      6  C   UNL     1       4.188   6.250 -11.173  0.00  0.00    +0.088 A 
ATOM      7  C   UNL     1       4.691   5.782 -12.381  0.00  0.00    +0.037 A 
ATOM      8  C   UNL     1       5.932   6.260 -12.784  0.00  0.00    +0.007 A 
ATOM      9  C   UNL     1       6.566   7.215 -12.003  0.00  0.00    +0.001 A 
ATOM     10  C   UNL     1       6.277   7.288 -10.647  0.00  0.00    +0.000 A 
ATOM     11  S   UNL     1       3.772   5.180 -13.802  0.00  0.00    -0.083 S 
ATOM     12  C   UNL     1       2.182   6.018 -13.765  0.00  0.00    +0.072 A 
ATOM     13  C   UNL     1       1.458   6.535 -12.701  0.00  0.00    +0.199 A 
ATOM     14  C   UNL     1       0.371   7.350 -12.929  0.00  0.00    +0.047 A 
ATOM     15  C   UNL     1       0.189   7.947 -14.169  0.00  0.00    +0.004 A 
ATOM     16  C   UNL     1       1.199   7.787 -15.107  0.00  0.00    +0.001 A 
ATOM     17  C   UNL     1       1.950   6.624 -14.993  0.00  0.00    +0.010 A 
ATOM     18  C   UNL     1       5.020   6.854 -10.244  0.00  0.00    +0.008 A 
ATOM     19  N   UNL     1       1.714   6.251 -11.338  0.00  0.00    -0.040 NA
ATOM     20  C   UNL     1       2.413   7.009  -8.330  0.00  0.00    +0.220 C 
ATOM     21  C   UNL     1       3.188   6.727  -7.049  0.00  0.00    +0.124 C 
ENDROOT
BRANCH   1  22
ATOM     22  C   UNL     1       3.865   5.082  -5.535  0.00  0.00    +0.105 C 
BRANCH  22  23
ATOM     23  C   UNL     1       4.595   6.293  -5.019  0.00  0.00    +0.160 C 
BRANCH  23  24
ATOM     24  O   UNL     1       4.668   6.334  -3.637  0.00  0.00    -0.350 OA
BRANCH  24  25
ATOM     25  C   UNL     1       4.261   5.138  -3.039  0.00  0.00    +0.178 C 
BRANCH  25  27
ATOM     26  O   UNL     1       4.469   4.418  -0.765  0.00  0.00    -0.218 OA
ATOM     27  C   UNL     1       3.952   5.423  -1.581  0.00  0.00    +0.214 C 
ENDBRANCH  25  27
ENDBRANCH  24  25
ENDBRANCH  23  24
ENDBRANCH  22  23
ENDBRANCH   1  22
TORSDOF 5
ENDMDL
MODEL 4
REMARK VINA RESULT:      -7.6      3.372      5.171
REMARK  Name = 
REMARK  5 active torsions:
REMARK  status: ('A' for Active; 'I' for Inactive)
REMARK    1  A    between atoms: C_2  and  C_3
REMARK    2  A    between atoms: C_3  and  O_4
REMARK    3  A    between atoms: O_4  and  C_5
REMARK    4  A    between atoms: C_5  and  C_6
REMARK    5  A    between atoms: C_6  and  N_7
REMARK                            x       y       z     vdW  Elec       q    Type
REMARK                         _______ _______ _______ _____ _____    ______ ____
ROOT
ATOM      1  N   UNL     1       4.171   5.680 -10.163  0.00  0.00    -0.264 NA
ATOM      2  C   UNL     1       3.596   6.917  -9.697  0.00  0.00    +0.124 C 
ATOM      3  C   UNL     1       3.206   6.884  -8.245  0.00  0.00    +0.220 C 
ATOM      4  N   UNL     1       2.333   5.766  -7.968  0.00  0.00    -0.188 N 
ATOM      5  C   UNL     1       1.491   5.847  -6.811  0.00  0.00    +0.324 C 
ATOM      6  C   UNL     1       2.246   5.769  -5.554  0.00  0.00    +0.088 A 
ATOM      7  C   UNL     1       1.982   6.432  -4.361  0.00  0.00    +0.037 A 
ATOM      8  C   UNL     1       2.621   5.968  -3.217  0.00  0.00    +0.007 A 
ATOM      9  C   UNL     1       3.426   4.843  -3.311  0.00  0.00    +0.001 A 
ATOM     10  C   UNL     1       4.012   4.524  -4.528  0.00  0.00    +0.000 A 
ATOM     11  S   UNL     1       0.507   7.354  -3.913  0.00  0.00    -0.083 S 
ATOM     12  C   UNL     1      -0.846   6.623  -4.842  0.00  0.00    +0.072 A 
ATOM     13  C   UNL     1      -0.849   5.952  -6.056  0.00  0.00    +0.199 A 
ATOM     14  C   UNL     1      -1.970   5.265  -6.470  0.00  0.00    +0.047 A 
ATOM     15  C   UNL     1      -2.965   4.933  -5.560  0.00  0.00    +0.004 A 
ATOM     16  C   UNL     1      -2.722   5.212  -4.222  0.00  0.00    +0.001 A 
ATOM     17  C   UNL     1      -1.874   6.283  -3.973  0.00  0.00    +0.010 A 
ATOM     18  C   UNL     1       3.354   4.947  -5.677  0.00  0.00    +0.008 A 
ATOM     19  N   UNL     1       0.225   5.950  -6.978  0.00  0.00    -0.040 NA
ATOM     20  C   UNL     1       2.467   4.579  -8.770  0.00  0.00    +0.220 C 
ATOM     21  C   UNL     1       3.894   4.558  -9.302  0.00  0.00    +0.124 C 
ENDROOT
BRANCH   1  22
ATOM     22  C   UNL     1       5.617   5.832 -10.233  0.00  0.00    +0.105 C 
BRANCH  22  23
ATOM     23  C   UNL     1       5.973   7.144 -10.877  0.00  0.00    +0.160 C 
BRANCH  23  24
ATOM     24  O   UNL     1       7.317   7.244 -11.194  0.00  0.00    -0.350 OA
BRANCH  24  25
ATOM     25  C   UNL     1       7.991   6.024 -11.086  0.00  0.00    +0.178 C 
BRANCH  25  27
ATOM     26  O   UNL     1       7.804   4.667 -13.050  0.00  0.00    -0.218 OA
ATOM     27  C   UNL     1       8.556   5.678 -12.452  0.00  0.00    +0.214 C 
ENDBRANCH  25  27
ENDBRANCH  24  25
ENDBRANCH  23  24
ENDBRANCH  22  23
ENDBRANCH   1  22
TORSDOF 5
ENDMDL
MODEL 5
REMARK VINA RESULT:      -7.3      4.589      8.612
REMARK  Name = 
REMARK  5 active torsions:
REMARK  status: ('A' for Active; 'I' for Inactive)
REMARK    1  A    between atoms: C_2  and  C_3
REMARK    2  A    between atoms: C_3  and  O_4
REMARK    3  A    between atoms: O_4  and  C_5
REMARK    4  A    between atoms: C_5  and  C_6
REMARK    5  A    between atoms: C_6  and  N_7
REMARK                            x       y       z     vdW  Elec       q    Type
REMARK                         _______ _______ _______ _____ _____    ______ ____
ROOT
ATOM      1  N   UNL     1      -2.803   6.918  -2.909  0.00  0.00    -0.264 NA
ATOM      2  C   UNL     1      -2.608   5.576  -3.402  0.00  0.00    +0.124 C 
ATOM      3  C   UNL     1      -1.237   5.345  -3.976  0.00  0.00    +0.220 C 
ATOM      4  N   UNL     1      -0.930   6.325  -4.994  0.00  0.00    -0.188 N 
ATOM      5  C   UNL     1       0.070   5.988  -5.963  0.00  0.00    +0.324 C 
ATOM      6  C   UNL     1       1.421   5.933  -5.389  0.00  0.00    +0.088 A 
ATOM      7  C   UNL     1       2.455   5.069  -5.730  0.00  0.00    +0.037 A 
ATOM      8  C   UNL     1       3.733   5.401  -5.298  0.00  0.00    +0.007 A 
ATOM      9  C   UNL     1       3.920   6.593  -4.615  0.00  0.00    +0.001 A 
ATOM     10  C   UNL     1       2.858   7.150  -3.915  0.00  0.00    +0.000 A 
ATOM     11  S   UNL     1       2.549   3.962  -7.142  0.00  0.00    -0.083 S 
ATOM     12  C   UNL     1       1.551   4.710  -8.435  0.00  0.00    +0.072 A 
ATOM     13  C   UNL     1       0.458   5.561  -8.356  0.00  0.00    +0.199 A 
ATOM     14  C   UNL     1      -0.008   6.204  -9.482  0.00  0.00    +0.047 A 
ATOM     15  C   UNL     1       0.788   6.299 -10.615  0.00  0.00    +0.004 A 
ATOM     16  C   UNL     1       2.092   5.835 -10.518  0.00  0.00    +0.001 A 
ATOM     17  C   UNL     1       2.304   4.817  -9.598  0.00  0.00    +0.010 A 
ATOM     18  C   UNL     1       1.578   6.859  -4.370  0.00  0.00    +0.008 A 
ATOM     19  N   UNL     1      -0.289   5.803  -7.179  0.00  0.00    -0.040 NA
ATOM     20  C   UNL     1      -1.524   7.631  -4.888  0.00  0.00    +0.220 C 
ATOM     21  C   UNL     1      -1.838   7.860  -3.415  0.00  0.00    +0.124 C 
ENDROOT
BRANCH   1  22
ATOM     22  C   UNL     1      -2.685   6.906  -1.459  0.00  0.00    +0.105 C 
BRANCH  22  23
ATOM     23  C   UNL     1      -1.405   7.573  -1.033  0.00  0.00    +0.160 C 
BRANCH  23  24
ATOM     24  O   UNL     1      -1.597   8.544  -0.066  0.00  0.00    -0.350 OA
BRANCH  24  25
ATOM     25  C   UNL     1      -2.193   8.042   1.095  0.00  0.00    +0.178 C 
BRANCH  25  27
ATOM     26  O   UNL     1      -3.563   9.393   2.521  0.00  0.00    -0.218 OA
ATOM     27  C   UNL     1      -2.248   9.163   2.117  0.00  0.00    +0.214 C 
ENDBRANCH  25  27
ENDBRANCH  24  25
ENDBRANCH  23  24
ENDBRANCH  22  23
ENDBRANCH   1  22
TORSDOF 5
ENDMDL
MODEL 6
REMARK VINA RESULT:      -7.2      2.067      2.354
REMARK  Name = 
REMARK  5 active torsions:
REMARK  status: ('A' for Active; 'I' for Inactive)
REMARK    1  A    between atoms: C_2  and  C_3
REMARK    2  A    between atoms: C_3  and  O_4
REMARK    3  A    between atoms: O_4  and  C_5
REMARK    4  A    between atoms: C_5  and  C_6
REMARK    5  A    between atoms: C_6  and  N_7
REMARK                            x       y       z     vdW  Elec       q    Type
REMARK                         _______ _______ _______ _____ _____    ______ ____
ROOT
ATOM      1  N   UNL     1       3.037   5.308  -7.390  0.00  0.00    -0.264 NA
ATOM      2  C   UNL     1       2.706   4.300  -6.413  0.00  0.00    +0.124 C 
ATOM      3  C   UNL     1       1.641   4.735  -5.445  0.00  0.00    +0.220 C 
ATOM      4  N   UNL     1       1.996   5.984  -4.809  0.00  0.00    -0.188 N 
ATOM      5  C   UNL     1       1.381   6.290  -3.551  0.00  0.00    +0.324 C 
ATOM      6  C   UNL     1      -0.052   6.583  -3.677  0.00  0.00    +0.088 A 
ATOM      7  C   UNL     1      -1.066   6.269  -2.779  0.00  0.00    +0.037 A 
ATOM      8  C   UNL     1      -2.284   6.919  -2.938  0.00  0.00    +0.007 A 
ATOM      9  C   UNL     1      -2.403   7.882  -3.928  0.00  0.00    +0.001 A 
ATOM     10  C   UNL     1      -1.577   7.820  -5.042  0.00  0.00    +0.000 A 
ATOM     11  S   UNL     1      -0.902   5.669  -1.094  0.00  0.00    -0.083 S 
ATOM     12  C   UNL     1       0.662   6.307  -0.482  0.00  0.00    +0.072 A 
ATOM     13  C   UNL     1       1.822   6.655  -1.157  0.00  0.00    +0.199 A 
ATOM     14  C   UNL     1       2.823   7.349  -0.513  0.00  0.00    +0.047 A 
ATOM     15  C   UNL     1       2.562   8.011   0.680  0.00  0.00    +0.004 A 
ATOM     16  C   UNL     1       1.244   8.041   1.115  0.00  0.00    +0.001 A 
ATOM     17  C   UNL     1       0.453   6.971   0.720  0.00  0.00    +0.010 A 
ATOM     18  C   UNL     1      -0.339   7.211  -4.878  0.00  0.00    +0.008 A 
ATOM     19  N   UNL     1       2.110   6.302  -2.498  0.00  0.00    -0.040 NA
ATOM     20  C   UNL     1       2.817   6.913  -5.537  0.00  0.00    +0.220 C 
ATOM     21  C   UNL     1       2.604   6.631  -7.019  0.00  0.00    +0.124 C 
ENDROOT
BRANCH   1  22
ATOM     22  C   UNL     1       2.386   4.971  -8.648  0.00  0.00    +0.105 C 
BRANCH  22  23
ATOM     23  C   UNL     1       2.822   5.919  -9.732  0.00  0.00    +0.160 C 
BRANCH  23  24
ATOM     24  O   UNL     1       4.052   5.591 -10.276  0.00  0.00    -0.350 OA
BRANCH  24  25
ATOM     25  C   UNL     1       4.023   5.511 -11.671  0.00  0.00    +0.178 C 
BRANCH  25  27
ATOM     26  O   UNL     1       5.566   4.784 -13.352  0.00  0.00    -0.218 OA
ATOM     27  C   UNL     1       5.456   5.519 -12.171  0.00  0.00    +0.214 C 
ENDBRANCH  25  27
ENDBRANCH  24  25
ENDBRANCH  23  24
ENDBRANCH  22  23
ENDBRANCH   1  22
TORSDOF 5
ENDMDL
MODEL 7
REMARK VINA RESULT:      -7.1      4.095      7.694
REMARK  Name = 
REMARK  5 active torsions:
REMARK  status: ('A' for Active; 'I' for Inactive)
REMARK    1  A    between atoms: C_2  and  C_3
REMARK    2  A    between atoms: C_3  and  O_4
REMARK    3  A    between atoms: O_4  and  C_5
REMARK    4  A    between atoms: C_5  and  C_6
REMARK    5  A    between atoms: C_6  and  N_7
REMARK                            x       y       z     vdW  Elec       q    Type
REMARK                         _______ _______ _______ _____ _____    ______ ____
ROOT
ATOM      1  N   UNL     1       4.343   6.256  -1.628  0.00  0.00    -0.264 NA
ATOM      2  C   UNL     1       4.330   7.445  -2.444  0.00  0.00    +0.124 C 
ATOM      3  C   UNL     1       3.476   7.314  -3.674  0.00  0.00    +0.220 C 
ATOM      4  N   UNL     1       3.855   6.153  -4.448  0.00  0.00    -0.188 N 
ATOM      5  C   UNL     1       3.515   6.140  -5.840  0.00  0.00    +0.324 C 
ATOM      6  C   UNL     1       2.070   6.013  -6.070  0.00  0.00    +0.088 A 
ATOM      7  C   UNL     1       1.315   6.597  -7.081  0.00  0.00    +0.037 A 
ATOM      8  C   UNL     1       0.041   6.088  -7.302  0.00  0.00    +0.007 A 
ATOM      9  C   UNL     1      -0.381   4.998  -6.558  0.00  0.00    +0.001 A 
ATOM     10  C   UNL     1       0.176   4.769  -5.307  0.00  0.00    +0.000 A 
ATOM     11  S   UNL     1       1.906   7.442  -8.552  0.00  0.00    -0.083 S 
ATOM     12  C   UNL     1       3.506   6.723  -8.938  0.00  0.00    +0.072 A 
ATOM     13  C   UNL     1       4.450   6.124  -8.117  0.00  0.00    +0.199 A 
ATOM     14  C   UNL     1       5.505   5.425  -8.662  0.00  0.00    +0.047 A 
ATOM     15  C   UNL     1       5.463   5.009  -9.985  0.00  0.00    +0.004 A 
ATOM     16  C   UNL     1       4.279   5.217 -10.680  0.00  0.00    +0.001 A 
ATOM     17  C   UNL     1       3.516   6.299 -10.261  0.00  0.00    +0.010 A 
ATOM     18  C   UNL     1       1.467   5.236  -5.094  0.00  0.00    +0.008 A 
ATOM     19  N   UNL     1       4.458   6.210  -6.704  0.00  0.00    -0.040 NA
ATOM     20  C   UNL     1       4.407   5.020  -3.755  0.00  0.00    +0.220 C 
ATOM     21  C   UNL     1       3.891   5.078  -2.323  0.00  0.00    +0.124 C 
ENDROOT
BRANCH   1  22
ATOM     22  C   UNL     1       3.457   6.459  -0.490  0.00  0.00    +0.105 C 
BRANCH  22  23
ATOM     23  C   UNL     1       2.158   5.730  -0.703  0.00  0.00    +0.160 C 
BRANCH  23  24
ATOM     24  O   UNL     1       1.156   6.150   0.155  0.00  0.00    -0.350 OA
BRANCH  24  25
ATOM     25  C   UNL     1      -0.077   6.299  -0.486  0.00  0.00    +0.178 C 
BRANCH  25  27
ATOM     26  O   UNL     1      -1.414   5.006  -1.995  0.00  0.00    -0.218 OA
ATOM     27  C   UNL     1      -0.103   5.361  -1.679  0.00  0.00    +0.214 C 
ENDBRANCH  25  27
ENDBRANCH  24  25
ENDBRANCH  23  24
ENDBRANCH  22  23
ENDBRANCH   1  22
TORSDOF 5
ENDMDL
MODEL 8
REMARK VINA RESULT:      -7.0      4.160      6.155
REMARK  Name = 
REMARK  5 active torsions:
REMARK  status: ('A' for Active; 'I' for Inactive)
REMARK    1  A    between atoms: C_2  and  C_3
REMARK    2  A    between atoms: C_3  and  O_4
REMARK    3  A    between atoms: O_4  and  C_5
REMARK    4  A    between atoms: C_5  and  C_6
REMARK    5  A    between atoms: C_6  and  N_7
REMARK                            x       y       z     vdW  Elec       q    Type
REMARK                         _______ _______ _______ _____ _____    ______ ____
ROOT
ATOM      1  N   UNL     1       7.334   6.651 -12.714  0.00  0.00    -0.264 NA
ATOM      2  C   UNL     1       7.270   5.391 -12.016  0.00  0.00    +0.124 C 
ATOM      3  C   UNL     1       5.916   5.103 -11.428  0.00  0.00    +0.220 C 
ATOM      4  N   UNL     1       5.475   6.191 -10.584  0.00  0.00    -0.188 N 
ATOM      5  C   UNL     1       4.490   5.903  -9.585  0.00  0.00    +0.324 C 
ATOM      6  C   UNL     1       3.170   5.608 -10.158  0.00  0.00    +0.088 A 
ATOM      7  C   UNL     1       2.225   4.700  -9.695  0.00  0.00    +0.037 A 
ATOM      8  C   UNL     1       0.932   4.815 -10.189  0.00  0.00    +0.007 A 
ATOM      9  C   UNL     1       0.638   5.856 -11.057  0.00  0.00    +0.001 A 
ATOM     10  C   UNL     1       1.654   6.410 -11.824  0.00  0.00    +0.000 A 
ATOM     11  S   UNL     1       2.210   3.826  -8.125  0.00  0.00    -0.083 S 
ATOM     12  C   UNL     1       3.084   4.875  -6.957  0.00  0.00    +0.072 A 
ATOM     13  C   UNL     1       4.081   5.818  -7.159  0.00  0.00    +0.199 A 
ATOM     14  C   UNL     1       4.442   6.679  -6.145  0.00  0.00    +0.047 A 
ATOM     15  C   UNL     1       3.608   6.863  -5.051  0.00  0.00    +0.004 A 
ATOM     16  C   UNL     1       2.364   6.248  -5.087  0.00  0.00    +0.001 A 
ATOM     17  C   UNL     1       2.291   5.080  -5.835  0.00  0.00    +0.010 A 
ATOM     18  C   UNL     1       2.944   6.338 -11.314  0.00  0.00    +0.008 A 
ATOM     19  N   UNL     1       4.832   5.953  -8.351  0.00  0.00    -0.040 NA
ATOM     20  C   UNL     1       5.928   7.521 -10.891  0.00  0.00    +0.220 C 
ATOM     21  C   UNL     1       6.258   7.548 -12.378  0.00  0.00    +0.124 C 
ENDROOT
BRANCH   1  22
ATOM     22  C   UNL     1       7.260   6.397 -14.146  0.00  0.00    +0.105 C 
BRANCH  22  23
ATOM     23  C   UNL     1       6.201   7.260 -14.776  0.00  0.00    +0.160 C 
BRANCH  23  24
ATOM     24  O   UNL     1       6.696   8.080 -15.776  0.00  0.00    -0.350 OA
BRANCH  24  25
ATOM     25  C   UNL     1       5.699   8.539 -16.642  0.00  0.00    +0.178 C 
BRANCH  25  27
ATOM     26  O   UNL     1       4.454   6.925 -17.898  0.00  0.00    -0.218 OA
ATOM     27  C   UNL     1       4.573   7.522 -16.643  0.00  0.00    +0.214 C 
ENDBRANCH  25  27
ENDBRANCH  24  25
ENDBRANCH  23  24
ENDBRANCH  22  23
ENDBRANCH   1  22
TORSDOF 5
ENDMDL
MODEL 9
REMARK VINA RESULT:      -7.0      3.220      3.963
REMARK  Name = 
REMARK  5 active torsions:
REMARK  status: ('A' for Active; 'I' for Inactive)
REMARK    1  A    between atoms: C_2  and  C_3
REMARK    2  A    between atoms: C_3  and  O_4
REMARK    3  A    between atoms: O_4  and  C_5
REMARK    4  A    between atoms: C_5  and  C_6
REMARK    5  A    between atoms: C_6  and  N_7
REMARK                            x       y       z     vdW  Elec       q    Type
REMARK                         _______ _______ _______ _____ _____    ______ ____
ROOT
ATOM      1  N   UNL     1       4.567   6.004 -11.505  0.00  0.00    -0.264 NA
ATOM      2  C   UNL     1       4.994   4.970 -10.594  0.00  0.00    +0.124 C 
ATOM      3  C   UNL     1       4.081   4.802  -9.412  0.00  0.00    +0.220 C 
ATOM      4  N   UNL     1       3.889   6.059  -8.722  0.00  0.00    -0.188 N 
ATOM      5  C   UNL     1       3.480   6.011  -7.350  0.00  0.00    +0.324 C 
ATOM      6  C   UNL     1       2.101   5.534  -7.186  0.00  0.00    +0.088 A 
ATOM      7  C   UNL     1       1.590   4.748  -6.159  0.00  0.00    +0.037 A 
ATOM      8  C   UNL     1       0.208   4.688  -6.028  0.00  0.00    +0.007 A 
ATOM      9  C   UNL     1      -0.578   5.454  -6.876  0.00  0.00    +0.001 A 
ATOM     10  C   UNL     1      -0.082   5.820  -8.120  0.00  0.00    +0.000 A 
ATOM     11  S   UNL     1       2.375   4.318  -4.602  0.00  0.00    -0.083 S 
ATOM     12  C   UNL     1       3.501   5.664  -4.217  0.00  0.00    +0.072 A 
ATOM     13  C   UNL     1       4.165   6.554  -5.049  0.00  0.00    +0.199 A 
ATOM     14  C   UNL     1       4.794   7.661  -4.525  0.00  0.00    +0.047 A 
ATOM     15  C   UNL     1       4.492   8.100  -3.243  0.00  0.00    +0.004 A 
ATOM     16  C   UNL     1       3.458   7.456  -2.578  0.00  0.00    +0.001 A 
ATOM     17  C   UNL     1       3.243   6.131  -2.934  0.00  0.00    +0.010 A 
ATOM     18  C   UNL     1       1.298   5.926  -8.244  0.00  0.00    +0.008 A 
ATOM     19  N   UNL     1       4.305   6.395  -6.449  0.00  0.00    -0.040 NA
ATOM     20  C   UNL     1       3.967   7.276  -9.485  0.00  0.00    +0.220 C 
ATOM     21  C   UNL     1       3.620   6.922 -10.927  0.00  0.00    +0.124 C 
ENDROOT
BRANCH   1  22
ATOM     22  C   UNL     1       3.927   5.380 -12.654  0.00  0.00    +0.105 C 
BRANCH  22  23
ATOM     23  C   UNL     1       4.664   5.733 -13.917  0.00  0.00    +0.160 C 
BRANCH  23  24
ATOM     24  O   UNL     1       5.877   5.076 -14.037  0.00  0.00    -0.350 OA
BRANCH  24  25
ATOM     25  C   UNL     1       6.950   5.952 -14.226  0.00  0.00    +0.178 C 
BRANCH  25  27
ATOM     26  O   UNL     1       7.895   4.538 -12.540  0.00  0.00    -0.218 OA
ATOM     27  C   UNL     1       7.859   5.849 -13.015  0.00  0.00    +0.214 C 
ENDBRANCH  25  27
ENDBRANCH  24  25
ENDBRANCH  23  24
ENDBRANCH  22  23
ENDBRANCH   1  22
TORSDOF 5
ENDMDL
