MODEL 1
REMARK VINA RESULT:      -7.5      0.000      0.000
REMARK  Name = 
REMARK  4 active torsions:
REMARK  status: ('A' for Active; 'I' for Inactive)
REMARK    1  A    between atoms: O_2  and  C_3
REMARK    2  A    between atoms: C_19  and  C_20
REMARK    3  A    between atoms: C_20  and  O_21
REMARK    4  A    between atoms: O_21  and  C_22
REMARK                            x       y       z     vdW  Elec       q    Type
REMARK                         _______ _______ _______ _____ _____    ______ ____
ROOT
ATOM      1  C   UNL     1       2.827   5.602  -9.119  0.00  0.00    +0.177 C 
ATOM      2  C   UNL     1       4.072   5.281 -10.052  0.00  0.00    +0.115 C 
ATOM      3  C   UNL     1       3.424   5.974 -11.353  0.00  0.00    +0.042 C 
ATOM      4  C   UNL     1       3.833   5.561 -12.756  0.00  0.00    +0.210 C 
ATOM      5  C   UNL     1       2.936   5.780 -13.894  0.00  0.00    +0.127 C 
ATOM      6  C   UNL     1       1.632   5.784 -13.682  0.00  0.00    +0.038 C 
ATOM      7  C   UNL     1       1.202   5.652 -12.274  0.00  0.00    +0.206 C 
ATOM      8  O   UNL     1      -0.015   5.495 -12.081  0.00  0.00    -0.286 OA
ATOM      9  C   UNL     1       0.703   6.082 -14.787  0.00  0.00    +0.036 C 
ATOM     10  N   UNL     1       3.504   6.258 -15.118  0.00  0.00    -0.125 NA
ATOM     11  O   UNL     1       5.015   5.393 -13.025  0.00  0.00    -0.285 OA
ATOM     12  C   UNL     1       2.122   6.053 -11.181  0.00  0.00    +0.088 C 
ATOM     13  N   UNL     1       1.939   6.395  -9.824  0.00  0.00    -0.284 N 
ATOM     14  C   UNL     1       0.933   6.262  -8.791  0.00  0.00    +0.112 C 
ATOM     15  C   UNL     1       1.671   6.812  -7.439  0.00  0.00    +0.113 C 
ATOM     16  N   UNL     1       2.578   7.966  -8.277  0.00  0.00    -0.212 NA
ATOM     17  C   UNL     1       3.273   6.478  -7.844  0.00  0.00    +0.133 C 
ENDROOT
BRANCH   1  19
ATOM     18  C   UNL     1       2.697   3.648  -8.524  0.00  0.00    +0.176 C 
ATOM     19  O   UNL     1       2.345   4.377  -8.650  0.00  0.00    -0.337 OA
ENDBRANCH   1  19
BRANCH   2  20
ATOM     20  C   UNL     1       4.953   6.600  -9.633  0.00  0.00    +0.219 C 
BRANCH  20  21
ATOM     21  O   UNL     1       6.273   6.175  -9.997  0.00  0.00    -0.432 OA
BRANCH  21  22
ATOM     22  C   UNL     1       7.017   7.113 -10.749  0.00  0.00    +0.441 C 
ATOM     23  O   UNL     1       7.975   6.562 -11.398  0.00  0.00    -0.223 OA
ATOM     24  N   UNL     1       6.424   8.185 -11.454  0.00  0.00    -0.048 NA
ENDBRANCH  21  22
ENDBRANCH  20  21
ENDBRANCH   2  20
TORSDOF 4
ENDMDL
MODEL 2
REMARK VINA RESULT:      -7.3      4.709      8.923
REMARK  Name = 
REMARK  4 active torsions:
REMARK  status: ('A' for Active; 'I' for Inactive)
REMARK    1  A    between atoms: O_2  and  C_3
REMARK    2  A    between atoms: C_19  and  C_20
REMARK    3  A    between atoms: C_20  and  O_21
REMARK    4  A    between atoms: O_21  and  C_22
REMARK                            x       y       z     vdW  Elec       q    Type
REMARK                         _______ _______ _______ _____ _____    ______ ____
ROOT
ATOM      1  C   UNL     1       1.892   5.475  -6.321  0.00  0.00    +0.177 C 
ATOM      2  C   UNL     1       0.684   5.077  -5.367  0.00  0.00    +0.115 C 
ATOM      3  C   UNL     1       1.345   5.744  -4.059  0.00  0.00    +0.042 C 
ATOM      4  C   UNL     1       0.990   5.266  -2.662  0.00  0.00    +0.210 C 
ATOM      5  C   UNL     1       1.910   5.474  -1.542  0.00  0.00    +0.127 C 
ATOM      6  C   UNL     1       3.207   5.530  -1.788  0.00  0.00    +0.038 C 
ATOM      7  C   UNL     1       3.602   5.465  -3.211  0.00  0.00    +0.206 C 
ATOM      8  O   UNL     1       4.817   5.358  -3.441  0.00  0.00    -0.286 OA
ATOM      9  C   UNL     1       4.156   5.820  -0.697  0.00  0.00    +0.036 C 
ATOM     10  N   UNL     1       1.361   5.886  -0.286  0.00  0.00    -0.125 NA
ATOM     11  O   UNL     1      -0.178   5.046  -2.369  0.00  0.00    -0.285 OA
ATOM     12  C   UNL     1       2.638   5.875  -4.263  0.00  0.00    +0.088 C 
ATOM     13  N   UNL     1       2.772   6.272  -5.610  0.00  0.00    -0.284 N 
ATOM     14  C   UNL     1       3.752   6.212  -6.674  0.00  0.00    +0.112 C 
ATOM     15  C   UNL     1       2.959   6.786  -7.984  0.00  0.00    +0.113 C 
ATOM     16  N   UNL     1       2.038   7.876  -7.079  0.00  0.00    -0.212 NA
ATOM     17  C   UNL     1       1.381   6.381  -7.549  0.00  0.00    +0.133 C 
ENDROOT
BRANCH   1  19
ATOM     18  C   UNL     1       2.158   3.505  -6.804  0.00  0.00    +0.176 C 
ATOM     19  O   UNL     1       2.401   4.285  -6.848  0.00  0.00    -0.337 OA
ENDBRANCH   1  19
BRANCH   2  20
ATOM     20  C   UNL     1      -0.251   6.379  -5.713  0.00  0.00    +0.219 C 
BRANCH  20  21
ATOM     21  O   UNL     1      -1.522   5.945  -5.211  0.00  0.00    -0.432 OA
BRANCH  21  22
ATOM     22  C   UNL     1      -2.317   6.962  -4.634  0.00  0.00    +0.441 C 
ATOM     23  O   UNL     1      -2.968   6.546  -3.612  0.00  0.00    -0.223 OA
ATOM     24  N   UNL     1      -1.883   8.300  -4.500  0.00  0.00    -0.048 NA
ENDBRANCH  21  22
ENDBRANCH  20  21
ENDBRANCH   2  20
TORSDOF 4
ENDMDL
MODEL 3
REMARK VINA RESULT:      -7.2      4.272      7.212
REMARK  Name = 
REMARK  4 active torsions:
REMARK  status: ('A' for Active; 'I' for Inactive)
REMARK    1  A    between atoms: O_2  and  C_3
REMARK    2  A    between atoms: C_19  and  C_20
REMARK    3  A    between atoms: C_20  and  O_21
REMARK    4  A    between atoms: O_21  and  C_22
REMARK                            x       y       z     vdW  Elec       q    Type
REMARK                         _______ _______ _______ _____ _____    ______ ____
ROOT
ATOM      1  C   UNL     1       1.939   5.962  -7.245  0.00  0.00    +0.177 C 
ATOM      2  C   UNL     1       2.397   6.305  -5.763  0.00  0.00    +0.115 C 
ATOM      3  C   UNL     1       1.153   5.545  -5.078  0.00  0.00    +0.042 C 
ATOM      4  C   UNL     1       0.653   5.930  -3.697  0.00  0.00    +0.210 C 
ATOM      5  C   UNL     1      -0.723   5.638  -3.289  0.00  0.00    +0.127 C 
ATOM      6  C   UNL     1      -1.662   5.586  -4.217  0.00  0.00    +0.038 C 
ATOM      7  C   UNL     1      -1.205   5.744  -5.614  0.00  0.00    +0.206 C 
ATOM      8  O   UNL     1      -2.093   5.855  -6.475  0.00  0.00    -0.286 OA
ATOM      9  C   UNL     1      -3.042   5.214  -3.854  0.00  0.00    +0.036 C 
ATOM     10  N   UNL     1      -0.944   5.146  -1.963  0.00  0.00    -0.125 NA
ATOM     11  O   UNL     1       1.452   6.140  -2.793  0.00  0.00    -0.285 OA
ATOM     12  C   UNL     1       0.197   5.416  -5.972  0.00  0.00    +0.088 C 
ATOM     13  N   UNL     1       0.850   5.110  -7.185  0.00  0.00    -0.284 N 
ATOM     14  C   UNL     1       0.622   5.233  -8.609  0.00  0.00    +0.112 C 
ATOM     15  C   UNL     1       2.033   4.757  -9.286  0.00  0.00    +0.113 C 
ATOM     16  N   UNL     1       2.348   3.616  -8.079  0.00  0.00    -0.212 NA
ATOM     17  C   UNL     1       3.086   5.146  -8.027  0.00  0.00    +0.133 C 
ENDROOT
BRANCH   1  19
ATOM     18  C   UNL     1       2.145   7.898  -7.874  0.00  0.00    +0.176 C 
ATOM     19  O   UNL     1       1.754   7.180  -7.905  0.00  0.00    -0.337 OA
ENDBRANCH   1  19
BRANCH   2  20
ATOM     20  C   UNL     1       3.426   5.039  -5.596  0.00  0.00    +0.219 C 
BRANCH  20  21
ATOM     21  O   UNL     1       4.661   5.720  -5.345  0.00  0.00    -0.432 OA
BRANCH  21  22
ATOM     22  C   UNL     1       4.649   6.590  -4.230  0.00  0.00    +0.441 C 
ATOM     23  O   UNL     1       4.706   5.954  -3.120  0.00  0.00    -0.223 OA
ATOM     24  N   UNL     1       5.354   7.815  -4.196  0.00  0.00    -0.048 NA
ENDBRANCH  21  22
ENDBRANCH  20  21
ENDBRANCH   2  20
TORSDOF 4
ENDMDL
MODEL 4
REMARK VINA RESULT:      -7.2      2.117      4.586
REMARK  Name = 
REMARK  4 active torsions:
REMARK  status: ('A' for Active; 'I' for Inactive)
REMARK    1  A    between atoms: O_2  and  C_3
REMARK    2  A    between atoms: C_19  and  C_20
REMARK    3  A    between atoms: C_20  and  O_21
REMARK    4  A    between atoms: O_21  and  C_22
REMARK                            x       y       z     vdW  Elec       q    Type
REMARK                         _______ _______ _______ _____ _____    ______ ____
ROOT
ATOM      1  C   UNL     1       2.785   5.942  -8.415  0.00  0.00    +0.177 C 
ATOM      2  C   UNL     1       2.347   6.187  -9.922  0.00  0.00    +0.115 C 
ATOM      3  C   UNL     1       3.639   5.451 -10.539  0.00  0.00    +0.042 C 
ATOM      4  C   UNL     1       4.153   5.787 -11.928  0.00  0.00    +0.210 C 
ATOM      5  C   UNL     1       5.550   5.538 -12.292  0.00  0.00    +0.127 C 
ATOM      6  C   UNL     1       6.469   5.578 -11.343  0.00  0.00    +0.038 C 
ATOM      7  C   UNL     1       5.973   5.786  -9.966  0.00  0.00    +0.206 C 
ATOM      8  O   UNL     1       6.834   5.982  -9.094  0.00  0.00    -0.286 OA
ATOM      9  C   UNL     1       7.872   5.252 -11.657  0.00  0.00    +0.036 C 
ATOM     10  N   UNL     1       5.823   4.990 -13.585  0.00  0.00    -0.125 NA
ATOM     11  O   UNL     1       3.367   5.913 -12.858  0.00  0.00    -0.285 OA
ATOM     12  C   UNL     1       4.579   5.413  -9.620  0.00  0.00    +0.088 C 
ATOM     13  N   UNL     1       3.913   5.140  -8.407  0.00  0.00    -0.284 N 
ATOM     14  C   UNL     1       4.102   5.346  -6.987  0.00  0.00    +0.112 C 
ATOM     15  C   UNL     1       2.698   4.841  -6.316  0.00  0.00    +0.113 C 
ATOM     16  N   UNL     1       2.463   3.626  -7.468  0.00  0.00    -0.212 NA
ATOM     17  C   UNL     1       1.659   5.116  -7.614  0.00  0.00    +0.133 C 
ENDROOT
BRANCH   1  19
ATOM     18  C   UNL     1       2.453   7.884  -7.861  0.00  0.00    +0.176 C 
ATOM     19  O   UNL     1       2.900   7.200  -7.816  0.00  0.00    -0.337 OA
ENDBRANCH   1  19
BRANCH   2  20
ATOM     20  C   UNL     1       1.380   4.867 -10.043  0.00  0.00    +0.219 C 
BRANCH  20  21
ATOM     21  O   UNL     1       0.128   5.475 -10.386  0.00  0.00    -0.432 OA
BRANCH  21  22
ATOM     22  C   UNL     1       0.179   6.380 -11.472  0.00  0.00    +0.441 C 
ATOM     23  O   UNL     1       0.201   5.778 -12.602  0.00  0.00    -0.223 OA
ATOM     24  N   UNL     1      -0.554   7.588 -11.508  0.00  0.00    -0.048 NA
ENDBRANCH  21  22
ENDBRANCH  20  21
ENDBRANCH   2  20
TORSDOF 4
ENDMDL
MODEL 5
REMARK VINA RESULT:      -7.1      4.696      7.665
REMARK  Name = 
REMARK  4 active torsions:
REMARK  status: ('A' for Active; 'I' for Inactive)
REMARK    1  A    between atoms: O_2  and  C_3
REMARK    2  A    between atoms: C_19  and  C_20
REMARK    3  A    between atoms: C_20  and  O_21
REMARK    4  A    between atoms: O_21  and  C_22
REMARK                            x       y       z     vdW  Elec       q    Type
REMARK                         _______ _______ _______ _____ _____    ______ ____
ROOT
ATOM      1  C   UNL     1       3.376   5.921  -3.651  0.00  0.00    +0.177 C 
ATOM      2  C   UNL     1       2.721   5.740  -5.087  0.00  0.00    +0.115 C 
ATOM      3  C   UNL     1       1.248   6.167  -4.596  0.00  0.00    +0.042 C 
ATOM      4  C   UNL     1       0.003   5.696  -5.327  0.00  0.00    +0.210 C 
ATOM      5  C   UNL     1      -1.290   5.630  -4.641  0.00  0.00    +0.127 C 
ATOM      6  C   UNL     1      -1.306   5.416  -3.337  0.00  0.00    +0.038 C 
ATOM      7  C   UNL     1       0.013   5.351  -2.673  0.00  0.00    +0.206 C 
ATOM      8  O   UNL     1       0.014   4.995  -1.484  0.00  0.00    -0.286 OA
ATOM      9  C   UNL     1      -2.584   5.426  -2.601  0.00  0.00    +0.036 C 
ATOM     10  N   UNL     1      -2.452   6.077  -5.348  0.00  0.00    -0.125 NA
ATOM     11  O   UNL     1      -0.035   5.720  -6.551  0.00  0.00    -0.285 OA
ATOM     12  C   UNL     1       1.183   6.024  -3.291  0.00  0.00    +0.088 C 
ATOM     13  N   UNL     1       2.431   6.462  -2.798  0.00  0.00    -0.284 N 
ATOM     14  C   UNL     1       3.285   6.253  -1.649  0.00  0.00    +0.112 C 
ATOM     15  C   UNL     1       4.658   7.063  -2.015  0.00  0.00    +0.113 C 
ATOM     16  N   UNL     1       3.841   8.273  -2.867  0.00  0.00    -0.212 NA
ATOM     17  C   UNL     1       4.581   6.988  -3.698  0.00  0.00    +0.133 C 
ENDROOT
BRANCH   1  19
ATOM     18  C   UNL     1       4.322   4.107  -3.711  0.00  0.00    +0.176 C 
ATOM     19  O   UNL     1       3.915   4.682  -3.293  0.00  0.00    -0.337 OA
ENDBRANCH   1  19
BRANCH   2  20
ATOM     20  C   UNL     1       3.104   7.234  -5.647  0.00  0.00    +0.219 C 
BRANCH  20  21
ATOM     21  O   UNL     1       3.537   6.925  -6.978  0.00  0.00    -0.432 OA
BRANCH  21  22
ATOM     22  C   UNL     1       2.601   7.220  -7.995  0.00  0.00    +0.441 C 
ATOM     23  O   UNL     1       2.103   8.393  -7.870  0.00  0.00    -0.223 OA
ATOM     24  N   UNL     1       2.781   6.842  -9.346  0.00  0.00    -0.048 NA
ENDBRANCH  21  22
ENDBRANCH  20  21
ENDBRANCH   2  20
TORSDOF 4
ENDMDL
MODEL 6
REMARK VINA RESULT:      -6.8      6.439      8.956
REMARK  Name = 
REMARK  4 active torsions:
REMARK  status: ('A' for Active; 'I' for Inactive)
REMARK    1  A    between atoms: O_2  and  C_3
REMARK    2  A    between atoms: C_19  and  C_20
REMARK    3  A    between atoms: C_20  and  O_21
REMARK    4  A    between atoms: O_21  and  C_22
REMARK                            x       y       z     vdW  Elec       q    Type
REMARK                         _______ _______ _______ _____ _____    ______ ____
ROOT
ATOM      1  C   UNL     1       3.162   6.198  -3.659  0.00  0.00    +0.177 C 
ATOM      2  C   UNL     1       2.284   6.215  -2.335  0.00  0.00    +0.115 C 
ATOM      3  C   UNL     1       1.011   5.516  -3.032  0.00  0.00    +0.042 C 
ATOM      4  C   UNL     1      -0.395   5.716  -2.494  0.00  0.00    +0.210 C 
ATOM      5  C   UNL     1      -1.562   5.539  -3.361  0.00  0.00    +0.127 C 
ATOM      6  C   UNL     1      -1.432   5.773  -4.655  0.00  0.00    +0.038 C 
ATOM      7  C   UNL     1      -0.071   6.112  -5.120  0.00  0.00    +0.206 C 
ATOM      8  O   UNL     1       0.031   6.488  -6.299  0.00  0.00    -0.286 OA
ATOM      9  C   UNL     1      -2.562   5.527  -5.569  0.00  0.00    +0.036 C 
ATOM     10  N   UNL     1      -2.701   4.856  -2.828  0.00  0.00    -0.125 NA
ATOM     11  O   UNL     1      -0.603   5.658  -1.289  0.00  0.00    -0.285 OA
ATOM     12  C   UNL     1       1.109   5.672  -4.334  0.00  0.00    +0.088 C 
ATOM     13  N   UNL     1       2.476   5.500  -4.636  0.00  0.00    -0.284 N 
ATOM     14  C   UNL     1       3.429   5.898  -5.650  0.00  0.00    +0.112 C 
ATOM     15  C   UNL     1       4.868   5.368  -5.082  0.00  0.00    +0.113 C 
ATOM     16  N   UNL     1       4.193   4.002  -4.349  0.00  0.00    -0.212 NA
ATOM     17  C   UNL     1       4.535   5.390  -3.429  0.00  0.00    +0.133 C 
ENDROOT
BRANCH   1  19
ATOM     18  C   UNL     1       3.829   8.127  -3.502  0.00  0.00    +0.176 C 
ATOM     19  O   UNL     1       3.490   7.527  -3.944  0.00  0.00    -0.337 OA
ENDBRANCH   1  19
BRANCH   2  20
ATOM     20  C   UNL     1       2.872   4.815  -1.714  0.00  0.00    +0.219 C 
BRANCH  20  21
ATOM     21  O   UNL     1       2.925   5.135  -0.318  0.00  0.00    -0.432 OA
BRANCH  21  22
ATOM     22  C   UNL     1       3.539   6.371  -0.010  0.00  0.00    +0.441 C 
ATOM     23  O   UNL     1       2.848   7.062   0.817  0.00  0.00    -0.223 OA
ATOM     24  N   UNL     1       4.932   6.514   0.184  0.00  0.00    -0.048 NA
ENDBRANCH  21  22
ENDBRANCH  20  21
ENDBRANCH   2  20
TORSDOF 4
ENDMDL
MODEL 7
REMARK VINA RESULT:      -6.6      5.465      9.011
REMARK  Name = 
REMARK  4 active torsions:
REMARK  status: ('A' for Active; 'I' for Inactive)
REMARK    1  A    between atoms: O_2  and  C_3
REMARK    2  A    between atoms: C_19  and  C_20
REMARK    3  A    between atoms: C_20  and  O_21
REMARK    4  A    between atoms: O_21  and  C_22
REMARK                            x       y       z     vdW  Elec       q    Type
REMARK                         _______ _______ _______ _____ _____    ______ ____
ROOT
ATOM      1  C   UNL     1      -1.486   6.769  -3.741  0.00  0.00    +0.177 C 
ATOM      2  C   UNL     1      -0.362   6.659  -4.859  0.00  0.00    +0.115 C 
ATOM      3  C   UNL     1       0.690   5.916  -3.892  0.00  0.00    +0.042 C 
ATOM      4  C   UNL     1       2.186   5.996  -4.142  0.00  0.00    +0.210 C 
ATOM      5  C   UNL     1       3.141   5.789  -3.050  0.00  0.00    +0.127 C 
ATOM      6  C   UNL     1       2.773   6.098  -1.819  0.00  0.00    +0.038 C 
ATOM      7  C   UNL     1       1.375   6.549  -1.652  0.00  0.00    +0.206 C 
ATOM      8  O   UNL     1       1.068   6.991  -0.534  0.00  0.00    -0.286 OA
ATOM      9  C   UNL     1       3.677   5.827  -0.686  0.00  0.00    +0.036 C 
ATOM     10  N   UNL     1       4.310   5.007  -3.315  0.00  0.00    -0.125 NA
ATOM     11  O   UNL     1       2.626   5.862  -5.277  0.00  0.00    -0.285 OA
ATOM     12  C   UNL     1       0.347   6.145  -2.644  0.00  0.00    +0.088 C 
ATOM     13  N   UNL     1      -1.062   6.079  -2.619  0.00  0.00    -0.284 N 
ATOM     14  C   UNL     1      -2.166   6.591  -1.835  0.00  0.00    +0.112 C 
ATOM     15  C   UNL     1      -3.498   6.126  -2.663  0.00  0.00    +0.113 C 
ATOM     16  N   UNL     1      -2.793   4.683  -3.191  0.00  0.00    -0.212 NA
ATOM     17  C   UNL     1      -2.841   6.040  -4.213  0.00  0.00    +0.133 C 
ENDROOT
BRANCH   1  19
ATOM     18  C   UNL     1      -1.912   8.737  -4.107  0.00  0.00    +0.176 C 
ATOM     19  O   UNL     1      -1.764   8.129  -3.579  0.00  0.00    -0.337 OA
ENDBRANCH   1  19
BRANCH   2  20
ATOM     20  C   UNL     1      -0.917   5.270  -5.532  0.00  0.00    +0.219 C 
BRANCH  20  21
ATOM     21  O   UNL     1      -1.083   5.675  -6.897  0.00  0.00    -0.432 OA
BRANCH  21  22
ATOM     22  C   UNL     1       0.068   5.538  -7.707  0.00  0.00    +0.441 C 
ATOM     23  O   UNL     1       0.822   4.579  -7.319  0.00  0.00    -0.223 OA
ATOM     24  N   UNL     1       0.046   5.685  -9.113  0.00  0.00    -0.048 NA
ENDBRANCH  21  22
ENDBRANCH  20  21
ENDBRANCH   2  20
TORSDOF 4
ENDMDL
MODEL 8
REMARK VINA RESULT:      -6.6      7.670     10.655
REMARK  Name = 
REMARK  4 active torsions:
REMARK  status: ('A' for Active; 'I' for Inactive)
REMARK    1  A    between atoms: O_2  and  C_3
REMARK    2  A    between atoms: C_19  and  C_20
REMARK    3  A    between atoms: C_20  and  O_21
REMARK    4  A    between atoms: O_21  and  C_22
REMARK                            x       y       z     vdW  Elec       q    Type
REMARK                         _______ _______ _______ _____ _____    ______ ____
ROOT
ATOM      1  C   UNL     1      -1.705   6.385  -3.265  0.00  0.00    +0.177 C 
ATOM      2  C   UNL     1      -1.408   6.202  -1.715  0.00  0.00    +0.115 C 
ATOM      3  C   UNL     1       0.178   6.429  -1.873  0.00  0.00    +0.042 C 
ATOM      4  C   UNL     1       1.164   5.853  -0.872  0.00  0.00    +0.210 C 
ATOM      5  C   UNL     1       2.557   5.602  -1.249  0.00  0.00    +0.127 C 
ATOM      6  C   UNL     1       2.832   5.323  -2.511  0.00  0.00    +0.038 C 
ATOM      7  C   UNL     1       1.693   5.379  -3.452  0.00  0.00    +0.206 C 
ATOM      8  O   UNL     1       1.909   4.965  -4.602  0.00  0.00    -0.286 OA
ATOM      9  C   UNL     1       4.231   5.146  -2.942  0.00  0.00    +0.036 C 
ATOM     10  N   UNL     1       3.582   5.945  -0.310  0.00  0.00    -0.125 NA
ATOM     11  O   UNL     1       0.935   5.934   0.329  0.00  0.00    -0.285 OA
ATOM     12  C   UNL     1       0.509   6.213  -3.128  0.00  0.00    +0.088 C 
ATOM     13  N   UNL     1      -0.535   6.768  -3.897  0.00  0.00    -0.284 N 
ATOM     14  C   UNL     1      -1.136   6.603  -5.203  0.00  0.00    +0.112 C 
ATOM     15  C   UNL     1      -2.443   7.585  -5.173  0.00  0.00    +0.113 C 
ATOM     16  N   UNL     1      -1.688   8.733  -4.187  0.00  0.00    -0.212 NA
ATOM     17  C   UNL     1      -2.747   7.587  -3.514  0.00  0.00    +0.133 C 
ENDROOT
BRANCH   1  19
ATOM     18  C   UNL     1      -2.976   4.795  -3.478  0.00  0.00    +0.176 C 
ATOM     19  O   UNL     1      -2.303   5.201  -3.706  0.00  0.00    -0.337 OA
ENDBRANCH   1  19
BRANCH   2  20
ATOM     20  C   UNL     1      -1.715   7.756  -1.290  0.00  0.00    +0.219 C 
BRANCH  20  21
ATOM     21  O   UNL     1      -2.158   7.588   0.063  0.00  0.00    -0.432 OA
BRANCH  21  22
ATOM     22  C   UNL     1      -1.606   8.502   0.991  0.00  0.00    +0.441 C 
ATOM     23  O   UNL     1      -0.578   9.105   0.523  0.00  0.00    -0.223 OA
ATOM     24  N   UNL     1      -2.395   9.328   1.825  0.00  0.00    -0.048 NA
ENDBRANCH  21  22
ENDBRANCH  20  21
ENDBRANCH   2  20
TORSDOF 4
ENDMDL
MODEL 9
REMARK VINA RESULT:      -6.6      2.272      4.040
REMARK  Name = 
REMARK  4 active torsions:
REMARK  status: ('A' for Active; 'I' for Inactive)
REMARK    1  A    between atoms: O_2  and  C_3
REMARK    2  A    between atoms: C_19  and  C_20
REMARK    3  A    between atoms: C_20  and  O_21
REMARK    4  A    between atoms: O_21  and  C_22
REMARK                            x       y       z     vdW  Elec       q    Type
REMARK                         _______ _______ _______ _____ _____    ______ ____
ROOT
ATOM      1  C   UNL     1       2.961   5.421  -8.763  0.00  0.00    +0.177 C 
ATOM      2  C   UNL     1       4.444   5.127  -8.273  0.00  0.00    +0.115 C 
ATOM      3  C   UNL     1       5.129   5.914  -9.500  0.00  0.00    +0.042 C 
ATOM      4  C   UNL     1       6.534   5.577  -9.970  0.00  0.00    +0.210 C 
ATOM      5  C   UNL     1       6.962   5.886 -11.336  0.00  0.00    +0.127 C 
ATOM      6  C   UNL     1       6.054   5.908 -12.295  0.00  0.00    +0.038 C 
ATOM      7  C   UNL     1       4.654   5.702 -11.870  0.00  0.00    +0.206 C 
ATOM      8  O   UNL     1       3.817   5.563 -12.777  0.00  0.00    -0.286 OA
ATOM      9  C   UNL     1       6.435   6.296 -13.667  0.00  0.00    +0.036 C 
ATOM     10  N   UNL     1       8.275   6.424 -11.526  0.00  0.00    -0.125 NA
ATOM     11  O   UNL     1       7.426   5.396  -9.151  0.00  0.00    -0.285 OA
ATOM     12  C   UNL     1       4.253   6.014 -10.476  0.00  0.00    +0.088 C 
ATOM     13  N   UNL     1       3.016   6.276  -9.850  0.00  0.00    -0.284 N 
ATOM     14  C   UNL     1       1.603   6.106 -10.110  0.00  0.00    +0.112 C 
ATOM     15  C   UNL     1       0.879   6.554  -8.713  0.00  0.00    +0.113 C 
ATOM     16  N   UNL     1       2.039   7.735  -8.370  0.00  0.00    -0.212 NA
ATOM     17  C   UNL     1       2.126   6.206  -7.633  0.00  0.00    +0.133 C 
ENDROOT
BRANCH   1  19
ATOM     18  C   UNL     1       2.456   3.442  -8.629  0.00  0.00    +0.176 C 
ATOM     19  O   UNL     1       2.348   4.181  -8.965  0.00  0.00    -0.337 OA
ENDBRANCH   1  19
BRANCH   2  20
ATOM     20  C   UNL     1       4.544   6.397  -7.239  0.00  0.00    +0.219 C 
BRANCH  20  21
ATOM     21  O   UNL     1       4.738   5.719  -5.991  0.00  0.00    -0.432 OA
BRANCH  21  22
ATOM     22  C   UNL     1       4.759   6.556  -4.852  0.00  0.00    +0.441 C 
ATOM     23  O   UNL     1       4.086   7.631  -5.029  0.00  0.00    -0.223 OA
ATOM     24  N   UNL     1       4.669   6.065  -3.529  0.00  0.00    -0.048 NA
ENDBRANCH  21  22
ENDBRANCH  20  21
ENDBRANCH   2  20
TORSDOF 4
ENDMDL
