MODEL 1
REMARK VINA RESULT:      -6.6      0.000      0.000
REMARK  Name = 
REMARK  2 active torsions:
REMARK  status: ('A' for Active; 'I' for Inactive)
REMARK    1  A    between atoms: N_5  and  C1*_6
REMARK    2  A    between atoms: C4*_8  and  C5*_9
REMARK                            x       y       z     vdW  Elec       q    Type
REMARK                         _______ _______ _______ _____ _____    ______ ____
ROOT
ATOM      1  C1* UNL     1       1.798   6.510  -4.529  0.00  0.00    +0.243 C 
ATOM      2  C2* UNL     1       2.560   4.958  -4.778  0.00  0.00    +0.234 C 
ATOM      3  O2* UNL     1       3.761   5.440  -3.993  0.00  0.00    -0.216 OA
ATOM      4  C3* UNL     1       3.159   5.358  -6.346  0.00  0.00    +0.216 C 
ATOM      5  O3* UNL     1       4.623   5.491  -5.971  0.00  0.00    -0.218 OA
ATOM      6  C4* UNL     1       2.816   7.037  -6.081  0.00  0.00    +0.183 C 
ATOM      7  O4* UNL     1       1.345   6.589  -5.998  0.00  0.00    -0.330 OA
ENDROOT
BRANCH   1  13
ATOM      8  N   UNL     1      -2.655   5.140  -1.811  0.00  0.00    -0.086 NA
ATOM      9  C   UNL     1      -1.694   5.445  -2.414  0.00  0.00    +0.262 A 
ATOM     10  N   UNL     1      -1.704   6.393  -3.378  0.00  0.00    -0.156 NA
ATOM     11  C   UNL     1      -0.634   6.658  -4.162  0.00  0.00    +0.356 A 
ATOM     12  O   UNL     1      -0.665   7.636  -4.968  0.00  0.00    -0.244 OA
ATOM     13  N   UNL     1       0.416   5.805  -4.093  0.00  0.00    -0.237 N 
ATOM     14  C   UNL     1       0.586   5.190  -2.894  0.00  0.00    +0.187 A 
ATOM     15  N   UNL     1      -0.457   5.027  -2.048  0.00  0.00    -0.190 NA
ENDBRANCH   1  13
BRANCH   6  16
ATOM     16  C5* UNL     1       2.804   7.324  -7.717  0.00  0.00    +0.214 C 
ATOM     17  O5* UNL     1       2.101   8.430  -7.981  0.00  0.00    -0.218 OA
ENDBRANCH   6  16
TORSDOF 2
ENDMDL
MODEL 2
REMARK VINA RESULT:      -6.2      2.790      5.072
REMARK  Name = 
REMARK  2 active torsions:
REMARK  status: ('A' for Active; 'I' for Inactive)
REMARK    1  A    between atoms: N_5  and  C1*_6
REMARK    2  A    between atoms: C4*_8  and  C5*_9
REMARK                            x       y       z     vdW  Elec       q    Type
REMARK                         _______ _______ _______ _____ _____    ______ ____
ROOT
ATOM      1  C1* UNL     1      -0.564   5.333  -3.023  0.00  0.00    +0.243 C 
ATOM      2  C2* UNL     1      -1.558   6.255  -1.921  0.00  0.00    +0.234 C 
ATOM      3  O2* UNL     1      -2.409   5.026  -1.686  0.00  0.00    -0.216 OA
ATOM      4  C3* UNL     1      -2.527   6.947  -3.169  0.00  0.00    +0.216 C 
ATOM      5  O3* UNL     1      -3.791   6.152  -2.903  0.00  0.00    -0.218 OA
ATOM      6  C4* UNL     1      -1.910   5.807  -4.321  0.00  0.00    +0.183 C 
ATOM      7  O4* UNL     1      -0.548   6.475  -4.055  0.00  0.00    -0.330 OA
ENDROOT
BRANCH   1  13
ATOM      8  N   UNL     1       4.161   5.593  -0.435  0.00  0.00    -0.086 NA
ATOM      9  C   UNL     1       3.139   5.542  -1.012  0.00  0.00    +0.262 A 
ATOM     10  N   UNL     1       3.061   5.482  -2.360  0.00  0.00    -0.156 NA
ATOM     11  C   UNL     1       1.890   5.551  -3.034  0.00  0.00    +0.356 A 
ATOM     12  O   UNL     1       1.870   5.372  -4.289  0.00  0.00    -0.244 OA
ATOM     13  N   UNL     1       0.783   5.881  -2.328  0.00  0.00    -0.237 N 
ATOM     14  C   UNL     1       0.796   5.510  -1.022  0.00  0.00    +0.187 A 
ATOM     15  N   UNL     1       1.966   5.320  -0.369  0.00  0.00    -0.190 NA
ENDBRANCH   1  13
BRANCH   6  16
ATOM     16  C5* UNL     1      -2.334   6.805  -5.580  0.00  0.00    +0.214 C 
ATOM     17  O5* UNL     1      -2.802   6.078  -6.600  0.00  0.00    -0.218 OA
ENDBRANCH   6  16
TORSDOF 2
ENDMDL
MODEL 3
REMARK VINA RESULT:      -6.2      2.166      2.281
REMARK  Name = 
REMARK  2 active torsions:
REMARK  status: ('A' for Active; 'I' for Inactive)
REMARK    1  A    between atoms: N_5  and  C1*_6
REMARK    2  A    between atoms: C4*_8  and  C5*_9
REMARK                            x       y       z     vdW  Elec       q    Type
REMARK                         _______ _______ _______ _____ _____    ______ ____
ROOT
ATOM      1  C1* UNL     1       0.355   6.150  -6.388  0.00  0.00    +0.243 C 
ATOM      2  C2* UNL     1       1.695   5.056  -6.148  0.00  0.00    +0.234 C 
ATOM      3  O2* UNL     1       2.630   6.244  -6.072  0.00  0.00    -0.216 OA
ATOM      4  C3* UNL     1       1.901   4.733  -7.829  0.00  0.00    +0.216 C 
ATOM      5  O3* UNL     1       3.185   5.517  -8.027  0.00  0.00    -0.218 OA
ATOM      6  C4* UNL     1       0.880   6.072  -8.242  0.00  0.00    +0.183 C 
ATOM      7  O4* UNL     1      -0.226   5.283  -7.519  0.00  0.00    -0.330 OA
ENDROOT
BRANCH   1  13
ATOM      8  N   UNL     1      -2.664   5.045  -2.057  0.00  0.00    -0.086 NA
ATOM      9  C   UNL     1      -2.019   5.282  -3.009  0.00  0.00    +0.262 A 
ATOM     10  N   UNL     1      -2.566   5.577  -4.210  0.00  0.00    -0.156 NA
ATOM     11  C   UNL     1      -1.833   5.725  -5.337  0.00  0.00    +0.356 A 
ATOM     12  O   UNL     1      -2.388   6.115  -6.408  0.00  0.00    -0.244 OA
ATOM     13  N   UNL     1      -0.525   5.378  -5.281  0.00  0.00    -0.237 N 
ATOM     14  C   UNL     1       0.061   5.520  -4.064  0.00  0.00    +0.187 A 
ATOM     15  N   UNL     1      -0.682   5.493  -2.933  0.00  0.00    -0.190 NA
ENDBRANCH   1  13
BRANCH   6  16
ATOM     16  C5* UNL     1       0.585   5.423  -9.743  0.00  0.00    +0.214 C 
ATOM     17  O5* UNL     1      -0.153   6.269 -10.469  0.00  0.00    -0.218 OA
ENDBRANCH   6  16
TORSDOF 2
ENDMDL
MODEL 4
REMARK VINA RESULT:      -6.1      2.375      3.284
REMARK  Name = 
REMARK  2 active torsions:
REMARK  status: ('A' for Active; 'I' for Inactive)
REMARK    1  A    between atoms: N_5  and  C1*_6
REMARK    2  A    between atoms: C4*_8  and  C5*_9
REMARK                            x       y       z     vdW  Elec       q    Type
REMARK                         _______ _______ _______ _____ _____    ______ ____
ROOT
ATOM      1  C1* UNL     1       1.723   6.129  -2.353  0.00  0.00    +0.243 C 
ATOM      2  C2* UNL     1       1.989   4.980  -1.065  0.00  0.00    +0.234 C 
ATOM      3  O2* UNL     1       2.284   6.129  -0.124  0.00  0.00    -0.216 OA
ATOM      4  C3* UNL     1       3.621   4.654  -1.518  0.00  0.00    +0.216 C 
ATOM      5  O3* UNL     1       4.295   5.385  -0.372  0.00  0.00    -0.218 OA
ATOM      6  C4* UNL     1       3.637   6.035  -2.566  0.00  0.00    +0.183 C 
ATOM      7  O4* UNL     1       2.542   5.290  -3.350  0.00  0.00    -0.330 OA
ENDROOT
BRANCH   1  13
ATOM      8  N   UNL     1      -3.473   5.069  -3.344  0.00  0.00    -0.086 NA
ATOM      9  C   UNL     1      -2.338   5.299  -3.143  0.00  0.00    +0.262 A 
ATOM     10  N   UNL     1      -1.507   5.773  -4.099  0.00  0.00    -0.156 NA
ATOM     11  C   UNL     1      -0.176   5.919  -3.910  0.00  0.00    +0.356 A 
ATOM     12  O   UNL     1       0.533   6.476  -4.801  0.00  0.00    -0.244 OA
ATOM     13  N   UNL     1       0.356   5.390  -2.783  0.00  0.00    -0.237 N 
ATOM     14  C   UNL     1      -0.480   5.339  -1.715  0.00  0.00    +0.187 A 
ATOM     15  N   UNL     1      -1.822   5.314  -1.890  0.00  0.00    -0.190 NA
ENDBRANCH   1  13
BRANCH   6  16
ATOM     16  C5* UNL     1       4.909   5.403  -3.428  0.00  0.00    +0.214 C 
ATOM     17  O5* UNL     1       4.677   5.525  -4.739  0.00  0.00    -0.218 OA
ENDBRANCH   6  16
TORSDOF 2
ENDMDL
MODEL 5
REMARK VINA RESULT:      -6.1      2.670      5.170
REMARK  Name = 
REMARK  2 active torsions:
REMARK  status: ('A' for Active; 'I' for Inactive)
REMARK    1  A    between atoms: N_5  and  C1*_6
REMARK    2  A    between atoms: C4*_8  and  C5*_9
REMARK                            x       y       z     vdW  Elec       q    Type
REMARK                         _______ _______ _______ _____ _____    ______ ____
ROOT
ATOM      1  C1* UNL     1       1.099   5.571  -3.605  0.00  0.00    +0.243 C 
ATOM      2  C2* UNL     1       2.123   6.456  -2.501  0.00  0.00    +0.234 C 
ATOM      3  O2* UNL     1       2.843   5.168  -2.163  0.00  0.00    -0.216 OA
ATOM      4  C3* UNL     1       0.987   6.409  -1.204  0.00  0.00    +0.216 C 
ATOM      5  O3* UNL     1       1.718   5.402  -0.336  0.00  0.00    -0.218 OA
ATOM      6  C4* UNL     1       0.054   5.201  -2.026  0.00  0.00    +0.183 C 
ATOM      7  O4* UNL     1      -0.166   6.286  -3.096  0.00  0.00    -0.330 OA
ENDROOT
BRANCH   1  13
ATOM      8  N   UNL     1       2.531   8.023  -8.191  0.00  0.00    -0.086 NA
ATOM      9  C   UNL     1       2.204   7.491  -7.196  0.00  0.00    +0.262 A 
ATOM     10  N   UNL     1       0.985   6.930  -7.032  0.00  0.00    -0.156 NA
ATOM     11  C   UNL     1       0.557   6.430  -5.850  0.00  0.00    +0.356 A 
ATOM     12  O   UNL     1      -0.549   5.813  -5.785  0.00  0.00    -0.244 OA
ATOM     13  N   UNL     1       1.317   6.677  -4.756  0.00  0.00    -0.237 N 
ATOM     14  C   UNL     1       2.646   6.819  -4.994  0.00  0.00    +0.187 A 
ATOM     15  N   UNL     1       3.093   7.205  -6.213  0.00  0.00    -0.190 NA
ENDBRANCH   1  13
BRANCH   6  16
ATOM     16  C5* UNL     1      -1.291   5.587  -1.129  0.00  0.00    +0.214 C 
ATOM     17  O5* UNL     1      -2.381   5.050  -1.688  0.00  0.00    -0.218 OA
ENDBRANCH   6  16
TORSDOF 2
ENDMDL
MODEL 6
REMARK VINA RESULT:      -6.0      6.600      8.840
REMARK  Name = 
REMARK  2 active torsions:
REMARK  status: ('A' for Active; 'I' for Inactive)
REMARK    1  A    between atoms: N_5  and  C1*_6
REMARK    2  A    between atoms: C4*_8  and  C5*_9
REMARK                            x       y       z     vdW  Elec       q    Type
REMARK                         _______ _______ _______ _____ _____    ______ ____
ROOT
ATOM      1  C1* UNL     1       4.109   5.183 -10.601  0.00  0.00    +0.243 C 
ATOM      2  C2* UNL     1       4.262   6.176  -9.172  0.00  0.00    +0.234 C 
ATOM      3  O2* UNL     1       3.979   4.959  -8.317  0.00  0.00    -0.216 OA
ATOM      4  C3* UNL     1       2.642   6.762  -9.248  0.00  0.00    +0.216 C 
ATOM      5  O3* UNL     1       2.091   5.978  -8.072  0.00  0.00    -0.218 OA
ATOM      6  C4* UNL     1       2.224   5.545 -10.409  0.00  0.00    +0.183 C 
ATOM      7  O4* UNL     1       3.253   6.243 -11.317  0.00  0.00    -0.330 OA
ENDROOT
BRANCH   1  13
ATOM      8  N   UNL     1       9.199   5.763 -12.290  0.00  0.00    -0.086 NA
ATOM      9  C   UNL     1       8.085   5.638 -11.937  0.00  0.00    +0.262 A 
ATOM     10  N   UNL     1       7.095   5.240 -12.766  0.00  0.00    -0.156 NA
ATOM     11  C   UNL     1       5.793   5.216 -12.400  0.00  0.00    +0.356 A 
ATOM     12  O   UNL     1       4.923   4.724 -13.180  0.00  0.00    -0.244 OA
ATOM     13  N   UNL     1       5.466   5.794 -11.219  0.00  0.00    -0.237 N 
ATOM     14  C   UNL     1       6.440   5.769 -10.273  0.00  0.00    +0.187 A 
ATOM     15  N   UNL     1       7.743   5.672 -10.625  0.00  0.00    -0.190 NA
ENDBRANCH   1  13
BRANCH   6  16
ATOM     16  C5* UNL     1       0.923   6.440 -10.924  0.00  0.00    +0.214 C 
ATOM     17  O5* UNL     1      -0.102   5.632 -11.211  0.00  0.00    -0.218 OA
ENDBRANCH   6  16
TORSDOF 2
ENDMDL
MODEL 7
REMARK VINA RESULT:      -6.0      2.735      5.074
REMARK  Name = 
REMARK  2 active torsions:
REMARK  status: ('A' for Active; 'I' for Inactive)
REMARK    1  A    between atoms: N_5  and  C1*_6
REMARK    2  A    between atoms: C4*_8  and  C5*_9
REMARK                            x       y       z     vdW  Elec       q    Type
REMARK                         _______ _______ _______ _____ _____    ______ ____
ROOT
ATOM      1  C1* UNL     1       0.646   5.603  -3.819  0.00  0.00    +0.243 C 
ATOM      2  C2* UNL     1       0.223   6.016  -2.175  0.00  0.00    +0.234 C 
ATOM      3  O2* UNL     1       0.096   4.542  -1.854  0.00  0.00    -0.216 OA
ATOM      4  C3* UNL     1      -1.439   6.298  -2.536  0.00  0.00    +0.216 C 
ATOM      5  O3* UNL     1      -2.001   5.056  -1.871  0.00  0.00    -0.218 OA
ATOM      6  C4* UNL     1      -1.264   5.536  -4.083  0.00  0.00    +0.183 C 
ATOM      7  O4* UNL     1      -0.287   6.685  -4.392  0.00  0.00    -0.330 OA
ENDROOT
BRANCH   1  13
ATOM      8  N   UNL     1       5.598   7.699  -4.236  0.00  0.00    -0.086 NA
ATOM      9  C   UNL     1       4.515   7.252  -4.157  0.00  0.00    +0.262 A 
ATOM     10  N   UNL     1       3.622   7.311  -5.171  0.00  0.00    -0.156 NA
ATOM     11  C   UNL     1       2.336   6.913  -5.043  0.00  0.00    +0.356 A 
ATOM     12  O   UNL     1       1.578   6.883  -6.059  0.00  0.00    -0.244 OA
ATOM     13  N   UNL     1       1.893   6.623  -3.797  0.00  0.00    -0.237 N 
ATOM     14  C   UNL     1       2.837   6.158  -2.939  0.00  0.00    +0.187 A 
ATOM     15  N   UNL     1       4.145   6.452  -3.127  0.00  0.00    -0.190 NA
ENDBRANCH   1  13
BRANCH   6  16
ATOM     16  C5* UNL     1      -2.614   6.316  -4.655  0.00  0.00    +0.214 C 
ATOM     17  O5* UNL     1      -2.569   6.387  -5.989  0.00  0.00    -0.218 OA
ENDBRANCH   6  16
TORSDOF 2
ENDMDL
MODEL 8
REMARK VINA RESULT:      -6.0      5.665      8.356
REMARK  Name = 
REMARK  2 active torsions:
REMARK  status: ('A' for Active; 'I' for Inactive)
REMARK    1  A    between atoms: N_5  and  C1*_6
REMARK    2  A    between atoms: C4*_8  and  C5*_9
REMARK                            x       y       z     vdW  Elec       q    Type
REMARK                         _______ _______ _______ _____ _____    ______ ____
ROOT
ATOM      1  C1* UNL     1       4.397   6.090  -9.208  0.00  0.00    +0.243 C 
ATOM      2  C2* UNL     1       3.072   4.986  -9.485  0.00  0.00    +0.234 C 
ATOM      3  O2* UNL     1       2.130   6.166  -9.587  0.00  0.00    -0.216 OA
ATOM      4  C3* UNL     1       2.823   4.661  -7.809  0.00  0.00    +0.216 C 
ATOM      5  O3* UNL     1       1.528   5.434  -7.647  0.00  0.00    -0.218 OA
ATOM      6  C4* UNL     1       3.821   6.008  -7.369  0.00  0.00    +0.183 C 
ATOM      7  O4* UNL     1       4.953   5.228  -8.061  0.00  0.00    -0.330 OA
ENDROOT
BRANCH   1  13
ATOM      8  N   UNL     1       7.506   5.000 -13.479  0.00  0.00    -0.086 NA
ATOM      9  C   UNL     1       6.841   5.235 -12.540  0.00  0.00    +0.262 A 
ATOM     10  N   UNL     1       7.363   5.562 -11.336  0.00  0.00    -0.156 NA
ATOM     11  C   UNL     1       6.610   5.708 -10.222  0.00  0.00    +0.356 A 
ATOM     12  O   UNL     1       7.139   6.128  -9.150  0.00  0.00    -0.244 OA
ATOM     13  N   UNL     1       5.313   5.325 -10.291  0.00  0.00    -0.237 N 
ATOM     14  C   UNL     1       4.741   5.432 -11.517  0.00  0.00    +0.187 A 
ATOM     15  N   UNL     1       5.500   5.408 -12.638  0.00  0.00    -0.190 NA
ENDBRANCH   1  13
BRANCH   6  16
ATOM     16  C5* UNL     1       4.081   5.362  -5.861  0.00  0.00    +0.214 C 
ATOM     17  O5* UNL     1       4.802   6.209  -5.119  0.00  0.00    -0.218 OA
ENDBRANCH   6  16
TORSDOF 2
ENDMDL
MODEL 9
REMARK VINA RESULT:      -5.8      1.712      3.058
REMARK  Name = 
REMARK  2 active torsions:
REMARK  status: ('A' for Active; 'I' for Inactive)
REMARK    1  A    between atoms: N_5  and  C1*_6
REMARK    2  A    between atoms: C4*_8  and  C5*_9
REMARK                            x       y       z     vdW  Elec       q    Type
REMARK                         _______ _______ _______ _____ _____    ______ ____
ROOT
ATOM      1  C1* UNL     1       1.084   5.121  -4.506  0.00  0.00    +0.243 C 
ATOM      2  C2* UNL     1       1.333   6.498  -5.552  0.00  0.00    +0.234 C 
ATOM      3  O2* UNL     1       1.477   5.557  -6.729  0.00  0.00    -0.216 OA
ATOM      4  C3* UNL     1       3.012   6.637  -5.186  0.00  0.00    +0.216 C 
ATOM      5  O3* UNL     1       3.548   6.126  -6.510  0.00  0.00    -0.218 OA
ATOM      6  C4* UNL     1       3.011   5.069  -4.446  0.00  0.00    +0.183 C 
ATOM      7  O4* UNL     1       2.031   5.690  -3.435  0.00  0.00    -0.330 OA
ENDROOT
BRANCH   1  13
ATOM      8  N   UNL     1      -3.878   6.086  -2.625  0.00  0.00    -0.086 NA
ATOM      9  C   UNL     1      -2.792   5.876  -3.020  0.00  0.00    +0.262 A 
ATOM     10  N   UNL     1      -1.818   5.353  -2.242  0.00  0.00    -0.156 NA
ATOM     11  C   UNL     1      -0.536   5.228  -2.652  0.00  0.00    +0.356 A 
ATOM     12  O   UNL     1       0.308   4.625  -1.922  0.00  0.00    -0.244 OA
ATOM     13  N   UNL     1      -0.192   5.825  -3.818  0.00  0.00    -0.237 N 
ATOM     14  C   UNL     1      -1.191   5.931  -4.731  0.00  0.00    +0.187 A 
ATOM     15  N   UNL     1      -2.487   5.936  -4.340  0.00  0.00    -0.190 NA
ENDBRANCH   1  13
BRANCH   6  16
ATOM     16  C5* UNL     1       4.384   5.439  -3.587  0.00  0.00    +0.214 C 
ATOM     17  O5* UNL     1       4.268   5.000  -2.330  0.00  0.00    -0.218 OA
ENDBRANCH   6  16
TORSDOF 2
ENDMDL
