MODEL 1
REMARK VINA RESULT:      -5.1      0.000      0.000
REMARK  Name = 
REMARK  0 active torsions:
REMARK  status: ('A' for Active; 'I' for Inactive)
REMARK                            x       y       z     vdW  Elec       q    Type
REMARK                         _______ _______ _______ _____ _____    ______ ____
ROOT
ATOM      1 CL   UNL     1       5.054   4.759  -4.229  0.00  0.00    -0.112 Cl
ATOM      2  C   UNL     1       3.979   5.542  -5.536  0.00  0.00    +0.112 C 
ATOM      3  C   UNL     1       3.863   7.044  -4.898  0.00  0.00    +0.112 C 
ATOM      4 CL   UNL     1       5.631   7.286  -4.352  0.00  0.00    -0.112 Cl
ATOM      5  C   UNL     1       3.301   6.546  -3.459  0.00  0.00    +0.112 C 
ATOM      6 CL   UNL     1       3.526   8.158  -2.570  0.00  0.00    -0.112 Cl
ATOM      7  C   UNL     1       1.728   6.809  -3.813  0.00  0.00    +0.112 C 
ATOM      8 CL   UNL     1       1.155   5.368  -2.776  0.00  0.00    -0.112 Cl
ATOM      9  C   UNL     1       1.662   6.135  -5.305  0.00  0.00    +0.112 C 
ATOM     10 CL   UNL     1       0.037   5.254  -5.129  0.00  0.00    -0.112 Cl
ATOM     11  C   UNL     1       2.615   4.867  -4.940  0.00  0.00    +0.112 C 
ATOM     12 CL   UNL     1       2.227   3.877  -6.454  0.00  0.00    -0.112 Cl
ENDROOT
TORSDOF 0
ENDMDL
MODEL 2
REMARK VINA RESULT:      -5.0      0.054      4.277
REMARK  Name = 
REMARK  0 active torsions:
REMARK  status: ('A' for Active; 'I' for Inactive)
REMARK                            x       y       z     vdW  Elec       q    Type
REMARK                         _______ _______ _______ _____ _____    ______ ____
ROOT
ATOM      1 CL   UNL     1       1.129   5.316  -2.832  0.00  0.00    -0.112 Cl
ATOM      2  C   UNL     1       1.695   6.798  -3.813  0.00  0.00    +0.112 C 
ATOM      3  C   UNL     1       1.622   6.147  -5.313  0.00  0.00    +0.112 C 
ATOM      4 CL   UNL     1       0.008   5.221  -5.170  0.00  0.00    -0.112 Cl
ATOM      5  C   UNL     1       2.581   4.884  -4.969  0.00  0.00    +0.112 C 
ATOM      6 CL   UNL     1       2.215   3.911  -6.504  0.00  0.00    -0.112 Cl
ATOM      7  C   UNL     1       3.942   5.563  -5.564  0.00  0.00    +0.112 C 
ATOM      8 CL   UNL     1       5.027   4.728  -4.297  0.00  0.00    -0.112 Cl
ATOM      9  C   UNL     1       3.822   7.056  -4.900  0.00  0.00    +0.112 C 
ATOM     10 CL   UNL     1       5.597   7.270  -4.399  0.00  0.00    -0.112 Cl
ATOM     11  C   UNL     1       3.269   6.538  -3.460  0.00  0.00    +0.112 C 
ATOM     12 CL   UNL     1       3.519   8.134  -2.559  0.00  0.00    -0.112 Cl
ENDROOT
TORSDOF 0
ENDMDL
MODEL 3
REMARK VINA RESULT:      -5.0      1.658      2.540
REMARK  Name = 
REMARK  0 active torsions:
REMARK  status: ('A' for Active; 'I' for Inactive)
REMARK                            x       y       z     vdW  Elec       q    Type
REMARK                         _______ _______ _______ _____ _____    ______ ____
ROOT
ATOM      1 CL   UNL     1       2.117   3.648  -6.539  0.00  0.00    -0.112 Cl
ATOM      2  C   UNL     1       1.397   5.320  -6.945  0.00  0.00    +0.112 C 
ATOM      3  C   UNL     1       2.450   6.254  -6.112  0.00  0.00    +0.112 C 
ATOM      4 CL   UNL     1       4.044   5.386  -6.544  0.00  0.00    -0.112 Cl
ATOM      5  C   UNL     1       2.219   5.502  -4.693  0.00  0.00    +0.112 C 
ATOM      6 CL   UNL     1       3.666   6.255  -3.811  0.00  0.00    -0.112 Cl
ATOM      7  C   UNL     1       1.139   6.587  -4.123  0.00  0.00    +0.112 C 
ATOM      8 CL   UNL     1       0.185   5.287  -3.183  0.00  0.00    -0.112 Cl
ATOM      9  C   UNL     1       0.182   6.747  -5.443  0.00  0.00    +0.112 C 
ATOM     10 CL   UNL     1      -1.464   6.743  -4.583  0.00  0.00    -0.112 Cl
ATOM     11  C   UNL     1       0.204   5.169  -5.839  0.00  0.00    +0.112 C 
ATOM     12 CL   UNL     1      -1.185   5.245  -7.059  0.00  0.00    -0.112 Cl
ENDROOT
TORSDOF 0
ENDMDL
MODEL 4
REMARK VINA RESULT:      -5.0      1.661      4.424
REMARK  Name = 
REMARK  0 active torsions:
REMARK  status: ('A' for Active; 'I' for Inactive)
REMARK                            x       y       z     vdW  Elec       q    Type
REMARK                         _______ _______ _______ _____ _____    ______ ____
ROOT
ATOM      1 CL   UNL     1       0.216   5.336  -3.227  0.00  0.00    -0.112 Cl
ATOM      2  C   UNL     1       1.155   6.630  -4.188  0.00  0.00    +0.112 C 
ATOM      3  C   UNL     1       0.170   6.738  -5.490  0.00  0.00    +0.112 C 
ATOM      4 CL   UNL     1      -1.485   6.704  -4.629  0.00  0.00    -0.112 Cl
ATOM      5  C   UNL     1       0.219   5.155  -5.839  0.00  0.00    +0.112 C 
ATOM      6 CL   UNL     1      -1.181   5.158  -7.056  0.00  0.00    -0.112 Cl
ATOM      7  C   UNL     1       1.383   5.289  -6.978  0.00  0.00    +0.112 C 
ATOM      8 CL   UNL     1       2.113   3.622  -6.566  0.00  0.00    -0.112 Cl
ATOM      9  C   UNL     1       2.434   6.266  -6.188  0.00  0.00    +0.112 C 
ATOM     10 CL   UNL     1       4.009   5.408  -6.667  0.00  0.00    -0.112 Cl
ATOM     11  C   UNL     1       2.249   5.549  -4.740  0.00  0.00    +0.112 C 
ATOM     12 CL   UNL     1       3.712   6.342  -3.930  0.00  0.00    -0.112 Cl
ENDROOT
TORSDOF 0
ENDMDL
MODEL 5
REMARK VINA RESULT:      -5.0      2.292      3.665
REMARK  Name = 
REMARK  0 active torsions:
REMARK  status: ('A' for Active; 'I' for Inactive)
REMARK                            x       y       z     vdW  Elec       q    Type
REMARK                         _______ _______ _______ _____ _____    ______ ____
ROOT
ATOM      1 CL   UNL     1       1.054   6.527  -3.964  0.00  0.00    -0.112 Cl
ATOM      2  C   UNL     1       0.886   5.081  -5.129  0.00  0.00    +0.112 C 
ATOM      3  C   UNL     1       2.473   4.803  -5.413  0.00  0.00    +0.112 C 
ATOM      4 CL   UNL     1       3.138   5.008  -3.681  0.00  0.00    -0.112 Cl
ATOM      5  C   UNL     1       2.797   6.315  -5.906  0.00  0.00    +0.112 C 
ATOM      6 CL   UNL     1       4.645   6.164  -5.863  0.00  0.00    -0.112 Cl
ATOM      7  C   UNL     1       2.676   5.982  -7.500  0.00  0.00    +0.112 C 
ATOM      8 CL   UNL     1       1.995   7.673  -7.899  0.00  0.00    -0.112 Cl
ATOM      9  C   UNL     1       1.290   5.108  -7.497  0.00  0.00    +0.112 C 
ATOM     10 CL   UNL     1       0.505   5.844  -9.009  0.00  0.00    -0.112 Cl
ATOM     11  C   UNL     1       0.526   6.039  -6.403  0.00  0.00    +0.112 C 
ATOM     12 CL   UNL     1      -1.164   5.340  -6.683  0.00  0.00    -0.112 Cl
ENDROOT
TORSDOF 0
ENDMDL
MODEL 6
REMARK VINA RESULT:      -5.0      3.635      5.459
REMARK  Name = 
REMARK  0 active torsions:
REMARK  status: ('A' for Active; 'I' for Inactive)
REMARK                            x       y       z     vdW  Elec       q    Type
REMARK                         _______ _______ _______ _____ _____    ______ ____
ROOT
ATOM      1 CL   UNL     1       2.528   6.312 -10.898  0.00  0.00    -0.112 Cl
ATOM      2  C   UNL     1       3.215   4.938  -9.840  0.00  0.00    +0.112 C 
ATOM      3  C   UNL     1       1.822   4.439  -9.143  0.00  0.00    +0.112 C 
ATOM      4 CL   UNL     1       0.694   4.496 -10.628  0.00  0.00    -0.112 Cl
ATOM      5  C   UNL     1       1.421   5.900  -8.561  0.00  0.00    +0.112 C 
ATOM      6 CL   UNL     1      -0.327   5.478  -8.106  0.00  0.00    -0.112 Cl
ATOM      7  C   UNL     1       2.015   5.632  -7.063  0.00  0.00    +0.112 C 
ATOM      8 CL   UNL     1       2.518   7.415  -6.840  0.00  0.00    -0.112 Cl
ATOM      9  C   UNL     1       3.463   4.971  -7.451  0.00  0.00    +0.112 C 
ATOM     10 CL   UNL     1       4.507   5.856  -6.197  0.00  0.00    -0.112 Cl
ATOM     11  C   UNL     1       3.757   5.974  -8.698  0.00  0.00    +0.112 C 
ATOM     12 CL   UNL     1       5.545   5.538  -8.893  0.00  0.00    -0.112 Cl
ENDROOT
TORSDOF 0
ENDMDL
MODEL 7
REMARK VINA RESULT:      -5.0      2.244      4.118
REMARK  Name = 
REMARK  0 active torsions:
REMARK  status: ('A' for Active; 'I' for Inactive)
REMARK                            x       y       z     vdW  Elec       q    Type
REMARK                         _______ _______ _______ _____ _____    ______ ____
ROOT
ATOM      1 CL   UNL     1       2.066   7.677  -7.897  0.00  0.00    -0.112 Cl
ATOM      2  C   UNL     1       2.836   6.061  -7.374  0.00  0.00    +0.112 C 
ATOM      3  C   UNL     1       1.515   5.103  -7.500  0.00  0.00    +0.112 C 
ATOM      4 CL   UNL     1       0.813   5.751  -9.102  0.00  0.00    -0.112 Cl
ATOM      5  C   UNL     1       0.588   6.008  -6.522  0.00  0.00    +0.112 C 
ATOM      6 CL   UNL     1      -1.025   5.193  -6.938  0.00  0.00    -0.112 Cl
ATOM      7  C   UNL     1       0.851   5.104  -5.187  0.00  0.00    +0.112 C 
ATOM      8 CL   UNL     1       0.760   6.582  -4.052  0.00  0.00    -0.112 Cl
ATOM      9  C   UNL     1       2.476   4.922  -5.290  0.00  0.00    +0.112 C 
ATOM     10 CL   UNL     1       2.890   5.184  -3.500  0.00  0.00    -0.112 Cl
ATOM     11  C   UNL     1       2.769   6.443  -5.787  0.00  0.00    +0.112 C 
ATOM     12 CL   UNL     1       4.598   6.400  -5.513  0.00  0.00    -0.112 Cl
ENDROOT
TORSDOF 0
ENDMDL
MODEL 8
REMARK VINA RESULT:      -4.9      2.678      4.855
REMARK  Name = 
REMARK  0 active torsions:
REMARK  status: ('A' for Active; 'I' for Inactive)
REMARK                            x       y       z     vdW  Elec       q    Type
REMARK                         _______ _______ _______ _____ _____    ______ ____
ROOT
ATOM      1 CL   UNL     1      -1.679   8.180  -4.477  0.00  0.00    -0.112 Cl
ATOM      2  C   UNL     1      -1.320   6.493  -5.187  0.00  0.00    +0.112 C 
ATOM      3  C   UNL     1      -1.712   5.585  -3.884  0.00  0.00    +0.112 C 
ATOM      4 CL   UNL     1      -3.267   6.466  -3.349  0.00  0.00    -0.112 Cl
ATOM      5  C   UNL     1      -0.713   6.357  -2.865  0.00  0.00    +0.112 C 
ATOM      6 CL   UNL     1      -1.400   5.636  -1.301  0.00  0.00    -0.112 Cl
ATOM      7  C   UNL     1       0.499   5.268  -2.990  0.00  0.00    +0.112 C 
ATOM      8 CL   UNL     1       1.819   6.571  -2.787  0.00  0.00    -0.112 Cl
ATOM      9  C   UNL     1       0.533   5.075  -4.616  0.00  0.00    +0.112 C 
ATOM     10 CL   UNL     1       2.375   5.073  -4.847  0.00  0.00    -0.112 Cl
ATOM     11  C   UNL     1       0.291   6.647  -4.961  0.00  0.00    +0.112 C 
ATOM     12 CL   UNL     1       0.737   6.535  -6.753  0.00  0.00    -0.112 Cl
ENDROOT
TORSDOF 0
ENDMDL
MODEL 9
REMARK VINA RESULT:      -4.9      2.144      4.061
REMARK  Name = 
REMARK  0 active torsions:
REMARK  status: ('A' for Active; 'I' for Inactive)
REMARK                            x       y       z     vdW  Elec       q    Type
REMARK                         _______ _______ _______ _____ _____    ______ ____
ROOT
ATOM      1 CL   UNL     1      -1.021   7.691  -4.789  0.00  0.00    -0.112 Cl
ATOM      2  C   UNL     1      -0.940   5.852  -5.086  0.00  0.00    +0.112 C 
ATOM      3  C   UNL     1      -0.045   5.427  -3.784  0.00  0.00    +0.112 C 
ATOM      4 CL   UNL     1      -0.853   6.502  -2.489  0.00  0.00    -0.112 Cl
ATOM      5  C   UNL     1       1.179   6.440  -4.114  0.00  0.00    +0.112 C 
ATOM      6 CL   UNL     1       2.032   6.290  -2.475  0.00  0.00    -0.112 Cl
ATOM      7  C   UNL     1       2.109   5.316  -4.850  0.00  0.00    +0.112 C 
ATOM      8 CL   UNL     1       2.829   6.555  -6.044  0.00  0.00    -0.112 Cl
ATOM      9  C   UNL     1       0.985   4.611  -5.810  0.00  0.00    +0.112 C 
ATOM     10 CL   UNL     1       2.010   4.453  -7.351  0.00  0.00    -0.112 Cl
ATOM     11  C   UNL     1       0.235   5.998  -6.211  0.00  0.00    +0.112 C 
ATOM     12 CL   UNL     1      -0.760   5.298  -7.605  0.00  0.00    -0.112 Cl
ENDROOT
TORSDOF 0
ENDMDL
