MODEL 1
REMARK VINA RESULT:      -3.0      0.000      0.000
REMARK  Name = 
REMARK  1 active torsions:
REMARK  status: ('A' for Active; 'I' for Inactive)
REMARK    1  A    between atoms: C_2  and  C_4
REMARK                            x       y       z     vdW  Elec       q    Type
REMARK                         _______ _______ _______ _____ _____    ______ ____
ROOT
ATOM      1  O   UNL     1       7.778   4.572 -12.730  0.00  0.00    -0.243 OA
ATOM      2  C   UNL     1       8.194   5.577 -12.077  0.00  0.00    +0.398 C 
ATOM      3  O   UNL     1       9.533   5.910 -12.298  0.00  0.00    -0.243 OA
ENDROOT
BRANCH   2   4
ATOM      4  C   UNL     1       7.680   5.671 -10.674  0.00  0.00    +0.295 C 
ATOM      5  O   UNL     1       7.755   7.008 -10.245  0.00  0.00    -0.207 OA
ENDBRANCH   2   4
TORSDOF 1
ENDMDL
MODEL 2
REMARK VINA RESULT:      -2.8      1.079      2.761
REMARK  Name = 
REMARK  1 active torsions:
REMARK  status: ('A' for Active; 'I' for Inactive)
REMARK    1  A    between atoms: C_2  and  C_4
REMARK                            x       y       z     vdW  Elec       q    Type
REMARK                         _______ _______ _______ _____ _____    ______ ____
ROOT
ATOM      1  O   UNL     1       7.380   7.323 -10.884  0.00  0.00    -0.243 OA
ATOM      2  C   UNL     1       7.569   6.070 -10.921  0.00  0.00    +0.398 C 
ATOM      3  O   UNL     1       7.701   5.456  -9.672  0.00  0.00    -0.243 OA
ENDROOT
BRANCH   2   4
ATOM      4  C   UNL     1       8.474   5.603 -12.019  0.00  0.00    +0.295 C 
ATOM      5  O   UNL     1       7.819   4.606 -12.764  0.00  0.00    -0.207 OA
ENDBRANCH   2   4
TORSDOF 1
ENDMDL
MODEL 3
REMARK VINA RESULT:      -2.8      1.973      2.901
REMARK  Name = 
REMARK  1 active torsions:
REMARK  status: ('A' for Active; 'I' for Inactive)
REMARK    1  A    between atoms: C_2  and  C_4
REMARK                            x       y       z     vdW  Elec       q    Type
REMARK                         _______ _______ _______ _____ _____    ______ ____
ROOT
ATOM      1  O   UNL     1       7.413   6.674 -11.973  0.00  0.00    -0.243 OA
ATOM      2  C   UNL     1       6.942   5.504 -12.110  0.00  0.00    +0.398 C 
ATOM      3  O   UNL     1       7.750   4.625 -12.839  0.00  0.00    -0.243 OA
ENDROOT
BRANCH   2   4
ATOM      4  C   UNL     1       5.466   5.446 -12.350  0.00  0.00    +0.295 C 
ATOM      5  O   UNL     1       5.212   4.629 -13.466  0.00  0.00    -0.207 OA
ENDBRANCH   2   4
TORSDOF 1
ENDMDL
MODEL 4
REMARK VINA RESULT:      -2.8     13.507     14.139
REMARK  Name = 
REMARK  1 active torsions:
REMARK  status: ('A' for Active; 'I' for Inactive)
REMARK    1  A    between atoms: C_2  and  C_4
REMARK                            x       y       z     vdW  Elec       q    Type
REMARK                         _______ _______ _______ _____ _____    ______ ____
ROOT
ATOM      1  O   UNL     1      -2.659   4.690  -2.610  0.00  0.00    -0.243 OA
ATOM      2  C   UNL     1      -2.486   5.686  -1.844  0.00  0.00    +0.398 C 
ATOM      3  O   UNL     1      -3.043   6.885  -2.299  0.00  0.00    -0.243 OA
ENDROOT
BRANCH   2   4
ATOM      4  C   UNL     1      -1.137   5.754  -1.197  0.00  0.00    +0.295 C 
ATOM      5  O   UNL     1      -0.317   4.746  -1.734  0.00  0.00    -0.207 OA
ENDBRANCH   2   4
TORSDOF 1
ENDMDL
MODEL 5
REMARK VINA RESULT:      -2.7     12.292     13.186
REMARK  Name = 
REMARK  1 active torsions:
REMARK  status: ('A' for Active; 'I' for Inactive)
REMARK    1  A    between atoms: C_2  and  C_4
REMARK                            x       y       z     vdW  Elec       q    Type
REMARK                         _______ _______ _______ _____ _____    ______ ____
ROOT
ATOM      1  O   UNL     1      -0.697   4.952  -2.007  0.00  0.00    -0.243 OA
ATOM      2  C   UNL     1      -1.620   5.372  -2.768  0.00  0.00    +0.398 C 
ATOM      3  O   UNL     1      -2.850   4.723  -2.618  0.00  0.00    -0.243 OA
ENDROOT
BRANCH   2   4
ATOM      4  C   UNL     1      -1.182   5.709  -4.160  0.00  0.00    +0.295 C 
ATOM      5  O   UNL     1      -2.279   5.587  -5.031  0.00  0.00    -0.207 OA
ENDBRANCH   2   4
TORSDOF 1
ENDMDL
MODEL 6
REMARK VINA RESULT:      -2.7     12.975     13.972
REMARK  Name = 
REMARK  1 active torsions:
REMARK  status: ('A' for Active; 'I' for Inactive)
REMARK    1  A    between atoms: C_2  and  C_4
REMARK                            x       y       z     vdW  Elec       q    Type
REMARK                         _______ _______ _______ _____ _____    ______ ____
ROOT
ATOM      1  O   UNL     1      -3.666   6.649  -2.558  0.00  0.00    -0.243 OA
ATOM      2  C   UNL     1      -3.151   5.661  -3.164  0.00  0.00    +0.398 C 
ATOM      3  O   UNL     1      -2.614   4.674  -2.333  0.00  0.00    -0.243 OA
ENDROOT
BRANCH   2   4
ATOM      4  C   UNL     1      -2.386   6.014  -4.402  0.00  0.00    +0.295 C 
ATOM      5  O   UNL     1      -2.760   7.302  -4.823  0.00  0.00    -0.207 OA
ENDBRANCH   2   4
TORSDOF 1
ENDMDL
MODEL 7
REMARK VINA RESULT:      -2.7     12.550     13.415
REMARK  Name = 
REMARK  1 active torsions:
REMARK  status: ('A' for Active; 'I' for Inactive)
REMARK    1  A    between atoms: C_2  and  C_4
REMARK                            x       y       z     vdW  Elec       q    Type
REMARK                         _______ _______ _______ _____ _____    ______ ____
ROOT
ATOM      1  O   UNL     1      -0.424   6.191  -3.176  0.00  0.00    -0.243 OA
ATOM      2  C   UNL     1      -0.769   5.698  -2.059  0.00  0.00    +0.398 C 
ATOM      3  O   UNL     1      -0.005   4.608  -1.633  0.00  0.00    -0.243 OA
ENDROOT
BRANCH   2   4
ATOM      4  C   UNL     1      -2.247   5.638  -1.829  0.00  0.00    +0.295 C 
ATOM      5  O   UNL     1      -2.802   4.643  -2.652  0.00  0.00    -0.207 OA
ENDBRANCH   2   4
TORSDOF 1
ENDMDL
MODEL 8
REMARK VINA RESULT:      -2.5      5.791      7.068
REMARK  Name = 
REMARK  1 active torsions:
REMARK  status: ('A' for Active; 'I' for Inactive)
REMARK    1  A    between atoms: C_2  and  C_4
REMARK                            x       y       z     vdW  Elec       q    Type
REMARK                         _______ _______ _______ _____ _____    ______ ____
ROOT
ATOM      1  O   UNL     1       2.121   8.365  -7.903  0.00  0.00    -0.243 OA
ATOM      2  C   UNL     1       2.602   7.300  -7.410  0.00  0.00    +0.398 C 
ATOM      3  O   UNL     1       3.232   7.455  -6.172  0.00  0.00    -0.243 OA
ENDROOT
BRANCH   2   4
ATOM      4  C   UNL     1       3.246   6.383  -8.403  0.00  0.00    +0.295 C 
ATOM      5  O   UNL     1       4.349   5.753  -7.800  0.00  0.00    -0.207 OA
ENDBRANCH   2   4
TORSDOF 1
ENDMDL
MODEL 9
REMARK VINA RESULT:      -2.5     12.145     12.864
REMARK  Name = 
REMARK  1 active torsions:
REMARK  status: ('A' for Active; 'I' for Inactive)
REMARK    1  A    between atoms: C_2  and  C_4
REMARK                            x       y       z     vdW  Elec       q    Type
REMARK                         _______ _______ _______ _____ _____    ______ ____
ROOT
ATOM      1  O   UNL     1      -1.871   5.512  -5.634  0.00  0.00    -0.243 OA
ATOM      2  C   UNL     1      -2.304   6.157  -4.631  0.00  0.00    +0.398 C 
ATOM      3  O   UNL     1      -2.317   7.547  -4.785  0.00  0.00    -0.243 OA
ENDROOT
BRANCH   2   4
ATOM      4  C   UNL     1      -1.879   5.613  -3.303  0.00  0.00    +0.295 C 
ATOM      5  O   UNL     1      -2.824   4.666  -2.869  0.00  0.00    -0.207 OA
ENDBRANCH   2   4
TORSDOF 1
ENDMDL
