MODEL 1
REMARK VINA RESULT:      -8.6      0.000      0.000
REMARK  Name = 
REMARK  7 active torsions:
REMARK  status: ('A' for Active; 'I' for Inactive)
REMARK    1  A    between atoms: C_4  and  C_5
REMARK    2  A    between atoms: C_5  and  O_7
REMARK    3  A    between atoms: O_7  and  C_8
REMARK    4  A    between atoms: C_8  and  C_9
REMARK    5  A    between atoms: C_13  and  O_14
REMARK    6  A    between atoms: O_14  and  C_15
REMARK    7  A    between atoms: C_22  and  C_23
REMARK                            x       y       z     vdW  Elec       q    Type
REMARK                         _______ _______ _______ _____ _____    ______ ____
ROOT
ATOM      1  C   UNL     1      -0.088   5.484  -8.448  0.00  0.00    +0.235 C 
ENDROOT
BRANCH   1   2
ATOM      2  C   UNL     1      -0.509   5.280  -7.061  0.00  0.00    +0.024 A 
ATOM      3  C   UNL     1       0.422   4.930  -6.116  0.00  0.00    +0.037 A 
ATOM      4  C   UNL     1       0.259   5.178  -4.759  0.00  0.00    +0.145 A 
ATOM      5  C   UNL     1      -0.997   5.647  -4.393  0.00  0.00    +0.037 A 
ATOM      6  C   UNL     1      -2.016   5.801  -5.310  0.00  0.00    +0.003 A 
ATOM      7  C   UNL     1      -1.683   5.877  -6.639  0.00  0.00    -0.000 A 
BRANCH   4   8
ATOM      8  O   UNL     1       1.348   5.520  -3.951  0.00  0.00    -0.454 OA
BRANCH   8   9
ATOM      9  C   UNL     1       2.591   5.703  -4.565  0.00  0.00    +0.145 A 
ATOM     10  C   UNL     1       2.998   7.024  -4.709  0.00  0.00    +0.037 A 
ATOM     11  C   UNL     1       4.337   7.371  -4.780  0.00  0.00    +0.003 A 
ATOM     12  C   UNL     1       5.264   6.522  -4.235  0.00  0.00    +0.000 A 
ATOM     13  C   UNL     1       4.917   5.190  -4.086  0.00  0.00    +0.003 A 
ATOM     14  C   UNL     1       3.592   4.813  -4.197  0.00  0.00    +0.037 A 
ENDBRANCH   8   9
ENDBRANCH   4   8
ENDBRANCH   1   2
BRANCH   1  15
ATOM     15  O   UNL     1       1.015   6.393  -8.481  0.00  0.00    -0.443 OA
BRANCH  15  16
ATOM     16  C   UNL     1       1.976   6.108  -9.363  0.00  0.00    +0.317 C 
ATOM     17  O   UNL     1       1.732   5.786 -10.554  0.00  0.00    -0.250 OA
BRANCH  16  21
ATOM     18  C   UNL     1       4.225   5.486  -8.176  0.00  0.00    +0.001 C 
ATOM     19  C   UNL     1       4.186   5.502  -8.329  0.00  0.00    +0.015 C 
ATOM     20  C   UNL     1       4.239   5.520 -10.052  0.00  0.00    +0.035 C 
ATOM     21  C   UNL     1       3.440   6.778  -9.190  0.00  0.00    +0.103 C 
ATOM     22  C   UNL     1       3.368   4.386  -7.891  0.00  0.00    +0.001 C 
BRANCH  20  23
ATOM     23  C   UNL     1       5.673   6.287 -10.095  0.00  0.00    -0.003 C 
ATOM     24  C   UNL     1       6.285   5.985 -11.234  0.00  0.00    +0.111 C 
ATOM     25 CL   UNL     1       5.535   5.254 -12.623  0.00  0.00    -0.070 Cl
ATOM     26 CL   UNL     1       8.017   6.322 -11.278  0.00  0.00    -0.070 Cl
ENDBRANCH  20  23
ENDBRANCH  16  21
ENDBRANCH  15  16
ENDBRANCH   1  15
TORSDOF 7
ENDMDL
MODEL 2
REMARK VINA RESULT:      -8.4      2.520      4.899
REMARK  Name = 
REMARK  7 active torsions:
REMARK  status: ('A' for Active; 'I' for Inactive)
REMARK    1  A    between atoms: C_4  and  C_5
REMARK    2  A    between atoms: C_5  and  O_7
REMARK    3  A    between atoms: O_7  and  C_8
REMARK    4  A    between atoms: C_8  and  C_9
REMARK    5  A    between atoms: C_13  and  O_14
REMARK    6  A    between atoms: O_14  and  C_15
REMARK    7  A    between atoms: C_22  and  C_23
REMARK                            x       y       z     vdW  Elec       q    Type
REMARK                         _______ _______ _______ _____ _____    ______ ____
ROOT
ATOM      1  C   UNL     1       4.307   6.705  -5.593  0.00  0.00    +0.235 C 
ENDROOT
BRANCH   1   2
ATOM      2  C   UNL     1       3.723   6.469  -4.272  0.00  0.00    +0.024 A 
ATOM      3  C   UNL     1       2.435   6.868  -4.019  0.00  0.00    +0.037 A 
ATOM      4  C   UNL     1       1.640   6.295  -3.035  0.00  0.00    +0.145 A 
ATOM      5  C   UNL     1       2.294   5.405  -2.194  0.00  0.00    +0.037 A 
ATOM      6  C   UNL     1       3.647   5.154  -2.303  0.00  0.00    +0.003 A 
ATOM      7  C   UNL     1       4.268   5.471  -3.485  0.00  0.00    -0.000 A 
BRANCH   4   8
ATOM      8  O   UNL     1       0.264   6.130  -3.224  0.00  0.00    -0.454 OA
BRANCH   8   9
ATOM      9  C   UNL     1      -0.272   6.454  -4.474  0.00  0.00    +0.145 A 
ATOM     10  C   UNL     1      -0.252   5.434  -5.417  0.00  0.00    +0.037 A 
ATOM     11  C   UNL     1      -1.167   5.380  -6.455  0.00  0.00    +0.003 A 
ATOM     12  C   UNL     1      -2.369   6.020  -6.302  0.00  0.00    +0.000 A 
ATOM     13  C   UNL     1      -2.441   7.058  -5.389  0.00  0.00    +0.003 A 
ATOM     14  C   UNL     1      -1.429   7.223  -4.462  0.00  0.00    +0.037 A 
ENDBRANCH   8   9
ENDBRANCH   4   8
ENDBRANCH   1   2
BRANCH   1  15
ATOM     15  O   UNL     1       4.359   5.474  -6.317  0.00  0.00    -0.443 OA
BRANCH  15  16
ATOM     16  C   UNL     1       3.346   5.250  -7.156  0.00  0.00    +0.317 C 
ATOM     17  O   UNL     1       2.643   4.208  -7.111  0.00  0.00    -0.250 OA
BRANCH  16  21
ATOM     18  C   UNL     1       3.571   6.761  -9.282  0.00  0.00    +0.001 C 
ATOM     19  C   UNL     1       3.461   6.656  -9.237  0.00  0.00    +0.015 C 
ATOM     20  C   UNL     1       2.075   5.631  -9.201  0.00  0.00    +0.035 C 
ATOM     21  C   UNL     1       2.550   6.507  -7.797  0.00  0.00    +0.103 C 
ATOM     22  C   UNL     1       4.650   5.840  -9.397  0.00  0.00    +0.001 C 
BRANCH  20  23
ATOM     23  C   UNL     1       1.080   6.797  -9.746  0.00  0.00    -0.003 C 
ATOM     24  C   UNL     1       0.187   6.250 -10.561  0.00  0.00    +0.111 C 
ATOM     25 CL   UNL     1      -0.147   4.548 -10.702  0.00  0.00    -0.070 Cl
ATOM     26 CL   UNL     1      -0.675   7.378 -11.611  0.00  0.00    -0.070 Cl
ENDBRANCH  20  23
ENDBRANCH  16  21
ENDBRANCH  15  16
ENDBRANCH   1  15
TORSDOF 7
ENDMDL
MODEL 3
REMARK VINA RESULT:      -8.3      4.329      7.531
REMARK  Name = 
REMARK  7 active torsions:
REMARK  status: ('A' for Active; 'I' for Inactive)
REMARK    1  A    between atoms: C_4  and  C_5
REMARK    2  A    between atoms: C_5  and  O_7
REMARK    3  A    between atoms: O_7  and  C_8
REMARK    4  A    between atoms: C_8  and  C_9
REMARK    5  A    between atoms: C_13  and  O_14
REMARK    6  A    between atoms: O_14  and  C_15
REMARK    7  A    between atoms: C_22  and  C_23
REMARK                            x       y       z     vdW  Elec       q    Type
REMARK                         _______ _______ _______ _____ _____    ______ ____
ROOT
ATOM      1  C   UNL     1       0.257   5.408  -8.095  0.00  0.00    +0.235 C 
ENDROOT
BRANCH   1   2
ATOM      2  C   UNL     1       0.689   6.002  -9.362  0.00  0.00    +0.024 A 
ATOM      3  C   UNL     1       2.023   6.248  -9.575  0.00  0.00    +0.037 A 
ATOM      4  C   UNL     1       2.587   6.338 -10.840  0.00  0.00    +0.145 A 
ATOM      5  C   UNL     1       1.680   6.339 -11.892  0.00  0.00    +0.037 A 
ATOM      6  C   UNL     1       0.316   6.306 -11.682  0.00  0.00    +0.003 A 
ATOM      7  C   UNL     1      -0.139   5.870 -10.462  0.00  0.00    -0.000 A 
BRANCH   4   8
ATOM      8  O   UNL     1       3.879   5.864 -11.089  0.00  0.00    -0.454 OA
BRANCH   8   9
ATOM      9  C   UNL     1       4.945   6.476 -10.420  0.00  0.00    +0.145 A 
ATOM     10  C   UNL     1       5.788   5.617  -9.727  0.00  0.00    +0.037 A 
ATOM     11  C   UNL     1       7.114   5.936  -9.481  0.00  0.00    +0.003 A 
ATOM     12  C   UNL     1       7.734   6.838 -10.305  0.00  0.00    +0.000 A 
ATOM     13  C   UNL     1       6.941   7.730 -11.006  0.00  0.00    +0.003 A 
ATOM     14  C   UNL     1       5.581   7.508 -11.099  0.00  0.00    +0.037 A 
ENDBRANCH   8   9
ENDBRANCH   4   8
ENDBRANCH   1   2
BRANCH   1  15
ATOM     15  O   UNL     1       0.548   6.310  -7.025  0.00  0.00    -0.443 OA
BRANCH  15  16
ATOM     16  C   UNL     1       0.055   5.972  -5.831  0.00  0.00    +0.317 C 
ATOM     17  O   UNL     1       0.457   4.967  -5.190  0.00  0.00    -0.250 OA
BRANCH  16  21
ATOM     18  C   UNL     1      -2.311   6.953  -5.292  0.00  0.00    +0.001 C 
ATOM     19  C   UNL     1      -2.207   6.870  -5.205  0.00  0.00    +0.015 C 
ATOM     20  C   UNL     1      -1.456   6.004  -3.918  0.00  0.00    +0.035 C 
ATOM     21  C   UNL     1      -0.550   7.122  -4.865  0.00  0.00    +0.103 C 
ATOM     22  C   UNL     1      -2.569   5.939  -6.257  0.00  0.00    +0.001 C 
BRANCH  20  23
ATOM     23  C   UNL     1      -1.884   7.104  -2.799  0.00  0.00    -0.003 C 
ATOM     24  C   UNL     1      -1.465   6.688  -1.610  0.00  0.00    +0.111 C 
ATOM     25 CL   UNL     1      -0.303   5.424  -1.331  0.00  0.00    -0.070 Cl
ATOM     26 CL   UNL     1      -2.218   7.476  -0.221  0.00  0.00    -0.070 Cl
ENDBRANCH  20  23
ENDBRANCH  16  21
ENDBRANCH  15  16
ENDBRANCH   1  15
TORSDOF 7
ENDMDL
MODEL 4
REMARK VINA RESULT:      -8.1      3.297      6.294
REMARK  Name = 
REMARK  7 active torsions:
REMARK  status: ('A' for Active; 'I' for Inactive)
REMARK    1  A    between atoms: C_4  and  C_5
REMARK    2  A    between atoms: C_5  and  O_7
REMARK    3  A    between atoms: O_7  and  C_8
REMARK    4  A    between atoms: C_8  and  C_9
REMARK    5  A    between atoms: C_13  and  O_14
REMARK    6  A    between atoms: O_14  and  C_15
REMARK    7  A    between atoms: C_22  and  C_23
REMARK                            x       y       z     vdW  Elec       q    Type
REMARK                         _______ _______ _______ _____ _____    ______ ____
ROOT
ATOM      1  C   UNL     1       0.286   4.805 -10.270  0.00  0.00    +0.235 C 
ENDROOT
BRANCH   1   2
ATOM      2  C   UNL     1       0.958   5.272 -11.484  0.00  0.00    +0.024 A 
ATOM      3  C   UNL     1       2.236   5.766 -11.403  0.00  0.00    +0.037 A 
ATOM      4  C   UNL     1       3.117   5.776 -12.476  0.00  0.00    +0.145 A 
ATOM      5  C   UNL     1       2.562   5.415 -13.697  0.00  0.00    +0.037 A 
ATOM      6  C   UNL     1       1.221   5.120 -13.833  0.00  0.00    +0.003 A 
ATOM      7  C   UNL     1       0.515   4.792 -12.703  0.00  0.00    -0.000 A 
BRANCH   4   8
ATOM      8  O   UNL     1       4.486   5.562 -12.288  0.00  0.00    -0.454 OA
BRANCH   8   9
ATOM      9  C   UNL     1       5.127   6.262 -11.261  0.00  0.00    +0.145 A 
ATOM     10  C   UNL     1       5.780   5.477 -10.319  0.00  0.00    +0.037 A 
ATOM     11  C   UNL     1       6.859   5.954  -9.593  0.00  0.00    +0.003 A 
ATOM     12  C   UNL     1       7.592   6.989 -10.112  0.00  0.00    +0.000 A 
ATOM     13  C   UNL     1       6.983   7.815 -11.041  0.00  0.00    +0.003 A 
ATOM     14  C   UNL     1       5.801   7.417 -11.637  0.00  0.00    +0.037 A 
ENDBRANCH   8   9
ENDBRANCH   4   8
ENDBRANCH   1   2
BRANCH   1  15
ATOM     15  O   UNL     1       0.035   5.917  -9.408  0.00  0.00    -0.443 OA
BRANCH  15  16
ATOM     16  C   UNL     1       0.382   5.751  -8.130  0.00  0.00    +0.317 C 
ATOM     17  O   UNL     1      -0.464   5.656  -7.203  0.00  0.00    -0.250 OA
BRANCH  16  21
ATOM     18  C   UNL     1       2.887   6.452  -7.839  0.00  0.00    +0.001 C 
ATOM     19  C   UNL     1       2.779   6.397  -7.736  0.00  0.00    +0.015 C 
ATOM     20  C   UNL     1       1.985   5.875  -6.298  0.00  0.00    +0.035 C 
ATOM     21  C   UNL     1       1.777   5.011  -7.773  0.00  0.00    +0.103 C 
ATOM     22  C   UNL     1       2.220   7.671  -8.151  0.00  0.00    +0.001 C 
BRANCH  20  23
ATOM     23  C   UNL     1       3.254   4.983  -5.807  0.00  0.00    -0.003 C 
ATOM     24  C   UNL     1       3.471   5.222  -4.519  0.00  0.00    +0.111 C 
ATOM     25 CL   UNL     1       2.360   6.007  -3.434  0.00  0.00    -0.070 Cl
ATOM     26 CL   UNL     1       5.055   4.733  -3.912  0.00  0.00    -0.070 Cl
ENDBRANCH  20  23
ENDBRANCH  16  21
ENDBRANCH  15  16
ENDBRANCH   1  15
TORSDOF 7
ENDMDL
MODEL 5
REMARK VINA RESULT:      -7.7      2.820      5.176
REMARK  Name = 
REMARK  7 active torsions:
REMARK  status: ('A' for Active; 'I' for Inactive)
REMARK    1  A    between atoms: C_4  and  C_5
REMARK    2  A    between atoms: C_5  and  O_7
REMARK    3  A    between atoms: O_7  and  C_8
REMARK    4  A    between atoms: C_8  and  C_9
REMARK    5  A    between atoms: C_13  and  O_14
REMARK    6  A    between atoms: O_14  and  C_15
REMARK    7  A    between atoms: C_22  and  C_23
REMARK                            x       y       z     vdW  Elec       q    Type
REMARK                         _______ _______ _______ _____ _____    ______ ____
ROOT
ATOM      1  C   UNL     1       3.528   6.093  -5.586  0.00  0.00    +0.235 C 
ENDROOT
BRANCH   1   2
ATOM      2  C   UNL     1       3.342   5.953  -4.141  0.00  0.00    +0.024 A 
ATOM      3  C   UNL     1       2.094   6.133  -3.598  0.00  0.00    +0.037 A 
ATOM      4  C   UNL     1       1.704   5.575  -2.388  0.00  0.00    +0.145 A 
ATOM      5  C   UNL     1       2.720   4.963  -1.666  0.00  0.00    +0.037 A 
ATOM      6  C   UNL     1       4.029   4.961  -2.102  0.00  0.00    +0.003 A 
ATOM      7  C   UNL     1       4.266   5.208  -3.432  0.00  0.00    -0.000 A 
BRANCH   4   8
ATOM      8  O   UNL     1       0.395   5.124  -2.191  0.00  0.00    -0.454 OA
BRANCH   8   9
ATOM      9  C   UNL     1      -0.656   5.955  -2.592  0.00  0.00    +0.145 A 
ATOM     10  C   UNL     1      -1.558   5.391  -3.486  0.00  0.00    +0.037 A 
ATOM     11  C   UNL     1      -2.871   5.822  -3.567  0.00  0.00    +0.003 A 
ATOM     12  C   UNL     1      -3.426   6.442  -2.479  0.00  0.00    +0.000 A 
ATOM     13  C   UNL     1      -2.573   7.038  -1.566  0.00  0.00    +0.003 A 
ATOM     14  C   UNL     1      -1.223   6.745  -1.600  0.00  0.00    +0.037 A 
ENDBRANCH   8   9
ENDBRANCH   4   8
ENDBRANCH   1   2
BRANCH   1  15
ATOM     15  O   UNL     1       3.028   7.364  -6.009  0.00  0.00    -0.443 OA
BRANCH  15  16
ATOM     16  C   UNL     1       2.348   7.367  -7.157  0.00  0.00    +0.317 C 
ATOM     17  O   UNL     1       2.076   8.424  -7.783  0.00  0.00    -0.250 OA
BRANCH  16  21
ATOM     18  C   UNL     1       0.824   5.308  -7.695  0.00  0.00    +0.001 C 
ATOM     19  C   UNL     1       0.870   5.433  -7.782  0.00  0.00    +0.015 C 
ATOM     20  C   UNL     1       1.060   6.567  -9.066  0.00  0.00    +0.035 C 
ATOM     21  C   UNL     1       2.418   6.073  -8.128  0.00  0.00    +0.103 C 
ATOM     22  C   UNL     1       0.085   6.041  -6.724  0.00  0.00    +0.001 C 
BRANCH  20  23
ATOM     23  C   UNL     1       1.255   5.407 -10.190  0.00  0.00    -0.003 C 
ATOM     24  C   UNL     1       0.574   5.747 -11.277  0.00  0.00    +0.111 C 
ATOM     25 CL   UNL     1      -0.062   7.331 -11.619  0.00  0.00    -0.070 Cl
ATOM     26 CL   UNL     1       0.267   4.439 -12.422  0.00  0.00    -0.070 Cl
ENDBRANCH  20  23
ENDBRANCH  16  21
ENDBRANCH  15  16
ENDBRANCH   1  15
TORSDOF 7
ENDMDL
MODEL 6
REMARK VINA RESULT:      -7.6      4.146      7.171
REMARK  Name = 
REMARK  7 active torsions:
REMARK  status: ('A' for Active; 'I' for Inactive)
REMARK    1  A    between atoms: C_4  and  C_5
REMARK    2  A    between atoms: C_5  and  O_7
REMARK    3  A    between atoms: O_7  and  C_8
REMARK    4  A    between atoms: C_8  and  C_9
REMARK    5  A    between atoms: C_13  and  O_14
REMARK    6  A    between atoms: O_14  and  C_15
REMARK    7  A    between atoms: C_22  and  C_23
REMARK                            x       y       z     vdW  Elec       q    Type
REMARK                         _______ _______ _______ _____ _____    ______ ____
ROOT
ATOM      1  C   UNL     1       2.350   4.406  -5.995  0.00  0.00    +0.235 C 
ENDROOT
BRANCH   1   2
ATOM      2  C   UNL     1       2.682   5.422  -6.996  0.00  0.00    +0.024 A 
ATOM      3  C   UNL     1       3.699   5.187  -7.887  0.00  0.00    +0.037 A 
ATOM      4  C   UNL     1       3.784   5.809  -9.125  0.00  0.00    +0.145 A 
ATOM      5  C   UNL     1       2.863   6.828  -9.337  0.00  0.00    +0.037 A 
ATOM      6  C   UNL     1       1.969   7.220  -8.363  0.00  0.00    +0.003 A 
ATOM      7  C   UNL     1       1.713   6.349  -7.333  0.00  0.00    -0.000 A 
BRANCH   4   8
ATOM      8  O   UNL     1       4.279   5.129 -10.242  0.00  0.00    -0.454 OA
BRANCH   8   9
ATOM      9  C   UNL     1       5.458   5.599 -10.830  0.00  0.00    +0.145 A 
ATOM     10  C   UNL     1       5.316   6.712 -11.649  0.00  0.00    +0.037 A 
ATOM     11  C   UNL     1       6.358   7.599 -11.864  0.00  0.00    +0.003 A 
ATOM     12  C   UNL     1       7.355   7.678 -10.927  0.00  0.00    +0.000 A 
ATOM     13  C   UNL     1       7.553   6.588 -10.096  0.00  0.00    +0.003 A 
ATOM     14  C   UNL     1       6.586   5.604 -10.019  0.00  0.00    +0.037 A 
ENDBRANCH   8   9
ENDBRANCH   4   8
ENDBRANCH   1   2
BRANCH   1  15
ATOM     15  O   UNL     1       3.343   4.410  -4.967  0.00  0.00    -0.443 OA
BRANCH  15  16
ATOM     16  C   UNL     1       3.127   5.252  -3.954  0.00  0.00    +0.317 C 
ATOM     17  O   UNL     1       1.978   5.490  -3.502  0.00  0.00    -0.250 OA
BRANCH  16  21
ATOM     18  C   UNL     1       5.078   6.955  -3.571  0.00  0.00    +0.001 C 
ATOM     19  C   UNL     1       4.943   6.926  -3.490  0.00  0.00    +0.015 C 
ATOM     20  C   UNL     1       3.658   7.005  -2.345  0.00  0.00    +0.035 C 
ATOM     21  C   UNL     1       4.288   5.483  -2.848  0.00  0.00    +0.103 C 
ATOM     22  C   UNL     1       4.463   7.398  -4.776  0.00  0.00    +0.001 C 
BRANCH  20  23
ATOM     23  C   UNL     1       4.667   7.146  -1.077  0.00  0.00    -0.003 C 
ATOM     24  C   UNL     1       3.963   7.492  -0.007  0.00  0.00    +0.111 C 
ATOM     25 CL   UNL     1       2.231   7.399   0.139  0.00  0.00    -0.070 Cl
ATOM     26 CL   UNL     1       4.898   8.147   1.340  0.00  0.00    -0.070 Cl
ENDBRANCH  20  23
ENDBRANCH  16  21
ENDBRANCH  15  16
ENDBRANCH   1  15
TORSDOF 7
ENDMDL
MODEL 7
REMARK VINA RESULT:      -7.6      1.927      4.279
REMARK  Name = 
REMARK  7 active torsions:
REMARK  status: ('A' for Active; 'I' for Inactive)
REMARK    1  A    between atoms: C_4  and  C_5
REMARK    2  A    between atoms: C_5  and  O_7
REMARK    3  A    between atoms: O_7  and  C_8
REMARK    4  A    between atoms: C_8  and  C_9
REMARK    5  A    between atoms: C_13  and  O_14
REMARK    6  A    between atoms: O_14  and  C_15
REMARK    7  A    between atoms: C_22  and  C_23
REMARK                            x       y       z     vdW  Elec       q    Type
REMARK                         _______ _______ _______ _____ _____    ______ ____
ROOT
ATOM      1  C   UNL     1       4.246   5.579  -7.680  0.00  0.00    +0.235 C 
ENDROOT
BRANCH   1   2
ATOM      2  C   UNL     1       3.568   6.162  -6.521  0.00  0.00    +0.024 A 
ATOM      3  C   UNL     1       2.235   5.907  -6.317  0.00  0.00    +0.037 A 
ATOM      4  C   UNL     1       1.629   5.981  -5.071  0.00  0.00    +0.145 A 
ATOM      5  C   UNL     1       2.422   6.507  -4.059  0.00  0.00    +0.037 A 
ATOM      6  C   UNL     1       3.701   6.969  -4.298  0.00  0.00    +0.003 A 
ATOM      7  C   UNL     1       4.337   6.545  -5.438  0.00  0.00    -0.000 A 
BRANCH   4   8
ATOM      8  O   UNL     1       0.609   5.094  -4.710  0.00  0.00    -0.454 OA
BRANCH   8   9
ATOM      9  C   UNL     1      -0.657   5.622  -4.438  0.00  0.00    +0.145 A 
ATOM     10  C   UNL     1      -0.979   5.741  -3.092  0.00  0.00    +0.037 A 
ATOM     11  C   UNL     1      -1.888   6.683  -2.639  0.00  0.00    +0.003 A 
ATOM     12  C   UNL     1      -2.109   7.800  -3.402  0.00  0.00    +0.000 A 
ATOM     13  C   UNL     1      -1.823   7.731  -4.754  0.00  0.00    +0.003 A 
ATOM     14  C   UNL     1      -1.061   6.684  -5.238  0.00  0.00    +0.037 A 
ENDBRANCH   8   9
ENDBRANCH   4   8
ENDBRANCH   1   2
BRANCH   1  15
ATOM     15  O   UNL     1       4.263   6.529  -8.749  0.00  0.00    -0.443 OA
BRANCH  15  16
ATOM     16  C   UNL     1       4.765   6.092  -9.906  0.00  0.00    +0.317 C 
ATOM     17  O   UNL     1       4.325   5.071 -10.495  0.00  0.00    -0.250 OA
BRANCH  16  21
ATOM     18  C   UNL     1       7.195   6.885 -10.468  0.00  0.00    +0.001 C 
ATOM     19  C   UNL     1       7.087   6.805 -10.552  0.00  0.00    +0.015 C 
ATOM     20  C   UNL     1       6.290   5.923 -11.800  0.00  0.00    +0.035 C 
ATOM     21  C   UNL     1       5.453   7.147 -10.924  0.00  0.00    +0.103 C 
ATOM     22  C   UNL     1       7.377   5.908  -9.449  0.00  0.00    +0.001 C 
BRANCH  20  23
ATOM     23  C   UNL     1       6.799   6.931 -12.970  0.00  0.00    -0.003 C 
ATOM     24  C   UNL     1       6.122   6.672 -14.082  0.00  0.00    +0.111 C 
ATOM     25 CL   UNL     1       4.661   5.731 -14.182  0.00  0.00    -0.070 Cl
ATOM     26 CL   UNL     1       6.827   7.311 -15.569  0.00  0.00    -0.070 Cl
ENDBRANCH  20  23
ENDBRANCH  16  21
ENDBRANCH  15  16
ENDBRANCH   1  15
TORSDOF 7
ENDMDL
MODEL 8
REMARK VINA RESULT:      -7.6      4.206      6.668
REMARK  Name = 
REMARK  7 active torsions:
REMARK  status: ('A' for Active; 'I' for Inactive)
REMARK    1  A    between atoms: C_4  and  C_5
REMARK    2  A    between atoms: C_5  and  O_7
REMARK    3  A    between atoms: O_7  and  C_8
REMARK    4  A    between atoms: C_8  and  C_9
REMARK    5  A    between atoms: C_13  and  O_14
REMARK    6  A    between atoms: O_14  and  C_15
REMARK    7  A    between atoms: C_22  and  C_23
REMARK                            x       y       z     vdW  Elec       q    Type
REMARK                         _______ _______ _______ _____ _____    ______ ____
ROOT
ATOM      1  C   UNL     1       2.820   5.437  -6.454  0.00  0.00    +0.235 C 
ENDROOT
BRANCH   1   2
ATOM      2  C   UNL     1       1.576   5.180  -7.182  0.00  0.00    +0.024 A 
ATOM      3  C   UNL     1       0.400   5.044  -6.488  0.00  0.00    +0.037 A 
ATOM      4  C   UNL     1      -0.847   5.281  -7.051  0.00  0.00    +0.145 A 
ATOM      5  C   UNL     1      -0.844   5.494  -8.423  0.00  0.00    +0.037 A 
ATOM      6  C   UNL     1       0.313   5.422  -9.172  0.00  0.00    +0.003 A 
ATOM      7  C   UNL     1       1.514   5.536  -8.517  0.00  0.00    -0.000 A 
BRANCH   4   8
ATOM      8  O   UNL     1      -1.881   5.851  -6.301  0.00  0.00    -0.454 OA
BRANCH   8   9
ATOM      9  C   UNL     1      -1.649   6.102  -4.945  0.00  0.00    +0.145 A 
ATOM     10  C   UNL     1      -1.615   7.443  -4.582  0.00  0.00    +0.037 A 
ATOM     11  C   UNL     1      -1.930   7.861  -3.299  0.00  0.00    +0.003 A 
ATOM     12  C   UNL     1      -2.728   7.059  -2.526  0.00  0.00    +0.000 A 
ATOM     13  C   UNL     1      -2.784   5.710  -2.832  0.00  0.00    +0.003 A 
ATOM     14  C   UNL     1      -2.300   5.265  -4.048  0.00  0.00    +0.037 A 
ENDBRANCH   8   9
ENDBRANCH   4   8
ENDBRANCH   1   2
BRANCH   1  15
ATOM     15  O   UNL     1       2.896   4.566  -5.322  0.00  0.00    -0.443 OA
BRANCH  15  16
ATOM     16  C   UNL     1       3.488   5.073  -4.239  0.00  0.00    +0.317 C 
ATOM     17  O   UNL     1       4.549   4.597  -3.758  0.00  0.00    -0.250 OA
BRANCH  16  21
ATOM     18  C   UNL     1       1.748   6.540  -2.945  0.00  0.00    +0.001 C 
ATOM     19  C   UNL     1       1.901   6.505  -2.917  0.00  0.00    +0.015 C 
ATOM     20  C   UNL     1       3.462   6.398  -2.193  0.00  0.00    +0.035 C 
ATOM     21  C   UNL     1       3.301   6.644  -3.890  0.00  0.00    +0.103 C 
ATOM     22  C   UNL     1       1.244   5.215  -2.821  0.00  0.00    +0.001 C 
BRANCH  20  23
ATOM     23  C   UNL     1       3.512   7.986  -1.841  0.00  0.00    -0.003 C 
ATOM     24  C   UNL     1       4.029   8.137  -0.627  0.00  0.00    +0.111 C 
ATOM     25 CL   UNL     1       4.893   6.919   0.265  0.00  0.00    -0.070 Cl
ATOM     26 CL   UNL     1       3.745   9.707   0.128  0.00  0.00    -0.070 Cl
ENDBRANCH  20  23
ENDBRANCH  16  21
ENDBRANCH  15  16
ENDBRANCH   1  15
TORSDOF 7
ENDMDL
MODEL 9
REMARK VINA RESULT:      -7.5      2.204      4.886
REMARK  Name = 
REMARK  7 active torsions:
REMARK  status: ('A' for Active; 'I' for Inactive)
REMARK    1  A    between atoms: C_4  and  C_5
REMARK    2  A    between atoms: C_5  and  O_7
REMARK    3  A    between atoms: O_7  and  C_8
REMARK    4  A    between atoms: C_8  and  C_9
REMARK    5  A    between atoms: C_13  and  O_14
REMARK    6  A    between atoms: O_14  and  C_15
REMARK    7  A    between atoms: C_22  and  C_23
REMARK                            x       y       z     vdW  Elec       q    Type
REMARK                         _______ _______ _______ _____ _____    ______ ____
ROOT
ATOM      1  C   UNL     1       3.984   5.514  -6.893  0.00  0.00    +0.235 C 
ENDROOT
BRANCH   1   2
ATOM      2  C   UNL     1       2.555   5.595  -6.582  0.00  0.00    +0.024 A 
ATOM      3  C   UNL     1       1.685   6.092  -7.521  0.00  0.00    +0.037 A 
ATOM      4  C   UNL     1       0.333   5.780  -7.544  0.00  0.00    +0.145 A 
ATOM      5  C   UNL     1      -0.127   5.068  -6.443  0.00  0.00    +0.037 A 
ATOM      6  C   UNL     1       0.697   4.746  -5.384  0.00  0.00    +0.003 A 
ATOM      7  C   UNL     1       2.054   4.772  -5.591  0.00  0.00    -0.000 A 
BRANCH   4   8
ATOM      8  O   UNL     1      -0.354   5.632  -8.754  0.00  0.00    -0.454 OA
BRANCH   8   9
ATOM      9  C   UNL     1       0.364   5.799  -9.942  0.00  0.00    +0.145 A 
ATOM     10  C   UNL     1       0.496   4.661 -10.727  0.00  0.00    +0.037 A 
ATOM     11  C   UNL     1       0.675   4.736 -12.099  0.00  0.00    +0.003 A 
ATOM     12  C   UNL     1       0.248   5.860 -12.755  0.00  0.00    +0.000 A 
ATOM     13  C   UNL     1       0.118   7.029 -12.024  0.00  0.00    +0.003 A 
ATOM     14  C   UNL     1       0.121   6.974 -10.643  0.00  0.00    +0.037 A 
ENDBRANCH   8   9
ENDBRANCH   4   8
ENDBRANCH   1   2
BRANCH   1  15
ATOM     15  O   UNL     1       4.169   4.735  -8.078  0.00  0.00    -0.443 OA
BRANCH  15  16
ATOM     16  C   UNL     1       5.001   5.249  -8.986  0.00  0.00    +0.317 C 
ATOM     17  O   UNL     1       6.210   5.493  -8.739  0.00  0.00    -0.250 OA
BRANCH  16  21
ATOM     18  C   UNL     1       3.879   6.519 -10.981  0.00  0.00    +0.001 C 
ATOM     19  C   UNL     1       4.030   6.477 -10.952  0.00  0.00    +0.015 C 
ATOM     20  C   UNL     1       5.737   6.271 -11.073  0.00  0.00    +0.035 C 
ATOM     21  C   UNL     1       4.734   4.969 -10.559  0.00  0.00    +0.103 C 
ATOM     22  C   UNL     1       3.739   7.411  -9.880  0.00  0.00    +0.001 C 
BRANCH  20  23
ATOM     23  C   UNL     1       5.673   5.865 -12.647  0.00  0.00    -0.003 C 
ATOM     24  C   UNL     1       6.898   5.928 -13.154  0.00  0.00    +0.111 C 
ATOM     25 CL   UNL     1       8.372   6.007 -12.233  0.00  0.00    -0.070 Cl
ATOM     26 CL   UNL     1       6.989   5.986 -14.916  0.00  0.00    -0.070 Cl
ENDBRANCH  20  23
ENDBRANCH  16  21
ENDBRANCH  15  16
ENDBRANCH   1  15
TORSDOF 7
ENDMDL
