MODEL 1
REMARK VINA RESULT:      -6.2      0.000      0.000
REMARK  Name = 
REMARK  12 active torsions:
REMARK  status: ('A' for Active; 'I' for Inactive)
REMARK    1  A    between atoms: C_2  and  C_3
REMARK    2  A    between atoms: N_5  and  C_6
REMARK    3  A    between atoms: N_5  and  C_9
REMARK    4  A    between atoms: C_6  and  C_7
REMARK    5  A    between atoms: C_12  and  C_13
REMARK    6  A    between atoms: N_15  and  C_16
REMARK    7  A    between atoms: C_16  and  C_17
REMARK    8  A    between atoms: C_17  and  C_19
REMARK    9  A    between atoms: C_23  and  C_24
REMARK   10  A    between atoms: N_26  and  C_27
REMARK   11  A    between atoms: C_27  and  C_28
REMARK   12  A    between atoms: C_28  and  C_30
REMARK                            x       y       z     vdW  Elec       q    Type
REMARK                         _______ _______ _______ _____ _____    ______ ____
ROOT
ATOM      1  C   UNL     1      -0.335   5.867  -4.565  0.00  0.00    +0.065 A 
ATOM      2  C   UNL     1       0.487   6.009  -3.457  0.00  0.00    +0.049 A 
ATOM      3  I   UNL     1      -0.387   5.520  -1.590  0.00  0.00    -0.041 I 
ATOM      4  C   UNL     1       1.856   6.222  -3.564  0.00  0.00    +0.067 A 
ATOM      5  C   UNL     1       2.415   5.911  -4.770  0.00  0.00    +0.040 A 
ATOM      6  I   UNL     1       4.518   5.920  -4.912  0.00  0.00    -0.042 I 
ATOM      7  C   UNL     1       1.669   5.337  -5.795  0.00  0.00    +0.067 A 
ATOM      8  C   UNL     1       0.320   5.681  -5.778  0.00  0.00    +0.049 A 
ATOM      9  I   UNL     1      -0.874   5.385  -7.468  0.00  0.00    -0.041 I 
ENDROOT
BRANCH   1  12
ATOM     10  O   UNL     1      -3.053   5.018  -5.037  0.00  0.00    -0.272 OA
ATOM     11  C   UNL     1      -2.722   5.546  -4.289  0.00  0.00    +0.263 C 
ATOM     12  N   UNL     1      -1.629   6.458  -4.479  0.00  0.00    -0.253 N 
BRANCH  11  13
ATOM     13  C   UNL     1      -3.251   5.286  -2.914  0.00  0.00    +0.267 C 
ATOM     14  O   UNL     1      -4.174   6.299  -2.606  0.00  0.00    -0.210 OA
ENDBRANCH  11  13
BRANCH  12  15
ATOM     15  C   UNL     1      -1.990   7.725  -5.061  0.00  0.00    +0.134 C 
BRANCH  15  16
ATOM     16  C   UNL     1      -1.883   8.877  -4.076  0.00  0.00    +0.204 C 
ATOM     17  O   UNL     1      -2.025   8.489  -2.763  0.00  0.00    -0.218 OA
ENDBRANCH  15  16
ENDBRANCH  12  15
ENDBRANCH   1  12
BRANCH   4  18
ATOM     18  C   UNL     1       2.583   6.465  -2.337  0.00  0.00    +0.266 C 
ATOM     19  N   UNL     1       2.837   7.770  -1.804  0.00  0.00    -0.199 NA
ATOM     20  O   UNL     1       3.223   5.530  -1.768  0.00  0.00    -0.268 OA
BRANCH  19  21
ATOM     21  C   UNL     1       4.168   8.025  -1.360  0.00  0.00    +0.151 C 
BRANCH  21  22
ATOM     22  C   UNL     1       4.052   8.848   0.098  0.00  0.00    +0.206 C 
ATOM     23  O   UNL     1       2.703   8.197   0.492  0.00  0.00    -0.218 OA
BRANCH  22  24
ATOM     24  C   UNL     1       4.899   7.632   0.895  0.00  0.00    +0.217 C 
ATOM     25  O   UNL     1       3.894   6.893   1.504  0.00  0.00    -0.218 OA
ENDBRANCH  22  24
ENDBRANCH  21  22
ENDBRANCH  19  21
ENDBRANCH   4  18
BRANCH   7  26
ATOM     26  C   UNL     1       2.268   4.655  -6.925  0.00  0.00    +0.266 C 
ATOM     27  N   UNL     1       2.931   5.322  -8.001  0.00  0.00    -0.199 NA
ATOM     28  O   UNL     1       2.438   3.406  -6.792  0.00  0.00    -0.268 OA
BRANCH  27  29
ATOM     29  C   UNL     1       4.050   4.667  -8.597  0.00  0.00    +0.151 C 
BRANCH  29  30
ATOM     30  C   UNL     1       4.038   5.149 -10.207  0.00  0.00    +0.206 C 
ATOM     31  O   UNL     1       3.173   6.395  -9.897  0.00  0.00    -0.218 OA
BRANCH  30  32
ATOM     32  C   UNL     1       5.459   6.028 -10.016  0.00  0.00    +0.217 C 
ATOM     33  O   UNL     1       5.031   7.225 -10.621  0.00  0.00    -0.218 OA
ENDBRANCH  30  32
ENDBRANCH  29  30
ENDBRANCH  27  29
ENDBRANCH   7  26
TORSDOF 12
ENDMDL
MODEL 2
REMARK VINA RESULT:      -5.9      3.630      6.875
REMARK  Name = 
REMARK  12 active torsions:
REMARK  status: ('A' for Active; 'I' for Inactive)
REMARK    1  A    between atoms: C_2  and  C_3
REMARK    2  A    between atoms: N_5  and  C_6
REMARK    3  A    between atoms: N_5  and  C_9
REMARK    4  A    between atoms: C_6  and  C_7
REMARK    5  A    between atoms: C_12  and  C_13
REMARK    6  A    between atoms: N_15  and  C_16
REMARK    7  A    between atoms: C_16  and  C_17
REMARK    8  A    between atoms: C_17  and  C_19
REMARK    9  A    between atoms: C_23  and  C_24
REMARK   10  A    between atoms: N_26  and  C_27
REMARK   11  A    between atoms: C_27  and  C_28
REMARK   12  A    between atoms: C_28  and  C_30
REMARK                            x       y       z     vdW  Elec       q    Type
REMARK                         _______ _______ _______ _____ _____    ______ ____
ROOT
ATOM      1  C   UNL     1       2.001   7.039  -1.123  0.00  0.00    +0.065 A 
ATOM      2  C   UNL     1       1.842   7.636   0.120  0.00  0.00    +0.049 A 
ATOM      3  I   UNL     1       3.114   9.281   0.522  0.00  0.00    -0.041 I 
ATOM      4  C   UNL     1       0.771   7.346   0.957  0.00  0.00    +0.067 A 
ATOM      5  C   UNL     1      -0.305   6.751   0.365  0.00  0.00    +0.040 A 
ATOM      6  I   UNL     1      -2.071   6.558   1.498  0.00  0.00    -0.042 I 
ATOM      7  C   UNL     1      -0.352   6.527  -1.008  0.00  0.00    +0.067 A 
ATOM      8  C   UNL     1       0.895   6.341  -1.599  0.00  0.00    +0.049 A 
ATOM      9  I   UNL     1       1.056   5.488  -3.500  0.00  0.00    -0.041 I 
ENDROOT
BRANCH   1  12
ATOM     10  O   UNL     1       4.310   5.861   0.147  0.00  0.00    -0.272 OA
ATOM     11  C   UNL     1       3.968   5.673  -0.745  0.00  0.00    +0.263 C 
ATOM     12  N   UNL     1       3.333   6.713  -1.507  0.00  0.00    -0.253 N 
BRANCH  11  13
ATOM     13  C   UNL     1       3.965   4.265  -1.252  0.00  0.00    +0.267 C 
ATOM     14  O   UNL     1       3.080   3.520  -0.457  0.00  0.00    -0.210 OA
ENDBRANCH  11  13
BRANCH  12  15
ATOM     15  C   UNL     1       4.237   7.617  -2.171  0.00  0.00    +0.134 C 
BRANCH  15  16
ATOM     16  C   UNL     1       4.794   7.047  -3.465  0.00  0.00    +0.204 C 
ATOM     17  O   UNL     1       4.964   7.993  -4.451  0.00  0.00    -0.218 OA
ENDBRANCH  15  16
ENDBRANCH  12  15
ENDBRANCH   1  12
BRANCH   4  18
ATOM     18  C   UNL     1       0.780   7.951   2.270  0.00  0.00    +0.266 C 
ATOM     19  N   UNL     1      -0.313   8.701   2.814  0.00  0.00    -0.199 NA
ATOM     20  O   UNL     1       1.855   8.027   2.940  0.00  0.00    -0.268 OA
BRANCH  19  21
ATOM     21  C   UNL     1       0.016   9.939   3.438  0.00  0.00    +0.151 C 
BRANCH  21  22
ATOM     22  C   UNL     1      -1.312  10.950   3.258  0.00  0.00    +0.206 C 
ATOM     23  O   UNL     1      -1.537  10.581   1.771  0.00  0.00    -0.218 OA
BRANCH  22  24
ATOM     24  C   UNL     1      -2.358   9.725   3.745  0.00  0.00    +0.217 C 
ATOM     25  O   UNL     1      -3.546  10.049   3.103  0.00  0.00    -0.218 OA
ENDBRANCH  22  24
ENDBRANCH  21  22
ENDBRANCH  19  21
ENDBRANCH   4  18
BRANCH   7  26
ATOM     26  C   UNL     1      -1.583   6.257  -1.725  0.00  0.00    +0.266 C 
ATOM     27  N   UNL     1      -2.114   7.102  -2.748  0.00  0.00    -0.199 NA
ATOM     28  O   UNL     1      -2.041   5.080  -1.615  0.00  0.00    -0.268 OA
BRANCH  27  29
ATOM     29  C   UNL     1      -2.800   6.478  -3.833  0.00  0.00    +0.151 C 
BRANCH  29  30
ATOM     30  C   UNL     1      -2.695   7.568  -5.107  0.00  0.00    +0.206 C 
ATOM     31  O   UNL     1      -1.335   8.118  -4.613  0.00  0.00    -0.218 OA
BRANCH  30  32
ATOM     32  C   UNL     1      -1.935   6.435  -6.091  0.00  0.00    +0.217 C 
ATOM     33  O   UNL     1      -2.643   5.297  -5.662  0.00  0.00    -0.218 OA
ENDBRANCH  30  32
ENDBRANCH  29  30
ENDBRANCH  27  29
ENDBRANCH   7  26
TORSDOF 12
ENDMDL
MODEL 3
REMARK VINA RESULT:      -5.9      4.194     10.818
REMARK  Name = 
REMARK  12 active torsions:
REMARK  status: ('A' for Active; 'I' for Inactive)
REMARK    1  A    between atoms: C_2  and  C_3
REMARK    2  A    between atoms: N_5  and  C_6
REMARK    3  A    between atoms: N_5  and  C_9
REMARK    4  A    between atoms: C_6  and  C_7
REMARK    5  A    between atoms: C_12  and  C_13
REMARK    6  A    between atoms: N_15  and  C_16
REMARK    7  A    between atoms: C_16  and  C_17
REMARK    8  A    between atoms: C_17  and  C_19
REMARK    9  A    between atoms: C_23  and  C_24
REMARK   10  A    between atoms: N_26  and  C_27
REMARK   11  A    between atoms: C_27  and  C_28
REMARK   12  A    between atoms: C_28  and  C_30
REMARK                            x       y       z     vdW  Elec       q    Type
REMARK                         _______ _______ _______ _____ _____    ______ ____
ROOT
ATOM      1  C   UNL     1       4.964   5.475 -11.232  0.00  0.00    +0.065 A 
ATOM      2  C   UNL     1       3.960   5.608 -12.180  0.00  0.00    +0.049 A 
ATOM      3  I   UNL     1       4.427   4.905 -14.123  0.00  0.00    -0.041 I 
ATOM      4  C   UNL     1       2.656   5.952 -11.844  0.00  0.00    +0.067 A 
ATOM      5  C   UNL     1       2.313   5.783 -10.535  0.00  0.00    +0.040 A 
ATOM      6  I   UNL     1       0.282   5.994 -10.014  0.00  0.00    -0.042 I 
ATOM      7  C   UNL     1       3.194   5.221  -9.615  0.00  0.00    +0.067 A 
ATOM      8  C   UNL     1       4.538   5.439  -9.908  0.00  0.00    +0.049 A 
ATOM      9  I   UNL     1       6.004   5.162  -8.445  0.00  0.00    -0.041 I 
ENDROOT
BRANCH   1  12
ATOM     10  O   UNL     1       6.028   7.586 -12.887  0.00  0.00    -0.272 OA
ATOM     11  C   UNL     1       6.340   7.315 -12.005  0.00  0.00    +0.263 C 
ATOM     12  N   UNL     1       6.259   5.938 -11.605  0.00  0.00    -0.253 N 
BRANCH  11  13
ATOM     13  C   UNL     1       6.754   8.359 -11.017  0.00  0.00    +0.267 C 
ATOM     14  O   UNL     1       7.758   7.811 -10.202  0.00  0.00    -0.210 OA
ENDBRANCH  11  13
BRANCH  12  15
ATOM     15  C   UNL     1       7.314   5.096 -12.108  0.00  0.00    +0.134 C 
BRANCH  15  16
ATOM     16  C   UNL     1       8.375   5.874 -12.869  0.00  0.00    +0.204 C 
ATOM     17  O   UNL     1       9.597   5.895 -12.237  0.00  0.00    -0.218 OA
ENDBRANCH  15  16
ENDBRANCH  12  15
ENDBRANCH   1  12
BRANCH   4  18
ATOM     18  C   UNL     1       1.731   6.168 -12.935  0.00  0.00    +0.266 C 
ATOM     19  N   UNL     1       1.700   7.357 -13.734  0.00  0.00    -0.199 NA
ATOM     20  O   UNL     1       0.745   5.391 -13.112  0.00  0.00    -0.268 OA
BRANCH  19  21
ATOM     21  C   UNL     1       0.416   7.927 -13.973  0.00  0.00    +0.151 C 
BRANCH  21  22
ATOM     22  C   UNL     1       0.496   8.721 -15.450  0.00  0.00    +0.206 C 
ATOM     23  O   UNL     1       1.830   8.053 -15.868  0.00  0.00    -0.218 OA
BRANCH  22  24
ATOM     24  C   UNL     1      -0.379   7.494 -16.200  0.00  0.00    +0.217 C 
ATOM     25  O   UNL     1       0.556   6.905 -17.040  0.00  0.00    -0.218 OA
ENDBRANCH  22  24
ENDBRANCH  21  22
ENDBRANCH  19  21
ENDBRANCH   4  18
BRANCH   7  26
ATOM     26  C   UNL     1       2.769   4.682  -8.338  0.00  0.00    +0.266 C 
ATOM     27  N   UNL     1       2.457   5.483  -7.197  0.00  0.00    -0.199 NA
ATOM     28  O   UNL     1       2.404   3.468  -8.343  0.00  0.00    -0.268 OA
BRANCH  27  29
ATOM     29  C   UNL     1       1.417   5.027  -6.333  0.00  0.00    +0.151 C 
BRANCH  29  30
ATOM     30  C   UNL     1       1.992   5.286  -4.775  0.00  0.00    +0.206 C 
ATOM     31  O   UNL     1       3.255   4.428  -5.026  0.00  0.00    -0.218 OA
BRANCH  30  32
ATOM     32  C   UNL     1       2.793   6.690  -5.240  0.00  0.00    +0.217 C 
ATOM     33  O   UNL     1       2.847   7.311  -3.978  0.00  0.00    -0.218 OA
ENDBRANCH  30  32
ENDBRANCH  29  30
ENDBRANCH  27  29
ENDBRANCH   7  26
TORSDOF 12
ENDMDL
MODEL 4
REMARK VINA RESULT:      -5.9      4.402     10.810
REMARK  Name = 
REMARK  12 active torsions:
REMARK  status: ('A' for Active; 'I' for Inactive)
REMARK    1  A    between atoms: C_2  and  C_3
REMARK    2  A    between atoms: N_5  and  C_6
REMARK    3  A    between atoms: N_5  and  C_9
REMARK    4  A    between atoms: C_6  and  C_7
REMARK    5  A    between atoms: C_12  and  C_13
REMARK    6  A    between atoms: N_15  and  C_16
REMARK    7  A    between atoms: C_16  and  C_17
REMARK    8  A    between atoms: C_17  and  C_19
REMARK    9  A    between atoms: C_23  and  C_24
REMARK   10  A    between atoms: N_26  and  C_27
REMARK   11  A    between atoms: C_27  and  C_28
REMARK   12  A    between atoms: C_28  and  C_30
REMARK                            x       y       z     vdW  Elec       q    Type
REMARK                         _______ _______ _______ _____ _____    ______ ____
ROOT
ATOM      1  C   UNL     1       5.066   5.644 -10.749  0.00  0.00    +0.065 A 
ATOM      2  C   UNL     1       4.220   5.694 -11.848  0.00  0.00    +0.049 A 
ATOM      3  I   UNL     1       5.094   5.184 -13.709  0.00  0.00    -0.041 I 
ATOM      4  C   UNL     1       2.843   5.831 -11.726  0.00  0.00    +0.067 A 
ATOM      5  C   UNL     1       2.320   5.536 -10.500  0.00  0.00    +0.040 A 
ATOM      6  I   UNL     1       0.223   5.429 -10.323  0.00  0.00    -0.042 I 
ATOM      7  C   UNL     1       3.113   5.047  -9.466  0.00  0.00    +0.067 A 
ATOM      8  C   UNL     1       4.440   5.468  -9.519  0.00  0.00    +0.049 A 
ATOM      9  I   UNL     1       5.674   5.308  -7.840  0.00  0.00    -0.041 I 
ENDROOT
BRANCH   1  12
ATOM     10  O   UNL     1       7.823   5.020 -10.167  0.00  0.00    -0.272 OA
ATOM     11  C   UNL     1       7.472   5.450 -10.967  0.00  0.00    +0.263 C 
ATOM     12  N   UNL     1       6.321   6.305 -10.880  0.00  0.00    -0.253 N 
BRANCH  11  13
ATOM     13  C   UNL     1       8.039   5.091 -12.305  0.00  0.00    +0.267 C 
ATOM     14  O   UNL     1       9.131   5.938 -12.554  0.00  0.00    -0.210 OA
ENDBRANCH  11  13
BRANCH  12  15
ATOM     15  C   UNL     1       6.592   7.643 -10.422  0.00  0.00    +0.134 C 
BRANCH  15  16
ATOM     16  C   UNL     1       6.483   8.678 -11.530  0.00  0.00    +0.204 C 
ATOM     17  O   UNL     1       6.553   8.136 -12.793  0.00  0.00    -0.218 OA
ENDBRANCH  15  16
ENDBRANCH  12  15
ENDBRANCH   1  12
BRANCH   4  18
ATOM     18  C   UNL     1       2.085   5.983 -12.949  0.00  0.00    +0.266 C 
ATOM     19  N   UNL     1       1.843   7.242 -13.588  0.00  0.00    -0.199 NA
ATOM     20  O   UNL     1       1.408   5.018 -13.415  0.00  0.00    -0.268 OA
BRANCH  19  21
ATOM     21  C   UNL     1       0.506   7.490 -14.015  0.00  0.00    +0.151 C 
BRANCH  21  22
ATOM     22  C   UNL     1       0.599   8.318 -15.472  0.00  0.00    +0.206 C 
ATOM     23  O   UNL     1       1.767   7.460 -16.020  0.00  0.00    -0.218 OA
BRANCH  22  24
ATOM     24  C   UNL     1      -0.524   7.281 -16.177  0.00  0.00    +0.217 C 
ATOM     25  O   UNL     1       0.144   6.805 -17.297  0.00  0.00    -0.218 OA
ENDBRANCH  22  24
ENDBRANCH  21  22
ENDBRANCH  19  21
ENDBRANCH   4  18
BRANCH   7  26
ATOM     26  C   UNL     1       2.572   4.376  -8.301  0.00  0.00    +0.266 C 
ATOM     27  N   UNL     1       1.941   5.052  -7.211  0.00  0.00    -0.199 NA
ATOM     28  O   UNL     1       2.418   3.122  -8.405  0.00  0.00    -0.268 OA
BRANCH  27  29
ATOM     29  C   UNL     1       0.859   4.390  -6.559  0.00  0.00    +0.151 C 
BRANCH  29  30
ATOM     30  C   UNL     1       0.093   5.582  -5.654  0.00  0.00    +0.206 C 
ATOM     31  O   UNL     1       0.665   6.715  -6.539  0.00  0.00    -0.218 OA
BRANCH  30  32
ATOM     32  C   UNL     1      -1.299   5.484  -6.593  0.00  0.00    +0.217 C 
ATOM     33  O   UNL     1      -2.243   5.619  -5.557  0.00  0.00    -0.218 OA
ENDBRANCH  30  32
ENDBRANCH  29  30
ENDBRANCH  27  29
ENDBRANCH   7  26
TORSDOF 12
ENDMDL
MODEL 5
REMARK VINA RESULT:      -5.7      4.326      9.506
REMARK  Name = 
REMARK  12 active torsions:
REMARK  status: ('A' for Active; 'I' for Inactive)
REMARK    1  A    between atoms: C_2  and  C_3
REMARK    2  A    between atoms: N_5  and  C_6
REMARK    3  A    between atoms: N_5  and  C_9
REMARK    4  A    between atoms: C_6  and  C_7
REMARK    5  A    between atoms: C_12  and  C_13
REMARK    6  A    between atoms: N_15  and  C_16
REMARK    7  A    between atoms: C_16  and  C_17
REMARK    8  A    between atoms: C_17  and  C_19
REMARK    9  A    between atoms: C_23  and  C_24
REMARK   10  A    between atoms: N_26  and  C_27
REMARK   11  A    between atoms: C_27  and  C_28
REMARK   12  A    between atoms: C_28  and  C_30
REMARK                            x       y       z     vdW  Elec       q    Type
REMARK                         _______ _______ _______ _____ _____    ______ ____
ROOT
ATOM      1  C   UNL     1       2.804   7.526   0.418  0.00  0.00    +0.065 A 
ATOM      2  C   UNL     1       2.271   6.658  -0.524  0.00  0.00    +0.049 A 
ATOM      3  I   UNL     1       3.636   5.296  -1.402  0.00  0.00    -0.041 I 
ATOM      4  C   UNL     1       0.902   6.513  -0.716  0.00  0.00    +0.067 A 
ATOM      5  C   UNL     1       0.106   6.962   0.297  0.00  0.00    +0.040 A 
ATOM      6  I   UNL     1      -1.949   6.504   0.212  0.00  0.00    -0.042 I 
ATOM      7  C   UNL     1       0.642   7.455   1.483  0.00  0.00    +0.067 A 
ATOM      8  C   UNL     1       1.898   8.040   1.340  0.00  0.00    +0.049 A 
ATOM      9  I   UNL     1       2.665   9.292   2.828  0.00  0.00    -0.041 I 
ENDROOT
BRANCH   1  12
ATOM     10  O   UNL     1       3.797   8.838  -1.953  0.00  0.00    -0.272 OA
ATOM     11  C   UNL     1       3.857   9.156  -1.034  0.00  0.00    +0.263 C 
ATOM     12  N   UNL     1       3.992   8.219   0.046  0.00  0.00    -0.253 N 
BRANCH  11  13
ATOM     13  C   UNL     1       3.647  10.609  -0.743  0.00  0.00    +0.267 C 
ATOM     14  O   UNL     1       4.414  10.940   0.386  0.00  0.00    -0.210 OA
ENDBRANCH  11  13
BRANCH  12  15
ATOM     15  C   UNL     1       5.327   7.722   0.255  0.00  0.00    +0.134 C 
BRANCH  15  16
ATOM     16  C   UNL     1       5.652   7.509   1.724  0.00  0.00    +0.204 C 
ATOM     17  O   UNL     1       6.620   8.363   2.201  0.00  0.00    -0.218 OA
ENDBRANCH  15  16
ENDBRANCH  12  15
ENDBRANCH   1  12
BRANCH   4  18
ATOM     18  C   UNL     1       0.477   5.660  -1.805  0.00  0.00    +0.266 C 
ATOM     19  N   UNL     1       0.112   6.143  -3.103  0.00  0.00    -0.199 NA
ATOM     20  O   UNL     1       0.201   4.439  -1.601  0.00  0.00    -0.268 OA
BRANCH  19  21
ATOM     21  C   UNL     1      -1.086   5.612  -3.664  0.00  0.00    +0.151 C 
BRANCH  21  22
ATOM     22  C   UNL     1      -2.182   6.878  -3.777  0.00  0.00    +0.206 C 
ATOM     23  O   UNL     1      -2.669   6.484  -5.193  0.00  0.00    -0.218 OA
BRANCH  22  24
ATOM     24  C   UNL     1      -3.392   5.942  -3.075  0.00  0.00    +0.217 C 
ATOM     25  O   UNL     1      -2.849   4.665  -3.082  0.00  0.00    -0.218 OA
ENDBRANCH  22  24
ENDBRANCH  21  22
ENDBRANCH  19  21
ENDBRANCH   4  18
BRANCH   7  26
ATOM     26  C   UNL     1      -0.125   7.587   2.706  0.00  0.00    +0.266 C 
ATOM     27  N   UNL     1      -0.958   8.707   3.009  0.00  0.00    -0.199 NA
ATOM     28  O   UNL     1      -0.262   6.529   3.391  0.00  0.00    -0.268 OA
BRANCH  27  29
ATOM     29  C   UNL     1      -2.153   8.463   3.750  0.00  0.00    +0.151 C 
BRANCH  29  30
ATOM     30  C   UNL     1      -3.224   9.667   3.272  0.00  0.00    +0.206 C 
ATOM     31  O   UNL     1      -2.472   9.899   1.938  0.00  0.00    -0.218 OA
BRANCH  30  32
ATOM     32  C   UNL     1      -4.253   8.548   2.552  0.00  0.00    +0.217 C 
ATOM     33  O   UNL     1      -3.990   7.463   3.409  0.00  0.00    -0.218 OA
ENDBRANCH  30  32
ENDBRANCH  29  30
ENDBRANCH  27  29
ENDBRANCH   7  26
TORSDOF 12
ENDMDL
MODEL 6
REMARK VINA RESULT:      -5.6      3.759      9.397
REMARK  Name = 
REMARK  12 active torsions:
REMARK  status: ('A' for Active; 'I' for Inactive)
REMARK    1  A    between atoms: C_2  and  C_3
REMARK    2  A    between atoms: N_5  and  C_6
REMARK    3  A    between atoms: N_5  and  C_9
REMARK    4  A    between atoms: C_6  and  C_7
REMARK    5  A    between atoms: C_12  and  C_13
REMARK    6  A    between atoms: N_15  and  C_16
REMARK    7  A    between atoms: C_16  and  C_17
REMARK    8  A    between atoms: C_17  and  C_19
REMARK    9  A    between atoms: C_23  and  C_24
REMARK   10  A    between atoms: N_26  and  C_27
REMARK   11  A    between atoms: C_27  and  C_28
REMARK   12  A    between atoms: C_28  and  C_30
REMARK                            x       y       z     vdW  Elec       q    Type
REMARK                         _______ _______ _______ _____ _____    ______ ____
ROOT
ATOM      1  C   UNL     1       2.250   8.062   0.340  0.00  0.00    +0.065 A 
ATOM      2  C   UNL     1       2.152   7.063  -0.619  0.00  0.00    +0.049 A 
ATOM      3  I   UNL     1       3.808   5.748  -0.753  0.00  0.00    -0.041 I 
ATOM      4  C   UNL     1       0.966   6.780  -1.285  0.00  0.00    +0.067 A 
ATOM      5  C   UNL     1      -0.173   7.253  -0.701  0.00  0.00    +0.040 A 
ATOM      6  I   UNL     1      -2.021   6.610  -1.486  0.00  0.00    -0.042 I 
ATOM      7  C   UNL     1      -0.149   7.904   0.528  0.00  0.00    +0.067 A 
ATOM      8  C   UNL     1       1.040   8.581   0.790  0.00  0.00    +0.049 A 
ATOM      9  I   UNL     1       1.129  10.033   2.291  0.00  0.00    -0.041 I 
ENDROOT
BRANCH   1  12
ATOM     10  O   UNL     1       3.882   9.419  -1.616  0.00  0.00    -0.272 OA
ATOM     11  C   UNL     1       3.627   9.743  -0.733  0.00  0.00    +0.263 C 
ATOM     12  N   UNL     1       3.457   8.817   0.352  0.00  0.00    -0.253 N 
BRANCH  11  13
ATOM     13  C   UNL     1       3.262  11.183  -0.554  0.00  0.00    +0.267 C 
ATOM     14  O   UNL     1       4.127  11.733   0.405  0.00  0.00    -0.210 OA
ENDBRANCH  11  13
BRANCH  12  15
ATOM     15  C   UNL     1       4.679   8.396   0.988  0.00  0.00    +0.134 C 
BRANCH  15  16
ATOM     16  C   UNL     1       4.525   8.201   2.487  0.00  0.00    +0.204 C 
ATOM     17  O   UNL     1       4.461   6.878   2.864  0.00  0.00    -0.218 OA
ENDBRANCH  15  16
ENDBRANCH  12  15
ENDBRANCH   1  12
BRANCH   4  18
ATOM     18  C   UNL     1       1.024   5.793  -2.340  0.00  0.00    +0.266 C 
ATOM     19  N   UNL     1       1.229   6.110  -3.722  0.00  0.00    -0.199 NA
ATOM     20  O   UNL     1       0.682   4.591  -2.122  0.00  0.00    -0.268 OA
BRANCH  19  21
ATOM     21  C   UNL     1       0.366   5.464  -4.656  0.00  0.00    +0.151 C 
BRANCH  21  22
ATOM     22  C   UNL     1       0.393   6.378  -6.064  0.00  0.00    +0.206 C 
ATOM     23  O   UNL     1       1.282   5.373  -6.837  0.00  0.00    -0.218 OA
BRANCH  22  24
ATOM     24  C   UNL     1      -0.998   5.617  -6.628  0.00  0.00    +0.217 C 
ATOM     25  O   UNL     1      -1.862   5.692  -5.544  0.00  0.00    -0.218 OA
ENDBRANCH  22  24
ENDBRANCH  21  22
ENDBRANCH  19  21
ENDBRANCH   4  18
BRANCH   7  26
ATOM     26  C   UNL     1      -1.327   8.084   1.353  0.00  0.00    +0.266 C 
ATOM     27  N   UNL     1      -1.650   7.260   2.475  0.00  0.00    -0.199 NA
ATOM     28  O   UNL     1      -1.931   9.191   1.222  0.00  0.00    -0.268 OA
BRANCH  27  29
ATOM     29  C   UNL     1      -2.296   7.879   3.587  0.00  0.00    +0.151 C 
BRANCH  29  30
ATOM     30  C   UNL     1      -3.763   7.074   3.750  0.00  0.00    +0.206 C 
ATOM     31  O   UNL     1      -4.232   7.506   2.339  0.00  0.00    -0.218 OA
BRANCH  30  32
ATOM     32  C   UNL     1      -3.112   5.644   3.149  0.00  0.00    +0.217 C 
ATOM     33  O   UNL     1      -4.047   4.754   3.709  0.00  0.00    -0.218 OA
ENDBRANCH  30  32
ENDBRANCH  29  30
ENDBRANCH  27  29
ENDBRANCH   7  26
TORSDOF 12
ENDMDL
MODEL 7
REMARK VINA RESULT:      -5.5      1.843      5.487
REMARK  Name = 
REMARK  12 active torsions:
REMARK  status: ('A' for Active; 'I' for Inactive)
REMARK    1  A    between atoms: C_2  and  C_3
REMARK    2  A    between atoms: N_5  and  C_6
REMARK    3  A    between atoms: N_5  and  C_9
REMARK    4  A    between atoms: C_6  and  C_7
REMARK    5  A    between atoms: C_12  and  C_13
REMARK    6  A    between atoms: N_15  and  C_16
REMARK    7  A    between atoms: C_16  and  C_17
REMARK    8  A    between atoms: C_17  and  C_19
REMARK    9  A    between atoms: C_23  and  C_24
REMARK   10  A    between atoms: N_26  and  C_27
REMARK   11  A    between atoms: C_27  and  C_28
REMARK   12  A    between atoms: C_28  and  C_30
REMARK                            x       y       z     vdW  Elec       q    Type
REMARK                         _______ _______ _______ _____ _____    ______ ____
ROOT
ATOM      1  C   UNL     1       2.875   6.824  -2.516  0.00  0.00    +0.065 A 
ATOM      2  C   UNL     1       1.573   6.364  -2.379  0.00  0.00    +0.049 A 
ATOM      3  I   UNL     1       0.489   7.140  -0.733  0.00  0.00    -0.041 I 
ATOM      4  C   UNL     1       0.929   5.636  -3.373  0.00  0.00    +0.067 A 
ATOM      5  C   UNL     1       1.477   5.715  -4.620  0.00  0.00    +0.040 A 
ATOM      6  I   UNL     1       0.391   4.888  -6.226  0.00  0.00    -0.042 I 
ATOM      7  C   UNL     1       2.562   6.542  -4.890  0.00  0.00    +0.067 A 
ATOM      8  C   UNL     1       3.405   6.751  -3.801  0.00  0.00    +0.049 A 
ATOM      9  I   UNL     1       5.335   7.502  -4.077  0.00  0.00    -0.041 I 
ENDROOT
BRANCH   1  12
ATOM     10  O   UNL     1       3.204   5.053  -0.262  0.00  0.00    -0.272 OA
ATOM     11  C   UNL     1       3.907   5.481  -0.783  0.00  0.00    +0.263 C 
ATOM     12  N   UNL     1       3.691   6.783  -1.350  0.00  0.00    -0.253 N 
BRANCH  11  13
ATOM     13  C   UNL     1       5.146   4.713  -1.120  0.00  0.00    +0.267 C 
ATOM     14  O   UNL     1       5.149   3.537  -0.352  0.00  0.00    -0.210 OA
ENDBRANCH  11  13
BRANCH  12  15
ATOM     15  C   UNL     1       3.863   7.881  -0.433  0.00  0.00    +0.134 C 
BRANCH  15  16
ATOM     16  C   UNL     1       3.672   9.235  -1.095  0.00  0.00    +0.204 C 
ATOM     17  O   UNL     1       3.047  10.157  -0.286  0.00  0.00    -0.218 OA
ENDBRANCH  15  16
ENDBRANCH  12  15
ENDBRANCH   1  12
BRANCH   4  18
ATOM     18  C   UNL     1      -0.386   5.119  -3.062  0.00  0.00    +0.266 C 
ATOM     19  N   UNL     1      -1.577   5.485  -3.769  0.00  0.00    -0.199 NA
ATOM     20  O   UNL     1      -0.588   4.464  -1.995  0.00  0.00    -0.268 OA
BRANCH  19  21
ATOM     21  C   UNL     1      -2.713   5.811  -2.972  0.00  0.00    +0.151 C 
BRANCH  21  22
ATOM     22  C   UNL     1      -3.270   7.305  -3.497  0.00  0.00    +0.206 C 
ATOM     23  O   UNL     1      -2.162   8.105  -2.768  0.00  0.00    -0.218 OA
BRANCH  22  24
ATOM     24  C   UNL     1      -2.323   7.213  -4.885  0.00  0.00    +0.217 C 
ATOM     25  O   UNL     1      -1.528   8.348  -4.801  0.00  0.00    -0.218 OA
ENDBRANCH  22  24
ENDBRANCH  21  22
ENDBRANCH  19  21
ENDBRANCH   4  18
BRANCH   7  26
ATOM     26  C   UNL     1       2.936   6.947  -6.231  0.00  0.00    +0.266 C 
ATOM     27  N   UNL     1       3.821   6.203  -7.072  0.00  0.00    -0.199 NA
ATOM     28  O   UNL     1       2.223   7.853  -6.756  0.00  0.00    -0.268 OA
BRANCH  27  29
ATOM     29  C   UNL     1       3.565   6.213  -8.476  0.00  0.00    +0.151 C 
BRANCH  29  30
ATOM     30  C   UNL     1       4.628   5.087  -9.128  0.00  0.00    +0.206 C 
ATOM     31  O   UNL     1       3.609   3.932  -8.965  0.00  0.00    -0.218 OA
BRANCH  30  32
ATOM     32  C   UNL     1       4.095   5.401 -10.692  0.00  0.00    +0.217 C 
ATOM     33  O   UNL     1       3.196   6.440 -10.386  0.00  0.00    -0.218 OA
ENDBRANCH  30  32
ENDBRANCH  29  30
ENDBRANCH  27  29
ENDBRANCH   7  26
TORSDOF 12
ENDMDL
MODEL 8
REMARK VINA RESULT:      -5.3      2.823      8.581
REMARK  Name = 
REMARK  12 active torsions:
REMARK  status: ('A' for Active; 'I' for Inactive)
REMARK    1  A    between atoms: C_2  and  C_3
REMARK    2  A    between atoms: N_5  and  C_6
REMARK    3  A    between atoms: N_5  and  C_9
REMARK    4  A    between atoms: C_6  and  C_7
REMARK    5  A    between atoms: C_12  and  C_13
REMARK    6  A    between atoms: N_15  and  C_16
REMARK    7  A    between atoms: C_16  and  C_17
REMARK    8  A    between atoms: C_17  and  C_19
REMARK    9  A    between atoms: C_23  and  C_24
REMARK   10  A    between atoms: N_26  and  C_27
REMARK   11  A    between atoms: C_27  and  C_28
REMARK   12  A    between atoms: C_28  and  C_30
REMARK                            x       y       z     vdW  Elec       q    Type
REMARK                         _______ _______ _______ _____ _____    ______ ____
ROOT
ATOM      1  C   UNL     1       2.241   5.932  -3.252  0.00  0.00    +0.065 A 
ATOM      2  C   UNL     1       1.955   5.983  -4.609  0.00  0.00    +0.049 A 
ATOM      3  I   UNL     1       3.268   4.898  -5.869  0.00  0.00    -0.041 I 
ATOM      4  C   UNL     1       0.764   6.501  -5.103  0.00  0.00    +0.067 A 
ATOM      5  C   UNL     1      -0.259   6.605  -4.206  0.00  0.00    +0.040 A 
ATOM      6  I   UNL     1      -2.170   7.094  -4.945  0.00  0.00    -0.042 I 
ATOM      7  C   UNL     1      -0.135   6.141  -2.900  0.00  0.00    +0.067 A 
ATOM      8  C   UNL     1       1.166   6.177  -2.403  0.00  0.00    +0.049 A 
ATOM      9  I   UNL     1       1.525   6.035  -0.350  0.00  0.00    -0.041 I 
ENDROOT
BRANCH   1  12
ATOM     10  O   UNL     1       4.287   7.821  -4.009  0.00  0.00    -0.272 OA
ATOM     11  C   UNL     1       4.052   7.536  -3.108  0.00  0.00    +0.263 C 
ATOM     12  N   UNL     1       3.588   6.197  -2.874  0.00  0.00    -0.253 N 
BRANCH  11  13
ATOM     13  C   UNL     1       4.025   8.543  -2.001  0.00  0.00    +0.267 C 
ATOM     14  O   UNL     1       4.594   7.950  -0.862  0.00  0.00    -0.210 OA
ENDBRANCH  11  13
BRANCH  12  15
ATOM     15  C   UNL     1       4.625   5.201  -2.792  0.00  0.00    +0.134 C 
BRANCH  15  16
ATOM     16  C   UNL     1       4.388   4.195  -1.678  0.00  0.00    +0.204 C 
ATOM     17  O   UNL     1       4.895   4.595  -0.462  0.00  0.00    -0.218 OA
ENDBRANCH  15  16
ENDBRANCH  12  15
ENDBRANCH   1  12
BRANCH   4  18
ATOM     18  C   UNL     1       0.636   6.600  -6.540  0.00  0.00    +0.266 C 
ATOM     19  N   UNL     1       0.030   5.595  -7.361  0.00  0.00    -0.199 NA
ATOM     20  O   UNL     1       1.252   7.503  -7.184  0.00  0.00    -0.268 OA
BRANCH  19  21
ATOM     21  C   UNL     1       0.737   5.229  -8.543  0.00  0.00    +0.151 C 
BRANCH  21  22
ATOM     22  C   UNL     1      -0.129   5.839  -9.845  0.00  0.00    +0.206 C 
ATOM     23  O   UNL     1       1.082   6.592 -10.449  0.00  0.00    -0.218 OA
BRANCH  22  24
ATOM     24  C   UNL     1       0.227   4.478 -10.768  0.00  0.00    +0.217 C 
ATOM     25  O   UNL     1       0.357   4.991 -12.052  0.00  0.00    -0.218 OA
ENDBRANCH  22  24
ENDBRANCH  21  22
ENDBRANCH  19  21
ENDBRANCH   4  18
BRANCH   7  26
ATOM     26  C   UNL     1      -1.273   5.884  -2.039  0.00  0.00    +0.266 C 
ATOM     27  N   UNL     1      -1.567   6.635  -0.859  0.00  0.00    -0.199 NA
ATOM     28  O   UNL     1      -2.178   5.139  -2.523  0.00  0.00    -0.268 OA
BRANCH  27  29
ATOM     29  C   UNL     1      -2.941   6.843  -0.532  0.00  0.00    +0.151 C 
BRANCH  29  30
ATOM     30  C   UNL     1      -2.928   7.621   0.957  0.00  0.00    +0.206 C 
ATOM     31  O   UNL     1      -2.120   6.480   1.621  0.00  0.00    -0.218 OA
BRANCH  30  32
ATOM     32  C   UNL     1      -1.521   8.459   0.573  0.00  0.00    +0.217 C 
ATOM     33  O   UNL     1      -1.743   9.593   1.377  0.00  0.00    -0.218 OA
ENDBRANCH  30  32
ENDBRANCH  29  30
ENDBRANCH  27  29
ENDBRANCH   7  26
TORSDOF 12
ENDMDL
MODEL 9
REMARK VINA RESULT:      -4.9      4.496      9.596
REMARK  Name = 
REMARK  12 active torsions:
REMARK  status: ('A' for Active; 'I' for Inactive)
REMARK    1  A    between atoms: C_2  and  C_3
REMARK    2  A    between atoms: N_5  and  C_6
REMARK    3  A    between atoms: N_5  and  C_9
REMARK    4  A    between atoms: C_6  and  C_7
REMARK    5  A    between atoms: C_12  and  C_13
REMARK    6  A    between atoms: N_15  and  C_16
REMARK    7  A    between atoms: C_16  and  C_17
REMARK    8  A    between atoms: C_17  and  C_19
REMARK    9  A    between atoms: C_23  and  C_24
REMARK   10  A    between atoms: N_26  and  C_27
REMARK   11  A    between atoms: C_27  and  C_28
REMARK   12  A    between atoms: C_28  and  C_30
REMARK                            x       y       z     vdW  Elec       q    Type
REMARK                         _______ _______ _______ _____ _____    ______ ____
ROOT
ATOM      1  C   UNL     1       1.922   6.221 -12.680  0.00  0.00    +0.065 A 
ATOM      2  C   UNL     1       3.302   6.082 -12.645  0.00  0.00    +0.049 A 
ATOM      3  I   UNL     1       4.355   6.902 -14.290  0.00  0.00    -0.041 I 
ATOM      4  C   UNL     1       3.981   5.655 -11.510  0.00  0.00    +0.067 A 
ATOM      5  C   UNL     1       3.293   5.742 -10.335  0.00  0.00    +0.040 A 
ATOM      6  I   UNL     1       4.353   5.400  -8.546  0.00  0.00    -0.042 I 
ATOM      7  C   UNL     1       2.022   6.303 -10.273  0.00  0.00    +0.067 A 
ATOM      8  C   UNL     1       1.282   6.170 -11.446  0.00  0.00    +0.049 A 
ATOM      9  I   UNL     1      -0.788   6.453 -11.436  0.00  0.00    -0.041 I 
ENDROOT
BRANCH   1  12
ATOM     10  O   UNL     1       2.191   4.100 -14.618  0.00  0.00    -0.272 OA
ATOM     11  C   UNL     1       1.365   4.456 -14.245  0.00  0.00    +0.263 C 
ATOM     12  N   UNL     1       1.274   5.846 -13.892  0.00  0.00    -0.253 N 
BRANCH  11  13
ATOM     13  C   UNL     1       0.251   3.520 -13.896  0.00  0.00    +0.267 C 
ATOM     14  O   UNL     1      -0.412   3.172 -15.084  0.00  0.00    -0.210 OA
ENDBRANCH  11  13
BRANCH  12  15
ATOM     15  C   UNL     1       1.023   6.737 -14.995  0.00  0.00    +0.134 C 
BRANCH  15  16
ATOM     16  C   UNL     1       0.717   8.156 -14.546  0.00  0.00    +0.204 C 
ATOM     17  O   UNL     1       0.999   9.105 -15.503  0.00  0.00    -0.218 OA
ENDBRANCH  15  16
ENDBRANCH  12  15
ENDBRANCH   1  12
BRANCH   4  18
ATOM     18  C   UNL     1       5.407   5.444 -11.637  0.00  0.00    +0.266 C 
ATOM     19  N   UNL     1       6.396   6.257 -10.995  0.00  0.00    -0.199 NA
ATOM     20  O   UNL     1       5.867   4.642 -12.506  0.00  0.00    -0.268 OA
BRANCH  19  21
ATOM     21  C   UNL     1       7.490   6.681 -11.804  0.00  0.00    +0.151 C 
BRANCH  21  22
ATOM     22  C   UNL     1       8.889   6.439 -10.908  0.00  0.00    +0.206 C 
ATOM     23  O   UNL     1       8.484   5.019 -10.442  0.00  0.00    -0.218 OA
BRANCH  22  24
ATOM     24  C   UNL     1       9.681   5.799 -12.248  0.00  0.00    +0.217 C 
ATOM     25  O   UNL     1       8.759   5.969 -13.272  0.00  0.00    -0.218 OA
ENDBRANCH  22  24
ENDBRANCH  21  22
ENDBRANCH  19  21
ENDBRANCH   4  18
BRANCH   7  26
ATOM     26  C   UNL     1       1.415   6.757  -9.037  0.00  0.00    +0.266 C 
ATOM     27  N   UNL     1       0.726   5.901  -8.124  0.00  0.00    -0.199 NA
ATOM     28  O   UNL     1       1.761   7.910  -8.640  0.00  0.00    -0.268 OA
BRANCH  27  29
ATOM     29  C   UNL     1       0.831   6.196  -6.731  0.00  0.00    +0.151 C 
BRANCH  29  30
ATOM     30  C   UNL     1       0.005   4.957  -5.953  0.00  0.00    +0.206 C 
ATOM     31  O   UNL     1      -0.382   5.871  -4.765  0.00  0.00    -0.218 OA
BRANCH  30  32
ATOM     32  C   UNL     1      -1.424   5.323  -6.761  0.00  0.00    +0.217 C 
ATOM     33  O   UNL     1      -2.043   6.064  -5.737  0.00  0.00    -0.218 OA
ENDBRANCH  30  32
ENDBRANCH  29  30
ENDBRANCH  27  29
ENDBRANCH   7  26
TORSDOF 12
ENDMDL
