MODEL 1
REMARK VINA RESULT:      -7.6      0.000      0.000
REMARK  Name = 
REMARK  5 active torsions:
REMARK  status: ('A' for Active; 'I' for Inactive)
REMARK    1  A    between atoms: C_6  and  O_7
REMARK    2  A    between atoms: O_7  and  C_8
REMARK    3  A    between atoms: C_8  and  C_10
REMARK    4  A    between atoms: C_10  and  C_11
REMARK    5  A    between atoms: C_10  and  C_13
REMARK                            x       y       z     vdW  Elec       q    Type
REMARK                         _______ _______ _______ _____ _____    ______ ____
ROOT
ATOM      1  O   UNL     1       3.219   5.217  -6.644  0.00  0.00    -0.452 OA
ENDROOT
BRANCH   1   9
ATOM      2  C   UNL     1       3.575   7.799  -2.795  0.00  0.00    +0.170 C 
ATOM      3  N   UNL     1       3.137   6.524  -3.153  0.00  0.00    +0.302 N 
ATOM      4  C   UNL     1       2.600   6.796  -4.655  0.00  0.00    +0.093 C 
ATOM      5  C   UNL     1       3.159   5.289  -4.599  0.00  0.00    +0.197 C 
ATOM      6  C   UNL     1       4.518   6.522  -4.242  0.00  0.00    +0.197 C 
ATOM      7  O   UNL     1       3.131   6.226  -3.260  0.00  0.00    -0.342 OA
ATOM      8  C   UNL     1       4.013   7.018  -5.515  0.00  0.00    +0.101 C 
ATOM      9  C   UNL     1       4.352   5.526  -5.803  0.00  0.00    +0.180 C 
ATOM     10  C   UNL     1       4.196   4.592  -4.556  0.00  0.00    +0.101 C 
ATOM     11  C   UNL     1       4.432   5.459  -3.118  0.00  0.00    +0.093 C 
ATOM     12  C   UNL     1       2.068   5.819  -2.484  0.00  0.00    +0.170 C 
ENDBRANCH   1   9
BRANCH   1  13
ATOM     13  C   UNL     1       3.324   5.237  -7.899  0.00  0.00    +0.323 C 
ATOM     14  O   UNL     1       3.222   4.119  -8.508  0.00  0.00    -0.250 OA
BRANCH  13  15
ATOM     15  C   UNL     1       3.651   6.273  -9.058  0.00  0.00    +0.154 C 
BRANCH  15  16
ATOM     16  C   UNL     1       4.958   5.420  -9.507  0.00  0.00    -0.009 A 
ATOM     17  C   UNL     1       5.001   5.628 -10.880  0.00  0.00    -0.004 A 
ATOM     18  C   UNL     1       6.224   5.585 -11.495  0.00  0.00    -0.000 A 
ATOM     19  C   UNL     1       7.363   6.019 -10.827  0.00  0.00    -0.000 A 
ATOM     20  C   UNL     1       7.375   5.757  -9.463  0.00  0.00    -0.000 A 
ATOM     21  C   UNL     1       6.141   5.502  -8.851  0.00  0.00    -0.004 A 
ENDBRANCH  15  16
BRANCH  15  22
ATOM     22  C   UNL     1       2.732   5.604 -10.256  0.00  0.00    +0.198 C 
ATOM     23  O   UNL     1       1.675   6.531 -10.193  0.00  0.00    -0.219 OA
ENDBRANCH  15  22
ENDBRANCH  13  15
ENDBRANCH   1  13
TORSDOF 5
ENDMDL
MODEL 2
REMARK VINA RESULT:      -7.5      1.110      2.156
REMARK  Name = 
REMARK  5 active torsions:
REMARK  status: ('A' for Active; 'I' for Inactive)
REMARK    1  A    between atoms: C_6  and  O_7
REMARK    2  A    between atoms: O_7  and  C_8
REMARK    3  A    between atoms: C_8  and  C_10
REMARK    4  A    between atoms: C_10  and  C_11
REMARK    5  A    between atoms: C_10  and  C_13
REMARK                            x       y       z     vdW  Elec       q    Type
REMARK                         _______ _______ _______ _____ _____    ______ ____
ROOT
ATOM      1  O   UNL     1       2.194   5.992  -7.291  0.00  0.00    -0.452 OA
ENDROOT
BRANCH   1   9
ATOM      2  C   UNL     1       2.285   6.016  -2.643  0.00  0.00    +0.170 C 
ATOM      3  N   UNL     1       3.150   5.722  -3.697  0.00  0.00    +0.302 N 
ATOM      4  C   UNL     1       2.106   5.180  -4.807  0.00  0.00    +0.093 C 
ATOM      5  C   UNL     1       3.319   5.896  -5.583  0.00  0.00    +0.197 C 
ATOM      6  C   UNL     1       2.415   7.110  -4.486  0.00  0.00    +0.197 C 
ATOM      7  O   UNL     1       3.331   5.749  -3.955  0.00  0.00    -0.342 OA
ATOM      8  C   UNL     1       1.318   6.573  -5.280  0.00  0.00    +0.101 C 
ATOM      9  C   UNL     1       2.338   7.073  -6.344  0.00  0.00    +0.180 C 
ATOM     10  C   UNL     1       3.829   7.000  -5.870  0.00  0.00    +0.101 C 
ATOM     11  C   UNL     1       3.934   7.123  -4.182  0.00  0.00    +0.093 C 
ATOM     12  C   UNL     1       4.194   4.725  -3.631  0.00  0.00    +0.170 C 
ENDBRANCH   1   9
BRANCH   1  13
ATOM     13  C   UNL     1       2.355   6.190  -8.524  0.00  0.00    +0.323 C 
ATOM     14  O   UNL     1       1.744   7.188  -9.036  0.00  0.00    -0.250 OA
BRANCH  13  15
ATOM     15  C   UNL     1       3.060   5.497  -9.767  0.00  0.00    +0.154 C 
BRANCH  15  16
ATOM     16  C   UNL     1       4.386   6.416  -9.580  0.00  0.00    -0.009 A 
ATOM     17  C   UNL     1       5.305   5.521  -9.046  0.00  0.00    -0.004 A 
ATOM     18  C   UNL     1       6.633   5.739  -9.304  0.00  0.00    -0.000 A 
ATOM     19  C   UNL     1       7.032   6.298 -10.511  0.00  0.00    -0.000 A 
ATOM     20  C   UNL     1       6.164   7.250 -11.029  0.00  0.00    -0.000 A 
ATOM     21  C   UNL     1       4.845   7.237 -10.555  0.00  0.00    -0.004 A 
ENDBRANCH  15  16
BRANCH  15  22
ATOM     22  C   UNL     1       3.761   4.226  -8.979  0.00  0.00    +0.198 C 
ATOM     23  O   UNL     1       2.586   3.471  -8.803  0.00  0.00    -0.219 OA
ENDBRANCH  15  22
ENDBRANCH  13  15
ENDBRANCH   1  13
TORSDOF 5
ENDMDL
MODEL 3
REMARK VINA RESULT:      -7.4      3.453      5.335
REMARK  Name = 
REMARK  5 active torsions:
REMARK  status: ('A' for Active; 'I' for Inactive)
REMARK    1  A    between atoms: C_6  and  O_7
REMARK    2  A    between atoms: O_7  and  C_8
REMARK    3  A    between atoms: C_8  and  C_10
REMARK    4  A    between atoms: C_10  and  C_11
REMARK    5  A    between atoms: C_10  and  C_13
REMARK                            x       y       z     vdW  Elec       q    Type
REMARK                         _______ _______ _______ _____ _____    ______ ____
ROOT
ATOM      1  O   UNL     1      -0.281   5.575  -5.905  0.00  0.00    -0.452 OA
ENDROOT
BRANCH   1   9
ATOM      2  C   UNL     1      -3.490   6.362  -2.635  0.00  0.00    +0.170 C 
ATOM      3  N   UNL     1      -2.139   6.636  -2.851  0.00  0.00    +0.302 N 
ATOM      4  C   UNL     1      -1.702   5.345  -3.723  0.00  0.00    +0.093 C 
ATOM      5  C   UNL     1      -0.805   6.589  -4.205  0.00  0.00    +0.197 C 
ATOM      6  C   UNL     1      -2.619   6.909  -4.520  0.00  0.00    +0.197 C 
ATOM      7  O   UNL     1      -1.870   6.746  -2.976  0.00  0.00    -0.342 OA
ATOM      8  C   UNL     1      -2.435   5.631  -5.195  0.00  0.00    +0.101 C 
ATOM      9  C   UNL     1      -1.347   6.547  -5.827  0.00  0.00    +0.180 C 
ATOM     10  C   UNL     1      -0.814   7.655  -4.857  0.00  0.00    +0.101 C 
ATOM     11  C   UNL     1      -1.990   8.069  -3.708  0.00  0.00    +0.093 C 
ATOM     12  C   UNL     1      -1.157   6.738  -1.796  0.00  0.00    +0.170 C 
ENDBRANCH   1   9
BRANCH   1  13
ATOM     13  C   UNL     1       0.452   5.502  -6.926  0.00  0.00    +0.323 C 
ATOM     14  O   UNL     1      -0.135   5.359  -8.052  0.00  0.00    -0.250 OA
BRANCH  13  15
ATOM     15  C   UNL     1       1.996   5.442  -7.292  0.00  0.00    +0.154 C 
BRANCH  15  16
ATOM     16  C   UNL     1       2.414   5.837  -5.774  0.00  0.00    -0.009 A 
ATOM     17  C   UNL     1       3.112   4.714  -5.347  0.00  0.00    -0.004 A 
ATOM     18  C   UNL     1       4.088   4.889  -4.402  0.00  0.00    -0.000 A 
ATOM     19  C   UNL     1       4.838   6.059  -4.374  0.00  0.00    -0.000 A 
ATOM     20  C   UNL     1       4.142   7.207  -4.728  0.00  0.00    -0.000 A 
ATOM     21  C   UNL     1       2.958   7.037  -5.458  0.00  0.00    -0.004 A 
ENDBRANCH  15  16
BRANCH  15  22
ATOM     22  C   UNL     1       2.257   3.836  -7.006  0.00  0.00    +0.198 C 
ATOM     23  O   UNL     1       2.576   3.481  -8.330  0.00  0.00    -0.219 OA
ENDBRANCH  15  22
ENDBRANCH  13  15
ENDBRANCH   1  13
TORSDOF 5
ENDMDL
MODEL 4
REMARK VINA RESULT:      -7.3      3.435      7.268
REMARK  Name = 
REMARK  5 active torsions:
REMARK  status: ('A' for Active; 'I' for Inactive)
REMARK    1  A    between atoms: C_6  and  O_7
REMARK    2  A    between atoms: O_7  and  C_8
REMARK    3  A    between atoms: C_8  and  C_10
REMARK    4  A    between atoms: C_10  and  C_11
REMARK    5  A    between atoms: C_10  and  C_13
REMARK                            x       y       z     vdW  Elec       q    Type
REMARK                         _______ _______ _______ _____ _____    ______ ____
ROOT
ATOM      1  O   UNL     1       0.434   5.659  -3.892  0.00  0.00    -0.452 OA
ENDROOT
BRANCH   1   9
ATOM      2  C   UNL     1       4.430   5.560  -6.265  0.00  0.00    +0.170 C 
ATOM      3  N   UNL     1       3.064   5.441  -6.526  0.00  0.00    +0.302 N 
ATOM      4  C   UNL     1       2.548   4.770  -5.147  0.00  0.00    +0.093 C 
ATOM      5  C   UNL     1       1.363   5.696  -5.716  0.00  0.00    +0.197 C 
ATOM      6  C   UNL     1       2.881   6.714  -5.327  0.00  0.00    +0.197 C 
ATOM      7  O   UNL     1       2.755   5.505  -6.550  0.00  0.00    -0.342 OA
ATOM      8  C   UNL     1       2.666   6.030  -4.059  0.00  0.00    +0.101 C 
ATOM      9  C   UNL     1       1.301   6.720  -4.347  0.00  0.00    +0.180 C 
ATOM     10  C   UNL     1       0.983   6.876  -5.873  0.00  0.00    +0.101 C 
ATOM     11  C   UNL     1       2.411   6.964  -6.783  0.00  0.00    +0.093 C 
ATOM     12  C   UNL     1       2.511   4.625  -7.582  0.00  0.00    +0.170 C 
ENDBRANCH   1   9
BRANCH   1  13
ATOM     13  C   UNL     1      -0.157   5.740  -2.784  0.00  0.00    +0.323 C 
ATOM     14  O   UNL     1      -0.171   4.690  -2.056  0.00  0.00    -0.250 OA
BRANCH  13  15
ATOM     15  C   UNL     1      -1.035   6.781  -1.966  0.00  0.00    +0.154 C 
BRANCH  15  16
ATOM     16  C   UNL     1      -2.272   6.617  -3.005  0.00  0.00    -0.009 A 
ATOM     17  C   UNL     1      -2.103   7.704  -3.855  0.00  0.00    -0.004 A 
ATOM     18  C   UNL     1      -2.549   7.582  -5.144  0.00  0.00    -0.000 A 
ATOM     19  C   UNL     1      -2.504   6.353  -5.791  0.00  0.00    -0.000 A 
ATOM     20  C   UNL     1      -2.741   5.255  -4.975  0.00  0.00    -0.000 A 
ATOM     21  C   UNL     1      -2.574   5.436  -3.596  0.00  0.00    -0.004 A 
ENDBRANCH  15  16
BRANCH  15  22
ATOM     22  C   UNL     1      -1.726   5.734  -0.891  0.00  0.00    +0.198 C 
ATOM     23  O   UNL     1      -1.655   6.579   0.232  0.00  0.00    -0.219 OA
ENDBRANCH  15  22
ENDBRANCH  13  15
ENDBRANCH   1  13
TORSDOF 5
ENDMDL
MODEL 5
REMARK VINA RESULT:      -7.3      3.418      7.339
REMARK  Name = 
REMARK  5 active torsions:
REMARK  status: ('A' for Active; 'I' for Inactive)
REMARK    1  A    between atoms: C_6  and  O_7
REMARK    2  A    between atoms: O_7  and  C_8
REMARK    3  A    between atoms: C_8  and  C_10
REMARK    4  A    between atoms: C_10  and  C_11
REMARK    5  A    between atoms: C_10  and  C_13
REMARK                            x       y       z     vdW  Elec       q    Type
REMARK                         _______ _______ _______ _____ _____    ______ ____
ROOT
ATOM      1  O   UNL     1       1.549   6.810  -7.665  0.00  0.00    -0.452 OA
ENDROOT
BRANCH   1   9
ATOM      2  C   UNL     1       0.081   4.627 -11.498  0.00  0.00    +0.170 C 
ATOM      3  N   UNL     1       0.543   5.893 -11.136  0.00  0.00    +0.302 N 
ATOM      4  C   UNL     1       0.010   5.988  -9.612  0.00  0.00    +0.093 C 
ATOM      5  C   UNL     1       1.380   6.824  -9.705  0.00  0.00    +0.197 C 
ATOM      6  C   UNL     1       1.667   5.021 -10.103  0.00  0.00    +0.197 C 
ATOM      7  O   UNL     1       0.727   6.129 -11.032  0.00  0.00    -0.342 OA
ATOM      8  C   UNL     1       1.012   4.924  -8.806  0.00  0.00    +0.101 C 
ATOM      9  C   UNL     1       2.213   5.880  -8.547  0.00  0.00    +0.180 C 
ATOM     10  C   UNL     1       2.623   6.730  -9.797  0.00  0.00    +0.101 C 
ATOM     11  C   UNL     1       2.217   5.926 -11.234  0.00  0.00    +0.093 C 
ATOM     12  C   UNL     1       0.117   7.120 -11.770  0.00  0.00    +0.170 C 
ENDBRANCH   1   9
BRANCH   1  13
ATOM     13  C   UNL     1       1.879   6.897  -6.453  0.00  0.00    +0.323 C 
ATOM     14  O   UNL     1       3.022   7.408  -6.199  0.00  0.00    -0.250 OA
BRANCH  13  15
ATOM     15  C   UNL     1       1.329   6.467  -5.027  0.00  0.00    +0.154 C 
BRANCH  15  16
ATOM     16  C   UNL     1      -0.189   6.858  -5.448  0.00  0.00    -0.009 A 
ATOM     17  C   UNL     1      -0.815   5.620  -5.518  0.00  0.00    -0.004 A 
ATOM     18  C   UNL     1      -2.160   5.568  -5.260  0.00  0.00    -0.000 A 
ATOM     19  C   UNL     1      -2.732   6.433  -4.335  0.00  0.00    -0.000 A 
ATOM     20  C   UNL     1      -2.169   7.702  -4.296  0.00  0.00    -0.000 A 
ATOM     21  C   UNL     1      -0.883   7.847  -4.833  0.00  0.00    -0.004 A 
ENDBRANCH  15  16
BRANCH  15  22
ATOM     22  C   UNL     1       1.063   4.866  -5.335  0.00  0.00    +0.198 C 
ATOM     23  O   UNL     1       2.401   4.449  -5.217  0.00  0.00    -0.219 OA
ENDBRANCH  15  22
ENDBRANCH  13  15
ENDBRANCH   1  13
TORSDOF 5
ENDMDL
MODEL 6
REMARK VINA RESULT:      -7.3      3.886      6.863
REMARK  Name = 
REMARK  5 active torsions:
REMARK  status: ('A' for Active; 'I' for Inactive)
REMARK    1  A    between atoms: C_6  and  O_7
REMARK    2  A    between atoms: O_7  and  C_8
REMARK    3  A    between atoms: C_8  and  C_10
REMARK    4  A    between atoms: C_10  and  C_11
REMARK    5  A    between atoms: C_10  and  C_13
REMARK                            x       y       z     vdW  Elec       q    Type
REMARK                         _______ _______ _______ _____ _____    ______ ____
ROOT
ATOM      1  O   UNL     1       4.812   5.237 -10.108  0.00  0.00    -0.452 OA
ENDROOT
BRANCH   1   9
ATOM      2  C   UNL     1       8.834   6.246 -12.209  0.00  0.00    +0.170 C 
ATOM      3  N   UNL     1       7.468   6.404 -12.449  0.00  0.00    +0.302 N 
ATOM      4  C   UNL     1       6.875   5.094 -11.707  0.00  0.00    +0.093 C 
ATOM      5  C   UNL     1       5.776   6.263 -11.594  0.00  0.00    +0.197 C 
ATOM      6  C   UNL     1       7.360   6.747 -10.729  0.00  0.00    +0.197 C 
ATOM      7  O   UNL     1       7.165   6.492 -12.423  0.00  0.00    -0.342 OA
ATOM      8  C   UNL     1       7.068   5.469 -10.092  0.00  0.00    +0.101 C 
ATOM      9  C   UNL     1       5.767   6.297  -9.883  0.00  0.00    +0.180 C 
ATOM     10  C   UNL     1       5.492   7.337 -11.021  0.00  0.00    +0.101 C 
ATOM     11  C   UNL     1       6.940   7.833 -11.750  0.00  0.00    +0.093 C 
ATOM     12  C   UNL     1       6.874   6.401 -13.767  0.00  0.00    +0.170 C 
ENDBRANCH   1   9
BRANCH   1  13
ATOM     13  C   UNL     1       3.738   5.188  -9.453  0.00  0.00    +0.323 C 
ATOM     14  O   UNL     1       3.362   4.039  -9.039  0.00  0.00    -0.250 OA
BRANCH  13  15
ATOM     15  C   UNL     1       2.559   6.156  -9.009  0.00  0.00    +0.154 C 
BRANCH  15  16
ATOM     16  C   UNL     1       1.690   5.767 -10.324  0.00  0.00    -0.009 A 
ATOM     17  C   UNL     1       0.419   6.224  -9.997  0.00  0.00    -0.004 A 
ATOM     18  C   UNL     1      -0.405   6.611 -11.020  0.00  0.00    -0.000 A 
ATOM     19  C   UNL     1       0.123   7.198 -12.164  0.00  0.00    -0.000 A 
ATOM     20  C   UNL     1       1.362   6.707 -12.553  0.00  0.00    -0.000 A 
ATOM     21  C   UNL     1       2.116   6.034 -11.583  0.00  0.00    -0.004 A 
ENDBRANCH  15  16
BRANCH  15  22
ATOM     22  C   UNL     1       1.710   5.098  -8.066  0.00  0.00    +0.198 C 
ATOM     23  O   UNL     1       1.804   5.830  -6.868  0.00  0.00    -0.219 OA
ENDBRANCH  15  22
ENDBRANCH  13  15
ENDBRANCH   1  13
TORSDOF 5
ENDMDL
MODEL 7
REMARK VINA RESULT:      -7.3      2.044      3.627
REMARK  Name = 
REMARK  5 active torsions:
REMARK  status: ('A' for Active; 'I' for Inactive)
REMARK    1  A    between atoms: C_6  and  O_7
REMARK    2  A    between atoms: O_7  and  C_8
REMARK    3  A    between atoms: C_8  and  C_10
REMARK    4  A    between atoms: C_10  and  C_11
REMARK    5  A    between atoms: C_10  and  C_13
REMARK                            x       y       z     vdW  Elec       q    Type
REMARK                         _______ _______ _______ _____ _____    ______ ____
ROOT
ATOM      1  O   UNL     1       2.737   5.909  -9.881  0.00  0.00    -0.452 OA
ENDROOT
BRANCH   1   9
ATOM      2  C   UNL     1       0.739   4.742  -5.848  0.00  0.00    +0.170 C 
ATOM      3  N   UNL     1       1.934   5.312  -6.289  0.00  0.00    +0.302 N 
ATOM      4  C   UNL     1       2.114   4.577  -7.719  0.00  0.00    +0.093 C 
ATOM      5  C   UNL     1       2.755   6.047  -7.838  0.00  0.00    +0.197 C 
ATOM      6  C   UNL     1       0.926   6.143  -7.466  0.00  0.00    +0.197 C 
ATOM      7  O   UNL     1       2.143   5.509  -6.422  0.00  0.00    -0.342 OA
ATOM      8  C   UNL     1       0.931   5.296  -8.652  0.00  0.00    +0.101 C 
ATOM      9  C   UNL     1       1.717   6.564  -9.096  0.00  0.00    +0.180 C 
ATOM     10  C   UNL     1       2.492   7.265  -7.929  0.00  0.00    +0.101 C 
ATOM     11  C   UNL     1       1.739   6.971  -6.439  0.00  0.00    +0.093 C 
ATOM     12  C   UNL     1       3.201   5.155  -5.613  0.00  0.00    +0.170 C 
ENDBRANCH   1   9
BRANCH   1  13
ATOM     13  C   UNL     1       2.916   6.215 -11.089  0.00  0.00    +0.323 C 
ATOM     14  O   UNL     1       1.874   6.349 -11.814  0.00  0.00    -0.250 OA
BRANCH  13  15
ATOM     15  C   UNL     1       4.117   6.423 -12.107  0.00  0.00    +0.154 C 
BRANCH  15  16
ATOM     16  C   UNL     1       5.078   6.982 -10.924  0.00  0.00    -0.009 A 
ATOM     17  C   UNL     1       5.489   5.817 -10.287  0.00  0.00    -0.004 A 
ATOM     18  C   UNL     1       6.710   5.823  -9.667  0.00  0.00    -0.000 A 
ATOM     19  C   UNL     1       7.757   6.578 -10.182  0.00  0.00    -0.000 A 
ATOM     20  C   UNL     1       7.378   7.783 -10.760  0.00  0.00    -0.000 A 
ATOM     21  C   UNL     1       6.037   7.914 -11.144  0.00  0.00    -0.004 A 
ENDBRANCH  15  16
BRANCH  15  22
ATOM     22  C   UNL     1       4.785   4.915 -12.015  0.00  0.00    +0.198 C 
ATOM     23  O   UNL     1       4.843   4.675 -13.400  0.00  0.00    -0.219 OA
ENDBRANCH  15  22
ENDBRANCH  13  15
ENDBRANCH   1  13
TORSDOF 5
ENDMDL
MODEL 8
REMARK VINA RESULT:      -7.2      3.702      7.714
REMARK  Name = 
REMARK  5 active torsions:
REMARK  status: ('A' for Active; 'I' for Inactive)
REMARK    1  A    between atoms: C_6  and  O_7
REMARK    2  A    between atoms: O_7  and  C_8
REMARK    3  A    between atoms: C_8  and  C_10
REMARK    4  A    between atoms: C_10  and  C_11
REMARK    5  A    between atoms: C_10  and  C_13
REMARK                            x       y       z     vdW  Elec       q    Type
REMARK                         _______ _______ _______ _____ _____    ______ ____
ROOT
ATOM      1  O   UNL     1       1.535   5.224  -8.984  0.00  0.00    -0.452 OA
ENDROOT
BRANCH   1   9
ATOM      2  C   UNL     1       0.694   7.228 -13.093  0.00  0.00    +0.170 C 
ATOM      3  N   UNL     1       1.232   6.035 -12.610  0.00  0.00    +0.302 N 
ATOM      4  C   UNL     1       1.885   6.536 -11.218  0.00  0.00    +0.093 C 
ATOM      5  C   UNL     1       1.408   5.014 -11.016  0.00  0.00    +0.197 C 
ATOM      6  C   UNL     1      -0.044   6.125 -11.404  0.00  0.00    +0.197 C 
ATOM      7  O   UNL     1       1.264   5.755 -12.466  0.00  0.00    -0.342 OA
ATOM      8  C   UNL     1       0.544   6.814 -10.264  0.00  0.00    +0.101 C 
ATOM      9  C   UNL     1       0.316   5.364  -9.747  0.00  0.00    +0.180 C 
ATOM     10  C   UNL     1       0.413   4.273 -10.866  0.00  0.00    +0.101 C 
ATOM     11  C   UNL     1       0.001   4.920 -12.378  0.00  0.00    +0.093 C 
ATOM     12  C   UNL     1       2.275   5.291 -13.279  0.00  0.00    +0.170 C 
ENDBRANCH   1   9
BRANCH   1  13
ATOM     13  C   UNL     1       1.578   5.558  -7.771  0.00  0.00    +0.323 C 
ATOM     14  O   UNL     1       1.886   4.648  -6.929  0.00  0.00    -0.250 OA
BRANCH  13  15
ATOM     15  C   UNL     1       1.267   6.825  -6.865  0.00  0.00    +0.154 C 
BRANCH  15  16
ATOM     16  C   UNL     1       0.089   6.028  -6.083  0.00  0.00    -0.009 A 
ATOM     17  C   UNL     1      -0.047   6.758  -4.908  0.00  0.00    -0.004 A 
ATOM     18  C   UNL     1      -1.275   6.771  -4.302  0.00  0.00    -0.000 A 
ATOM     19  C   UNL     1      -2.436   6.714  -5.064  0.00  0.00    -0.000 A 
ATOM     20  C   UNL     1      -2.347   5.931  -6.206  0.00  0.00    -0.000 A 
ATOM     21  C   UNL     1      -1.062   5.651  -6.691  0.00  0.00    -0.004 A 
ENDBRANCH  15  16
BRANCH  15  22
ATOM     22  C   UNL     1       2.348   6.533  -5.650  0.00  0.00    +0.198 C 
ATOM     23  O   UNL     1       3.325   7.455  -6.072  0.00  0.00    -0.219 OA
ENDBRANCH  15  22
ENDBRANCH  13  15
ENDBRANCH   1  13
TORSDOF 5
ENDMDL
MODEL 9
REMARK VINA RESULT:      -7.1      2.498      6.324
REMARK  Name = 
REMARK  5 active torsions:
REMARK  status: ('A' for Active; 'I' for Inactive)
REMARK    1  A    between atoms: C_6  and  O_7
REMARK    2  A    between atoms: O_7  and  C_8
REMARK    3  A    between atoms: C_8  and  C_10
REMARK    4  A    between atoms: C_10  and  C_11
REMARK    5  A    between atoms: C_10  and  C_13
REMARK                            x       y       z     vdW  Elec       q    Type
REMARK                         _______ _______ _______ _____ _____    ______ ____
ROOT
ATOM      1  O   UNL     1       3.965   5.799  -8.921  0.00  0.00    -0.452 OA
ENDROOT
BRANCH   1   9
ATOM      2  C   UNL     1       5.936   6.628 -13.049  0.00  0.00    +0.170 C 
ATOM      3  N   UNL     1       6.097   7.028 -11.722  0.00  0.00    +0.302 N 
ATOM      4  C   UNL     1       4.571   6.945 -11.191  0.00  0.00    +0.093 C 
ATOM      5  C   UNL     1       5.540   6.600  -9.955  0.00  0.00    +0.197 C 
ATOM      6  C   UNL     1       5.739   5.352 -11.333  0.00  0.00    +0.197 C 
ATOM      7  O   UNL     1       6.151   7.025 -11.410  0.00  0.00    -0.342 OA
ATOM      8  C   UNL     1       4.300   5.300 -11.109  0.00  0.00    +0.101 C 
ATOM      9  C   UNL     1       4.907   5.031  -9.701  0.00  0.00    +0.180 C 
ATOM     10  C   UNL     1       6.290   5.728  -9.467  0.00  0.00    +0.101 C 
ATOM     11  C   UNL     1       7.111   5.951 -10.933  0.00  0.00    +0.093 C 
ATOM     12  C   UNL     1       6.572   8.334 -11.325  0.00  0.00    +0.170 C 
ENDBRANCH   1   9
BRANCH   1  13
ATOM     13  C   UNL     1       3.285   5.254  -8.012  0.00  0.00    +0.323 C 
ATOM     14  O   UNL     1       2.961   4.031  -8.185  0.00  0.00    -0.250 OA
BRANCH  13  15
ATOM     15  C   UNL     1       2.570   5.649  -6.650  0.00  0.00    +0.154 C 
BRANCH  15  16
ATOM     16  C   UNL     1       4.000   5.846  -5.908  0.00  0.00    -0.009 A 
ATOM     17  C   UNL     1       3.946   7.170  -5.489  0.00  0.00    -0.004 A 
ATOM     18  C   UNL     1       4.653   7.515  -4.367  0.00  0.00    -0.000 A 
ATOM     19  C   UNL     1       4.812   6.605  -3.329  0.00  0.00    -0.000 A 
ATOM     20  C   UNL     1       4.940   5.281  -3.727  0.00  0.00    -0.000 A 
ATOM     21  C   UNL     1       4.484   4.953  -5.011  0.00  0.00    -0.004 A 
ENDBRANCH  15  16
BRANCH  15  22
ATOM     22  C   UNL     1       2.416   7.273  -6.911  0.00  0.00    +0.198 C 
ATOM     23  O   UNL     1       1.087   7.242  -7.373  0.00  0.00    -0.219 OA
ENDBRANCH  15  22
ENDBRANCH  13  15
ENDBRANCH   1  13
TORSDOF 5
ENDMDL
