MODEL 1
REMARK VINA RESULT:      -6.9      0.000      0.000
REMARK  Name = 
REMARK  2 active torsions:
REMARK  status: ('A' for Active; 'I' for Inactive)
REMARK    1  A    between atoms: N1_4  and  C1*_5
REMARK    2  A    between atoms: C4*_9  and  C5*_10
REMARK                            x       y       z     vdW  Elec       q    Type
REMARK                         _______ _______ _______ _____ _____    ______ ____
ROOT
ATOM      1  C5M   T A   1       7.795   6.379 -10.735  0.00  0.00    +0.038 C 
ATOM      2  C5    T A   1       6.779   5.983 -11.337  0.00  0.00    +0.053 A 
ATOM      3  C4    T A   1       6.831   5.269 -12.533  0.00  0.00    +0.280 A 
ATOM      4  O4    T A   1       7.915   4.653 -12.769  0.00  0.00    -0.265 OA
ATOM      5  N3    T A   1       5.700   5.033 -13.244  0.00  0.00    -0.153 NA
ATOM      6  C2    T A   1       4.479   5.195 -12.676  0.00  0.00    +0.354 A 
ATOM      7  O2    T A   1       3.445   5.302 -13.402  0.00  0.00    -0.244 OA
ATOM      8  N1    T A   1       4.438   5.647 -11.473  0.00  0.00    -0.256 N 
ATOM      9  C6    T A   1       5.496   6.232 -10.860  0.00  0.00    +0.082 A 
ENDROOT
BRANCH   8  10
ATOM     10  C1*   T A   1       3.084   6.009 -10.743  0.00  0.00    +0.211 C 
ATOM     11  O4*   T A   1       3.125   4.843  -9.756  0.00  0.00    -0.332 OA
ATOM     12  C4*   T A   1       1.977   5.561  -9.093  0.00  0.00    +0.180 C 
ATOM     13  C3*   T A   1       3.077   6.626  -8.320  0.00  0.00    +0.186 C 
ATOM     14  O3*   T A   1       2.135   7.791  -8.517  0.00  0.00    -0.220 OA
ATOM     15  C2*   T A   1       3.896   6.973  -9.682  0.00  0.00    +0.089 C 
BRANCH  12  16
ATOM     16  C5*   T A   1       1.995   4.568  -7.791  0.00  0.00    +0.214 C 
ATOM     17  O5*   T A   1       2.586   3.419  -8.343  0.00  0.00    -0.218 OA
ENDBRANCH  12  16
ENDBRANCH   8  10
TORSDOF 2
ENDMDL
MODEL 2
REMARK VINA RESULT:      -6.7      6.422      7.776
REMARK  Name = 
REMARK  2 active torsions:
REMARK  status: ('A' for Active; 'I' for Inactive)
REMARK    1  A    between atoms: N1_4  and  C1*_5
REMARK    2  A    between atoms: C4*_9  and  C5*_10
REMARK                            x       y       z     vdW  Elec       q    Type
REMARK                         _______ _______ _______ _____ _____    ______ ____
ROOT
ATOM      1  C5M   T A   1       3.273   7.508  -3.080  0.00  0.00    +0.038 C 
ATOM      2  C5    T A   1       2.796   6.589  -3.771  0.00  0.00    +0.053 A 
ATOM      3  C4    T A   1       3.557   5.530  -4.262  0.00  0.00    +0.280 A 
ATOM      4  O4    T A   1       4.635   5.281  -3.639  0.00  0.00    -0.265 OA
ATOM      5  N3    T A   1       3.032   4.666  -5.166  0.00  0.00    -0.153 NA
ATOM      6  C2    T A   1       1.693   4.609  -5.374  0.00  0.00    +0.354 A 
ATOM      7  O2    T A   1       1.230   4.065  -6.421  0.00  0.00    -0.244 OA
ATOM      8  N1    T A   1       0.957   5.450  -4.738  0.00  0.00    -0.256 N 
ATOM      9  C6    T A   1       1.448   6.550  -4.117  0.00  0.00    +0.082 A 
ENDROOT
BRANCH   8  10
ATOM     10  C1*   T A   1      -0.598   5.583  -4.986  0.00  0.00    +0.211 C 
ATOM     11  O4*   T A   1      -0.997   5.497  -3.513  0.00  0.00    -0.332 OA
ATOM     12  C4*   T A   1      -2.361   5.898  -4.016  0.00  0.00    +0.180 C 
ATOM     13  C3*   T A   1      -1.864   7.538  -4.079  0.00  0.00    +0.186 C 
ATOM     14  O3*   T A   1      -2.639   7.756  -5.358  0.00  0.00    -0.220 OA
ATOM     15  C2*   T A   1      -0.489   7.223  -4.890  0.00  0.00    +0.089 C 
BRANCH  12  16
ATOM     16  C5*   T A   1      -2.948   6.116  -2.502  0.00  0.00    +0.214 C 
ATOM     17  O5*   T A   1      -2.654   4.871  -1.922  0.00  0.00    -0.218 OA
ENDBRANCH  12  16
ENDBRANCH   8  10
TORSDOF 2
ENDMDL
MODEL 3
REMARK VINA RESULT:      -6.7      5.537      8.935
REMARK  Name = 
REMARK  2 active torsions:
REMARK  status: ('A' for Active; 'I' for Inactive)
REMARK    1  A    between atoms: N1_4  and  C1*_5
REMARK    2  A    between atoms: C4*_9  and  C5*_10
REMARK                            x       y       z     vdW  Elec       q    Type
REMARK                         _______ _______ _______ _____ _____    ______ ____
ROOT
ATOM      1  C5M   T A   1      -2.410   6.150  -5.237  0.00  0.00    +0.038 C 
ATOM      2  C5    T A   1      -1.601   5.790  -4.362  0.00  0.00    +0.053 A 
ATOM      3  C4    T A   1      -1.988   5.369  -3.092  0.00  0.00    +0.280 A 
ATOM      4  O4    T A   1      -3.179   4.941  -2.984  0.00  0.00    -0.265 OA
ATOM      5  N3    T A   1      -1.063   5.176  -2.118  0.00  0.00    -0.153 NA
ATOM      6  C2    T A   1       0.254   5.076  -2.424  0.00  0.00    +0.354 A 
ATOM      7  O2    T A   1       1.133   5.229  -1.524  0.00  0.00    -0.244 OA
ATOM      8  N1    T A   1       0.593   5.242  -3.653  0.00  0.00    -0.256 N 
ATOM      9  C6    T A   1      -0.227   5.787  -4.585  0.00  0.00    +0.082 A 
ENDROOT
BRANCH   8  10
ATOM     10  C1*   T A   1       2.101   5.286  -4.125  0.00  0.00    +0.211 C 
ATOM     11  O4*   T A   1       1.826   4.821  -5.555  0.00  0.00    -0.332 OA
ATOM     12  C4*   T A   1       3.266   5.201  -5.793  0.00  0.00    +0.180 C 
ATOM     13  C3*   T A   1       2.815   6.849  -5.940  0.00  0.00    +0.186 C 
ATOM     14  O3*   T A   1       4.062   7.288  -5.208  0.00  0.00    -0.220 OA
ATOM     15  C2*   T A   1       1.931   6.861  -4.575  0.00  0.00    +0.089 C 
BRANCH  12  16
ATOM     16  C5*   T A   1       3.140   5.004  -7.414  0.00  0.00    +0.214 C 
ATOM     17  O5*   T A   1       2.414   3.802  -7.478  0.00  0.00    -0.218 OA
ENDBRANCH  12  16
ENDBRANCH   8  10
TORSDOF 2
ENDMDL
MODEL 4
REMARK VINA RESULT:      -6.6      2.014      5.167
REMARK  Name = 
REMARK  2 active torsions:
REMARK  status: ('A' for Active; 'I' for Inactive)
REMARK    1  A    between atoms: N1_4  and  C1*_5
REMARK    2  A    between atoms: C4*_9  and  C5*_10
REMARK                            x       y       z     vdW  Elec       q    Type
REMARK                         _______ _______ _______ _____ _____    ______ ____
ROOT
ATOM      1  C5M   T A   1       1.410   6.467 -12.541  0.00  0.00    +0.038 C 
ATOM      2  C5    T A   1       2.011   5.920 -11.597  0.00  0.00    +0.053 A 
ATOM      3  C4    T A   1       1.390   5.058 -10.696  0.00  0.00    +0.280 A 
ATOM      4  O4    T A   1       0.326   4.497 -11.101  0.00  0.00    -0.265 OA
ATOM      5  N3    T A   1       2.040   4.645  -9.578  0.00  0.00    -0.153 NA
ATOM      6  C2    T A   1       3.383   4.792  -9.464  0.00  0.00    +0.354 A 
ATOM      7  O2    T A   1       3.940   4.724  -8.327  0.00  0.00    -0.244 OA
ATOM      8  N1    T A   1       3.998   5.397 -10.417  0.00  0.00    -0.256 N 
ATOM      9  C6    T A   1       3.366   6.136 -11.362  0.00  0.00    +0.082 A 
ENDROOT
BRANCH   8  10
ATOM     10  C1*   T A   1       5.536   5.754 -10.350  0.00  0.00    +0.211 C 
ATOM     11  O4*   T A   1       5.836   5.414 -11.810  0.00  0.00    -0.332 OA
ATOM     12  C4*   T A   1       7.168   6.062 -11.529  0.00  0.00    +0.180 C 
ATOM     13  C3*   T A   1       6.467   7.613 -11.739  0.00  0.00    +0.186 C 
ATOM     14  O3*   T A   1       7.297   8.175 -10.608  0.00  0.00    -0.220 OA
ATOM     15  C2*   T A   1       5.207   7.317 -10.753  0.00  0.00    +0.089 C 
BRANCH  12  16
ATOM     16  C5*   T A   1       7.612   6.030 -13.106  0.00  0.00    +0.214 C 
ATOM     17  O5*   T A   1       7.483   4.660 -13.390  0.00  0.00    -0.218 OA
ENDBRANCH  12  16
ENDBRANCH   8  10
TORSDOF 2
ENDMDL
MODEL 5
REMARK VINA RESULT:      -6.1      1.783      2.015
REMARK  Name = 
REMARK  2 active torsions:
REMARK  status: ('A' for Active; 'I' for Inactive)
REMARK    1  A    between atoms: N1_4  and  C1*_5
REMARK    2  A    between atoms: C4*_9  and  C5*_10
REMARK                            x       y       z     vdW  Elec       q    Type
REMARK                         _______ _______ _______ _____ _____    ______ ____
ROOT
ATOM      1  C5M   T A   1       7.492   5.958  -9.931  0.00  0.00    +0.038 C 
ATOM      2  C5    T A   1       6.327   5.737 -10.312  0.00  0.00    +0.053 A 
ATOM      3  C4    T A   1       5.995   5.483 -11.641  0.00  0.00    +0.280 A 
ATOM      4  O4    T A   1       6.933   5.049 -12.378  0.00  0.00    -0.265 OA
ATOM      5  N3    T A   1       4.696   5.443 -12.031  0.00  0.00    -0.153 NA
ATOM      6  C2    T A   1       3.701   5.330 -11.116  0.00  0.00    +0.354 A 
ATOM      7  O2    T A   1       2.508   5.622 -11.428  0.00  0.00    -0.244 OA
ATOM      8  N1    T A   1       4.033   5.337  -9.874  0.00  0.00    -0.256 N 
ATOM      9  C6    T A   1       5.251   5.733  -9.429  0.00  0.00    +0.082 A 
ENDROOT
BRANCH   8  10
ATOM     10  C1*   T A   1       2.969   5.348  -8.705  0.00  0.00    +0.211 C 
ATOM     11  O4*   T A   1       3.982   5.164  -7.575  0.00  0.00    -0.332 OA
ATOM     12  C4*   T A   1       2.808   5.469  -6.679  0.00  0.00    +0.180 C 
ATOM     13  C3*   T A   1       3.011   7.147  -6.970  0.00  0.00    +0.186 C 
ATOM     14  O3*   T A   1       1.515   7.354  -7.006  0.00  0.00    -0.220 OA
ATOM     15  C2*   T A   1       3.093   6.986  -8.587  0.00  0.00    +0.089 C 
BRANCH  12  16
ATOM     16  C5*   T A   1       3.747   5.571  -5.340  0.00  0.00    +0.214 C 
ATOM     17  O5*   T A   1       3.487   4.327  -4.740  0.00  0.00    -0.218 OA
ENDBRANCH  12  16
ENDBRANCH   8  10
TORSDOF 2
ENDMDL
MODEL 6
REMARK VINA RESULT:      -6.0      3.508      6.143
REMARK  Name = 
REMARK  2 active torsions:
REMARK  status: ('A' for Active; 'I' for Inactive)
REMARK    1  A    between atoms: N1_4  and  C1*_5
REMARK    2  A    between atoms: C4*_9  and  C5*_10
REMARK                            x       y       z     vdW  Elec       q    Type
REMARK                         _______ _______ _______ _____ _____    ______ ____
ROOT
ATOM      1  C5M   T A   1       5.122   7.194  -4.525  0.00  0.00    +0.038 C 
ATOM      2  C5    T A   1       4.115   6.536  -4.847  0.00  0.00    +0.053 A 
ATOM      3  C4    T A   1       3.021   6.355  -4.003  0.00  0.00    +0.280 A 
ATOM      4  O4    T A   1       2.872   7.222  -3.087  0.00  0.00    -0.265 OA
ATOM      5  N3    T A   1       2.042   5.472  -4.324  0.00  0.00    -0.153 NA
ATOM      6  C2    T A   1       1.932   4.989  -5.587  0.00  0.00    +0.354 A 
ATOM      7  O2    T A   1       1.255   3.942  -5.814  0.00  0.00    -0.244 OA
ATOM      8  N1    T A   1       2.828   5.342  -6.438  0.00  0.00    -0.256 N 
ATOM      9  C6    T A   1       4.006   5.914  -6.087  0.00  0.00    +0.082 A 
ENDROOT
BRANCH   8  10
ATOM     10  C1*   T A   1       2.897   4.749  -7.902  0.00  0.00    +0.211 C 
ATOM     11  O4*   T A   1       1.836   5.677  -8.493  0.00  0.00    -0.332 OA
ATOM     12  C4*   T A   1       2.294   5.110  -9.813  0.00  0.00    +0.180 C 
ATOM     13  C3*   T A   1       3.637   6.177  -9.815  0.00  0.00    +0.186 C 
ATOM     14  O3*   T A   1       4.528   5.106 -10.400  0.00  0.00    -0.220 OA
ATOM     15  C2*   T A   1       4.089   5.815  -8.295  0.00  0.00    +0.089 C 
BRANCH  12  16
ATOM     16  C5*   T A   1       1.415   6.187 -10.679  0.00  0.00    +0.214 C 
ATOM     17  O5*   T A   1       0.128   5.953 -10.162  0.00  0.00    -0.218 OA
ENDBRANCH  12  16
ENDBRANCH   8  10
TORSDOF 2
ENDMDL
MODEL 7
REMARK VINA RESULT:      -6.0      6.642      9.032
REMARK  Name = 
REMARK  2 active torsions:
REMARK  status: ('A' for Active; 'I' for Inactive)
REMARK    1  A    between atoms: N1_4  and  C1*_5
REMARK    2  A    between atoms: C4*_9  and  C5*_10
REMARK                            x       y       z     vdW  Elec       q    Type
REMARK                         _______ _______ _______ _____ _____    ______ ____
ROOT
ATOM      1  C5M   T A   1       1.572   6.887  -6.419  0.00  0.00    +0.038 C 
ATOM      2  C5    T A   1       1.901   6.555  -5.265  0.00  0.00    +0.053 A 
ATOM      3  C4    T A   1       3.195   6.701  -4.770  0.00  0.00    +0.280 A 
ATOM      4  O4    T A   1       3.919   7.569  -5.346  0.00  0.00    -0.265 OA
ATOM      5  N3    T A   1       3.544   6.147  -3.581  0.00  0.00    -0.153 NA
ATOM      6  C2    T A   1       2.595   5.722  -2.710  0.00  0.00    +0.354 A 
ATOM      7  O2    T A   1       2.898   4.922  -1.775  0.00  0.00    -0.244 OA
ATOM      8  N1    T A   1       1.368   5.800  -3.084  0.00  0.00    -0.256 N 
ATOM      9  C6    T A   1       0.991   5.998  -4.371  0.00  0.00    +0.082 A 
ENDROOT
BRANCH   8  10
ATOM     10  C1*   T A   1       0.175   5.218  -2.225  0.00  0.00    +0.211 C 
ATOM     11  O4*   T A   1      -0.131   6.521  -1.486  0.00  0.00    -0.332 OA
ATOM     12  C4*   T A   1      -1.359   5.786  -1.012  0.00  0.00    +0.180 C 
ATOM     13  C3*   T A   1      -2.142   6.116  -2.502  0.00  0.00    +0.186 C 
ATOM     14  O3*   T A   1      -2.779   4.746  -2.506  0.00  0.00    -0.220 OA
ATOM     15  C2*   T A   1      -0.894   5.610  -3.415  0.00  0.00    +0.089 C 
BRANCH  12  16
ATOM     16  C5*   T A   1      -2.014   7.134  -0.350  0.00  0.00    +0.214 C 
ATOM     17  O5*   T A   1      -1.955   6.812   1.017  0.00  0.00    -0.218 OA
ENDBRANCH  12  16
ENDBRANCH   8  10
TORSDOF 2
ENDMDL
MODEL 8
REMARK VINA RESULT:      -6.0      4.087      6.324
REMARK  Name = 
REMARK  2 active torsions:
REMARK  status: ('A' for Active; 'I' for Inactive)
REMARK    1  A    between atoms: N1_4  and  C1*_5
REMARK    2  A    between atoms: C4*_9  and  C5*_10
REMARK                            x       y       z     vdW  Elec       q    Type
REMARK                         _______ _______ _______ _____ _____    ______ ____
ROOT
ATOM      1  C5M   T A   1       0.215   5.292 -10.596  0.00  0.00    +0.038 C 
ATOM      2  C5    T A   1       0.833   5.465  -9.528  0.00  0.00    +0.053 A 
ATOM      3  C4    T A   1       2.184   5.797  -9.475  0.00  0.00    +0.280 A 
ATOM      4  O4    T A   1       2.666   6.349 -10.512  0.00  0.00    -0.265 OA
ATOM      5  N3    T A   1       2.852   5.781  -8.294  0.00  0.00    -0.153 NA
ATOM      6  C2    T A   1       2.177   5.757  -7.117  0.00  0.00    +0.354 A 
ATOM      7  O2    T A   1       2.766   5.412  -6.049  0.00  0.00    -0.244 OA
ATOM      8  N1    T A   1       0.895   5.677  -7.170  0.00  0.00    -0.256 N 
ATOM      9  C6    T A   1       0.214   5.329  -8.289  0.00  0.00    +0.082 A 
ENDROOT
BRANCH   8  10
ATOM     10  C1*   T A   1      -0.003   5.505  -5.880  0.00  0.00    +0.211 C 
ATOM     11  O4*   T A   1      -0.216   7.000  -5.642  0.00  0.00    -0.332 OA
ATOM     12  C4*   T A   1      -1.231   6.539  -4.627  0.00  0.00    +0.180 C 
ATOM     13  C3*   T A   1      -2.378   6.285  -5.877  0.00  0.00    +0.186 C 
ATOM     14  O3*   T A   1      -2.891   5.038  -5.196  0.00  0.00    -0.220 OA
ATOM     15  C2*   T A   1      -1.358   5.433  -6.814  0.00  0.00    +0.089 C 
BRANCH  12  16
ATOM     16  C5*   T A   1      -1.805   8.054  -4.384  0.00  0.00    +0.214 C 
ATOM     17  O5*   T A   1      -2.104   8.006  -3.012  0.00  0.00    -0.218 OA
ENDBRANCH  12  16
ENDBRANCH   8  10
TORSDOF 2
ENDMDL
MODEL 9
REMARK VINA RESULT:      -5.9      5.475      7.858
REMARK  Name = 
REMARK  2 active torsions:
REMARK  status: ('A' for Active; 'I' for Inactive)
REMARK    1  A    between atoms: N1_4  and  C1*_5
REMARK    2  A    between atoms: C4*_9  and  C5*_10
REMARK                            x       y       z     vdW  Elec       q    Type
REMARK                         _______ _______ _______ _____ _____    ______ ____
ROOT
ATOM      1  C5M   T A   1       0.319   6.011  -7.432  0.00  0.00    +0.038 C 
ATOM      2  C5    T A   1       1.282   6.333  -6.711  0.00  0.00    +0.053 A 
ATOM      3  C4    T A   1       2.251   7.255  -7.101  0.00  0.00    +0.280 A 
ATOM      4  O4    T A   1       1.908   8.079  -8.003  0.00  0.00    -0.265 OA
ATOM      5  N3    T A   1       3.378   7.423  -6.363  0.00  0.00    -0.153 NA
ATOM      6  C2    T A   1       3.450   6.954  -5.093  0.00  0.00    +0.354 A 
ATOM      7  O2    T A   1       4.576   6.810  -4.528  0.00  0.00    -0.244 OA
ATOM      8  N1    T A   1       2.446   6.287  -4.648  0.00  0.00    -0.256 N 
ATOM      9  C6    T A   1       1.470   5.786  -5.446  0.00  0.00    +0.082 A 
ENDROOT
BRANCH   8  10
ATOM     10  C1*   T A   1       2.453   5.570  -3.239  0.00  0.00    +0.211 C 
ATOM     11  O4*   T A   1       2.421   6.855  -2.413  0.00  0.00    -0.332 OA
ATOM     12  C4*   T A   1       2.174   5.924  -1.253  0.00  0.00    +0.180 C 
ATOM     13  C3*   T A   1       0.515   5.821  -1.680  0.00  0.00    +0.186 C 
ATOM     14  O3*   T A   1       0.483   4.353  -1.324  0.00  0.00    -0.220 OA
ATOM     15  C2*   T A   1       0.807   5.502  -3.248  0.00  0.00    +0.089 C 
BRANCH  12  16
ATOM     16  C5*   T A   1       1.850   7.156  -0.223  0.00  0.00    +0.214 C 
ATOM     17  O5*   T A   1       2.826   6.938   0.764  0.00  0.00    -0.218 OA
ENDBRANCH  12  16
ENDBRANCH   8  10
TORSDOF 2
ENDMDL
