MODEL 1
REMARK VINA RESULT:       3.7      0.000      0.000
REMARK  Name = 
REMARK  2 active torsions:
REMARK  status: ('A' for Active; 'I' for Inactive)
REMARK    1  A    between atoms: C_20  and  C_21
REMARK    2  A    between atoms: C_30  and  C_31
REMARK                            x       y       z     vdW  Elec       q    Type
REMARK                         _______ _______ _______ _____ _____    ______ ____
ROOT
ATOM      1  C   UNL     1      -2.969   7.626   0.455  0.00  0.00    +0.032 C 
ATOM      2  C   UNL     1      -2.131   6.847   1.193  0.00  0.00    -0.005 C 
ATOM      3  C   UNL     1      -0.844   7.192   1.183  0.00  0.00    +0.124 C 
ATOM      4  C   UNL     1      -0.229   8.110   0.224  0.00  0.00    +0.280 C 
ATOM      5  O   UNL     1      -1.052   8.955  -0.259  0.00  0.00    -0.267 OA
ATOM      6  N   UNL     1       0.961   7.664  -0.202  0.00  0.00    -0.191 NA
ATOM      7  C   UNL     1       1.420   6.185  -0.431  0.00  0.00    +0.194 C 
ATOM      8  C   UNL     1       2.063   6.567  -1.860  0.00  0.00    +0.337 C 
ATOM      9  O   UNL     1       1.788   5.831  -2.846  0.00  0.00    -0.248 OA
ATOM     10  O   UNL     1       3.464   6.590  -1.787  0.00  0.00    -0.446 OA
ATOM     11  C   UNL     1       3.893   7.755  -0.882  0.00  0.00    +0.200 C 
ATOM     12  C   UNL     1       5.462   7.236  -0.913  0.00  0.00    +0.135 C 
ATOM     13  C   UNL     1       5.378   6.132   0.086  0.00  0.00    +0.246 C 
ATOM     14  N   UNL     1       5.646   6.444   1.442  0.00  0.00    -0.198 NA
ATOM     15  C   UNL     1       5.224   7.907   1.843  0.00  0.00    +0.173 C 
ATOM     16  C   UNL     1       3.784   7.452   2.437  0.00  0.00    +0.262 C 
ATOM     17  N   UNL     1       3.005   8.588   2.639  0.00  0.00    -0.195 NA
ATOM     18  C   UNL     1       1.593   8.811   1.960  0.00  0.00    +0.185 C 
ATOM     19  C   UNL     1       1.082   9.771   3.201  0.00  0.00    +0.100 C 
ATOM     20  S   UNL     1       2.186  11.195   2.863  0.00  0.00    -0.080 S 
ATOM     21  S   UNL     1       1.929  11.934   0.883  0.00  0.00    -0.082 S 
ATOM     22  C   UNL     1       3.436  11.699  -0.121  0.00  0.00    +0.073 C 
ATOM     23  C   UNL     1       3.158  10.545  -1.022  0.00  0.00    +0.038 C 
ATOM     24  C   UNL     1       4.331   9.970  -1.694  0.00  0.00    -0.026 C 
ATOM     25  C   UNL     1       0.987   7.456   2.536  0.00  0.00    +0.266 C 
ATOM     26  O   UNL     1       1.283   7.217   3.750  0.00  0.00    -0.271 OA
ATOM     27  O   UNL     1       3.959   6.480   3.248  0.00  0.00    -0.271 OA
ATOM     28  O   UNL     1       5.324   4.929  -0.305  0.00  0.00    -0.273 OA
ATOM     29  C   UNL     1       4.154   8.722  -2.159  0.00  0.00    +0.013 C 
ATOM     30  N   UNL     1       0.221   6.529   1.877  0.00  0.00    -0.173 NA
ENDROOT
BRANCH   7  31
ATOM     31  C   UNL     1       0.002   5.651  -1.085  0.00  0.00    +0.031 C 
ATOM     32  C   UNL     1      -0.343   6.539  -2.216  0.00  0.00    +0.002 C 
ATOM     33  C   UNL     1       0.237   4.218  -1.442  0.00  0.00    +0.002 C 
ENDBRANCH   7  31
BRANCH  15  34
ATOM     34  C   UNL     1       5.997   7.817   3.292  0.00  0.00    +0.029 C 
ATOM     35  C   UNL     1       6.072   9.277   3.720  0.00  0.00    +0.002 C 
ATOM     36  C   UNL     1       7.394   7.392   2.979  0.00  0.00    +0.002 C 
ENDBRANCH  15  34
TORSDOF 2
ENDMDL
MODEL 2
REMARK VINA RESULT:       4.9      3.663      6.311
REMARK  Name = 
REMARK  2 active torsions:
REMARK  status: ('A' for Active; 'I' for Inactive)
REMARK    1  A    between atoms: C_20  and  C_21
REMARK    2  A    between atoms: C_30  and  C_31
REMARK                            x       y       z     vdW  Elec       q    Type
REMARK                         _______ _______ _______ _____ _____    ______ ____
ROOT
ATOM      1  C   UNL     1       1.832   5.582  -8.028  0.00  0.00    +0.032 C 
ATOM      2  C   UNL     1       1.992   6.782  -7.408  0.00  0.00    -0.005 C 
ATOM      3  C   UNL     1       2.213   6.742  -6.094  0.00  0.00    +0.124 C 
ATOM      4  C   UNL     1       1.985   5.576  -5.240  0.00  0.00    +0.280 C 
ATOM      5  O   UNL     1       2.071   4.471  -5.870  0.00  0.00    -0.267 OA
ATOM      6  N   UNL     1       1.404   5.912  -4.080  0.00  0.00    -0.191 NA
ATOM      7  C   UNL     1       0.363   7.049  -3.808  0.00  0.00    +0.194 C 
ATOM      8  C   UNL     1      -0.559   6.048  -2.942  0.00  0.00    +0.337 C 
ATOM      9  O   UNL     1      -1.795   6.021  -3.191  0.00  0.00    -0.248 OA
ATOM     10  O   UNL     1      -0.457   6.334  -1.572  0.00  0.00    -0.446 OA
ATOM     11  C   UNL     1       0.968   6.000  -1.102  0.00  0.00    +0.200 C 
ATOM     12  C   UNL     1       0.672   6.691   0.370  0.00  0.00    +0.135 C 
ATOM     13  C   UNL     1       0.834   8.128   0.006  0.00  0.00    +0.246 C 
ATOM     14  N   UNL     1       2.122   8.704   0.142  0.00  0.00    -0.198 NA
ATOM     15  C   UNL     1       3.294   7.685  -0.118  0.00  0.00    +0.173 C 
ATOM     16  C   UNL     1       3.479   8.118  -1.671  0.00  0.00    +0.262 C 
ATOM     17  N   UNL     1       4.292   7.180  -2.303  0.00  0.00    -0.195 NA
ATOM     18  C   UNL     1       3.841   6.349  -3.572  0.00  0.00    +0.185 C 
ATOM     19  C   UNL     1       5.398   6.196  -4.096  0.00  0.00    +0.100 C 
ATOM     20  S   UNL     1       5.980   5.071  -2.770  0.00  0.00    -0.080 S 
ATOM     21  S   UNL     1       4.801   3.302  -2.669  0.00  0.00    -0.082 S 
ATOM     22  C   UNL     1       3.881   3.198  -1.095  0.00  0.00    +0.073 C 
ATOM     23  C   UNL     1       2.470   3.553  -1.416  0.00  0.00    +0.038 C 
ATOM     24  C   UNL     1       1.613   3.848  -0.260  0.00  0.00    -0.026 C 
ATOM     25  C   UNL     1       3.503   7.647  -4.430  0.00  0.00    +0.266 C 
ATOM     26  O   UNL     1       4.354   8.588  -4.326  0.00  0.00    -0.271 OA
ATOM     27  O   UNL     1       3.572   9.391  -1.737  0.00  0.00    -0.271 OA
ATOM     28  O   UNL     1      -0.187   8.855  -0.165  0.00  0.00    -0.273 OA
ATOM     29  C   UNL     1       0.503   4.547  -0.549  0.00  0.00    +0.013 C 
ATOM     30  N   UNL     1       2.411   7.869  -5.229  0.00  0.00    -0.173 NA
ENDROOT
BRANCH   7  31
ATOM     31  C   UNL     1      -0.509   6.836  -5.193  0.00  0.00    +0.031 C 
ATOM     32  C   UNL     1      -1.019   5.449  -5.203  0.00  0.00    +0.002 C 
ATOM     33  C   UNL     1      -1.556   7.905  -5.178  0.00  0.00    +0.002 C 
ENDBRANCH   7  31
BRANCH  15  34
ATOM     34  C   UNL     1       4.433   8.729   0.446  0.00  0.00    +0.029 C 
ATOM     35  C   UNL     1       5.412   7.802   1.155  0.00  0.00    +0.002 C 
ATOM     36  C   UNL     1       3.756   9.530   1.509  0.00  0.00    +0.002 C 
ENDBRANCH  15  34
TORSDOF 2
ENDMDL
MODEL 3
REMARK VINA RESULT:       5.9      3.294      4.556
REMARK  Name = 
REMARK  2 active torsions:
REMARK  status: ('A' for Active; 'I' for Inactive)
REMARK    1  A    between atoms: C_20  and  C_21
REMARK    2  A    between atoms: C_30  and  C_31
REMARK                            x       y       z     vdW  Elec       q    Type
REMARK                         _______ _______ _______ _____ _____    ______ ____
ROOT
ATOM      1  C   UNL     1      -3.056   7.632  -4.189  0.00  0.00    +0.032 C 
ATOM      2  C   UNL     1      -2.585   6.371  -3.992  0.00  0.00    -0.005 C 
ATOM      3  C   UNL     1      -1.349   6.273  -3.505  0.00  0.00    +0.124 C 
ATOM      4  C   UNL     1      -0.373   7.363  -3.468  0.00  0.00    +0.280 C 
ATOM      5  O   UNL     1      -0.913   8.517  -3.434  0.00  0.00    -0.267 OA
ATOM      6  N   UNL     1       0.852   6.949  -3.822  0.00  0.00    -0.191 NA
ATOM      7  C   UNL     1       1.243   5.849  -4.865  0.00  0.00    +0.194 C 
ATOM      8  C   UNL     1       2.362   6.810  -5.516  0.00  0.00    +0.337 C 
ATOM      9  O   UNL     1       2.383   6.928  -6.771  0.00  0.00    -0.248 OA
ATOM     10  O   UNL     1       3.652   6.390  -5.156  0.00  0.00    -0.446 OA
ATOM     11  C   UNL     1       3.838   6.600  -3.645  0.00  0.00    +0.200 C 
ATOM     12  C   UNL     1       5.277   5.789  -3.683  0.00  0.00    +0.135 C 
ATOM     13  C   UNL     1       4.770   4.386  -3.703  0.00  0.00    +0.246 C 
ATOM     14  N   UNL     1       4.584   3.731  -2.460  0.00  0.00    -0.198 NA
ATOM     15  C   UNL     1       4.168   4.707  -1.295  0.00  0.00    +0.173 C 
ATOM     16  C   UNL     1       2.581   4.415  -1.464  0.00  0.00    +0.262 C 
ATOM     17  N   UNL     1       1.871   5.364  -0.732  0.00  0.00    -0.195 NA
ATOM     18  C   UNL     1       0.798   6.335  -1.372  0.00  0.00    +0.185 C 
ATOM     19  C   UNL     1      -0.027   6.454   0.052  0.00  0.00    +0.100 C 
ATOM     20  S   UNL     1       1.235   7.414   0.974  0.00  0.00    -0.080 S 
ATOM     21  S   UNL     1       1.726   9.226  -0.028  0.00  0.00    -0.082 S 
ATOM     22  C   UNL     1       3.462   9.228  -0.597  0.00  0.00    +0.073 C 
ATOM     23  C   UNL     1       3.418   8.982  -2.066  0.00  0.00    +0.038 C 
ATOM     24  C   UNL     1       4.699   8.624  -2.686  0.00  0.00    -0.026 C 
ATOM     25  C   UNL     1      -0.073   5.146  -1.971  0.00  0.00    +0.266 C 
ATOM     26  O   UNL     1      -0.229   4.155  -1.187  0.00  0.00    -0.271 OA
ATOM     27  O   UNL     1       2.391   3.151  -1.479  0.00  0.00    -0.271 OA
ATOM     28  O   UNL     1       4.758   3.735  -4.788  0.00  0.00    -0.273 OA
ATOM     29  C   UNL     1       4.594   8.017  -3.880  0.00  0.00    +0.013 C 
ATOM     30  N   UNL     1      -0.640   5.060  -3.217  0.00  0.00    -0.173 NA
ENDROOT
BRANCH   7  31
ATOM     31  C   UNL     1       0.095   6.240  -5.985  0.00  0.00    +0.031 C 
ATOM     32  C   UNL     1       0.589   7.396  -6.762  0.00  0.00    +0.002 C 
ATOM     33  C   UNL     1      -0.142   4.991  -6.773  0.00  0.00    +0.002 C 
ENDBRANCH   7  31
BRANCH  15  34
ATOM     34  C   UNL     1       4.392   3.553  -0.144  0.00  0.00    +0.029 C 
ATOM     35  C   UNL     1       5.890   3.288  -0.227  0.00  0.00    +0.002 C 
ATOM     36  C   UNL     1       3.712   2.328  -0.660  0.00  0.00    +0.002 C 
ENDBRANCH  15  34
TORSDOF 2
ENDMDL
