MODEL 1
REMARK VINA RESULT:      -3.5      0.000      0.000
REMARK  Name = 
REMARK  1 active torsions:
REMARK  status: ('A' for Active; 'I' for Inactive)
REMARK    1  A    between atoms: C_2  and  C_4
REMARK                            x       y       z     vdW  Elec       q    Type
REMARK                         _______ _______ _______ _____ _____    ______ ____
ROOT
ATOM      1  C   UNL     1       7.401   6.067  -9.808  0.00  0.00    +0.048 C 
ATOM      2  C   UNL     1       7.225   6.451 -11.410  0.00  0.00    +0.254 C 
ATOM      3  O   UNL     1       6.161   5.377 -11.612  0.00  0.00    -0.211 OA
ENDROOT
BRANCH   2   4
ATOM      4  C   UNL     1       8.408   5.459 -11.921  0.00  0.00    +0.395 C 
ATOM      5  O   UNL     1       7.662   4.626 -12.771  0.00  0.00    -0.243 OA
ATOM      6  O   UNL     1       9.425   5.926 -12.361  0.00  0.00    -0.243 OA
ENDBRANCH   2   4
TORSDOF 1
ENDMDL
MODEL 2
REMARK VINA RESULT:      -3.5      1.530      2.166
REMARK  Name = 
REMARK  1 active torsions:
REMARK  status: ('A' for Active; 'I' for Inactive)
REMARK    1  A    between atoms: C_2  and  C_4
REMARK                            x       y       z     vdW  Elec       q    Type
REMARK                         _______ _______ _______ _____ _____    ______ ____
ROOT
ATOM      1  C   UNL     1       6.991   7.316 -11.285  0.00  0.00    +0.048 C 
ATOM      2  C   UNL     1       6.630   5.711 -11.093  0.00  0.00    +0.254 C 
ATOM      3  O   UNL     1       8.095   5.343 -10.890  0.00  0.00    -0.211 OA
ENDROOT
BRANCH   2   4
ATOM      4  C   UNL     1       6.701   5.362 -12.680  0.00  0.00    +0.395 C 
ATOM      5  O   UNL     1       7.873   4.587 -12.695  0.00  0.00    -0.243 OA
ATOM      6  O   UNL     1       5.734   4.909 -13.232  0.00  0.00    -0.243 OA
ENDBRANCH   2   4
TORSDOF 1
ENDMDL
MODEL 3
REMARK VINA RESULT:      -3.3     12.123     13.279
REMARK  Name = 
REMARK  1 active torsions:
REMARK  status: ('A' for Active; 'I' for Inactive)
REMARK    1  A    between atoms: C_2  and  C_4
REMARK                            x       y       z     vdW  Elec       q    Type
REMARK                         _______ _______ _______ _____ _____    ______ ____
ROOT
ATOM      1  C   UNL     1      -2.138   7.644  -4.431  0.00  0.00    +0.048 C 
ATOM      2  C   UNL     1      -1.807   6.047  -4.139  0.00  0.00    +0.254 C 
ATOM      3  O   UNL     1      -2.534   5.602  -5.403  0.00  0.00    -0.211 OA
ENDROOT
BRANCH   2   4
ATOM      4  C   UNL     1      -3.127   5.798  -3.222  0.00  0.00    +0.395 C 
ATOM      5  O   UNL     1      -2.727   4.629  -2.551  0.00  0.00    -0.243 OA
ATOM      6  O   UNL     1      -3.562   6.696  -2.551  0.00  0.00    -0.243 OA
ENDBRANCH   2   4
TORSDOF 1
ENDMDL
MODEL 4
REMARK VINA RESULT:      -3.2     11.592     12.813
REMARK  Name = 
REMARK  1 active torsions:
REMARK  status: ('A' for Active; 'I' for Inactive)
REMARK    1  A    between atoms: C_2  and  C_4
REMARK                            x       y       z     vdW  Elec       q    Type
REMARK                         _______ _______ _______ _____ _____    ______ ____
ROOT
ATOM      1  C   UNL     1      -2.696   6.965  -2.829  0.00  0.00    +0.048 C 
ATOM      2  C   UNL     1      -2.245   5.551  -3.565  0.00  0.00    +0.254 C 
ATOM      3  O   UNL     1      -2.715   4.714  -2.381  0.00  0.00    -0.211 OA
ENDROOT
BRANCH   2   4
ATOM      4  C   UNL     1      -0.717   5.587  -3.010  0.00  0.00    +0.395 C 
ATOM      5  O   UNL     1      -0.895   4.903  -1.795  0.00  0.00    -0.243 OA
ATOM      6  O   UNL     1       0.182   5.223  -3.720  0.00  0.00    -0.243 OA
ENDBRANCH   2   4
TORSDOF 1
ENDMDL
MODEL 5
REMARK VINA RESULT:      -3.2     12.476     13.223
REMARK  Name = 
REMARK  1 active torsions:
REMARK  status: ('A' for Active; 'I' for Inactive)
REMARK    1  A    between atoms: C_2  and  C_4
REMARK                            x       y       z     vdW  Elec       q    Type
REMARK                         _______ _______ _______ _____ _____    ______ ____
ROOT
ATOM      1  C   UNL     1      -2.160   7.477  -4.496  0.00  0.00    +0.048 C 
ATOM      2  C   UNL     1      -2.577   7.077  -2.943  0.00  0.00    +0.254 C 
ATOM      3  O   UNL     1      -1.163   6.605  -2.621  0.00  0.00    -0.211 OA
ENDROOT
BRANCH   2   4
ATOM      4  C   UNL     1      -3.060   5.569  -3.313  0.00  0.00    +0.395 C 
ATOM      5  O   UNL     1      -2.653   5.518  -4.658  0.00  0.00    -0.243 OA
ATOM      6  O   UNL     1      -2.738   4.652  -2.606  0.00  0.00    -0.243 OA
ENDBRANCH   2   4
TORSDOF 1
ENDMDL
MODEL 6
REMARK VINA RESULT:      -3.0     11.953     12.825
REMARK  Name = 
REMARK  1 active torsions:
REMARK  status: ('A' for Active; 'I' for Inactive)
REMARK    1  A    between atoms: C_2  and  C_4
REMARK                            x       y       z     vdW  Elec       q    Type
REMARK                         _______ _______ _______ _____ _____    ______ ____
ROOT
ATOM      1  C   UNL     1       0.420   5.396  -3.685  0.00  0.00    +0.048 C 
ATOM      2  C   UNL     1      -0.631   5.983  -2.547  0.00  0.00    +0.254 C 
ATOM      3  O   UNL     1      -0.444   4.760  -1.656  0.00  0.00    -0.211 OA
ENDROOT
BRANCH   2   4
ATOM      4  C   UNL     1      -1.957   5.347  -3.242  0.00  0.00    +0.395 C 
ATOM      5  O   UNL     1      -2.621   4.883  -2.094  0.00  0.00    -0.243 OA
ATOM      6  O   UNL     1      -2.595   6.008  -4.018  0.00  0.00    -0.243 OA
ENDBRANCH   2   4
TORSDOF 1
ENDMDL
MODEL 7
REMARK VINA RESULT:      -3.0     13.647     13.986
REMARK  Name = 
REMARK  1 active torsions:
REMARK  status: ('A' for Active; 'I' for Inactive)
REMARK    1  A    between atoms: C_2  and  C_4
REMARK                            x       y       z     vdW  Elec       q    Type
REMARK                         _______ _______ _______ _____ _____    ______ ____
ROOT
ATOM      1  C   UNL     1      -3.065   5.228  -3.867  0.00  0.00    +0.048 C 
ATOM      2  C   UNL     1      -1.787   5.640  -2.895  0.00  0.00    +0.254 C 
ATOM      3  O   UNL     1      -2.403   4.942  -1.688  0.00  0.00    -0.211 OA
ENDROOT
BRANCH   2   4
ATOM      4  C   UNL     1      -2.406   7.077  -2.455  0.00  0.00    +0.395 C 
ATOM      5  O   UNL     1      -3.762   6.724  -2.347  0.00  0.00    -0.243 OA
ATOM      6  O   UNL     1      -1.918   7.676  -1.533  0.00  0.00    -0.243 OA
ENDBRANCH   2   4
TORSDOF 1
ENDMDL
MODEL 8
REMARK VINA RESULT:      -3.0      1.660      2.188
REMARK  Name = 
REMARK  1 active torsions:
REMARK  status: ('A' for Active; 'I' for Inactive)
REMARK    1  A    between atoms: C_2  and  C_4
REMARK                            x       y       z     vdW  Elec       q    Type
REMARK                         _______ _______ _______ _____ _____    ______ ____
ROOT
ATOM      1  C   UNL     1       5.651   5.573 -13.180  0.00  0.00    +0.048 C 
ATOM      2  C   UNL     1       6.816   6.730 -12.963  0.00  0.00    +0.254 C 
ATOM      3  O   UNL     1       7.299   6.600 -14.403  0.00  0.00    -0.211 OA
ENDROOT
BRANCH   2   4
ATOM      4  C   UNL     1       7.946   5.690 -12.428  0.00  0.00    +0.395 C 
ATOM      5  O   UNL     1       7.580   4.550 -13.163  0.00  0.00    -0.243 OA
ATOM      6  O   UNL     1       9.105   6.010 -12.449  0.00  0.00    -0.243 OA
ENDBRANCH   2   4
TORSDOF 1
ENDMDL
MODEL 9
REMARK VINA RESULT:      -2.7      9.229      9.971
REMARK  Name = 
REMARK  1 active torsions:
REMARK  status: ('A' for Active; 'I' for Inactive)
REMARK    1  A    between atoms: C_2  and  C_4
REMARK                            x       y       z     vdW  Elec       q    Type
REMARK                         _______ _______ _______ _____ _____    ______ ____
ROOT
ATOM      1  C   UNL     1      -1.106   5.351  -6.781  0.00  0.00    +0.048 C 
ATOM      2  C   UNL     1      -0.663   5.560  -5.199  0.00  0.00    +0.254 C 
ATOM      3  O   UNL     1      -0.224   6.999  -5.449  0.00  0.00    -0.211 OA
ENDROOT
BRANCH   2   4
ATOM      4  C   UNL     1       0.850   5.000  -5.402  0.00  0.00    +0.395 C 
ATOM      5  O   UNL     1       1.343   5.183  -4.099  0.00  0.00    -0.243 OA
ATOM      6  O   UNL     1       1.021   3.924  -5.911  0.00  0.00    -0.243 OA
ENDBRANCH   2   4
TORSDOF 1
ENDMDL
