MODEL 1
REMARK VINA RESULT:      -8.0      0.000      0.000
REMARK  Name = 
REMARK  5 active torsions:
REMARK  status: ('A' for Active; 'I' for Inactive)
REMARK    1  A    between atoms: N_5  and  C_6
REMARK    2  A    between atoms: C_6  and  C_8
REMARK    3  A    between atoms: C_8  and  C_10
REMARK    4  A    between atoms: C_8  and  C_16
REMARK    5  A    between atoms: C_10  and  N_11
REMARK                            x       y       z     vdW  Elec       q    Type
REMARK                         _______ _______ _______ _____ _____    ______ ____
ROOT
ATOM      1  C   UNL     1       4.264   5.797  -9.730  0.00  0.00    +0.183 C 
ATOM      2  O   UNL     1       4.001   4.480  -9.811  0.00  0.00    -0.218 OA
ENDROOT
BRANCH   1   3
ATOM      3  C   UNL     1       5.671   6.093 -10.102  0.00  0.00    +0.036 A 
ATOM      4  C   UNL     1       6.723   5.369  -9.557  0.00  0.00    +0.141 A 
ATOM      5  F   UNL     1       6.566   4.728  -8.382  0.00  0.00    -0.204 F 
ATOM      6  C   UNL     1       7.884   5.319 -10.309  0.00  0.00    +0.059 A 
ATOM      7  C   UNL     1       8.095   6.323 -11.247  0.00  0.00    +0.142 A 
ATOM      8  F   UNL     1       9.273   6.407 -11.904  0.00  0.00    -0.204 F 
ATOM      9  C   UNL     1       7.207   7.385 -11.373  0.00  0.00    +0.030 A 
ATOM     10  C   UNL     1       5.965   7.272 -10.777  0.00  0.00    +0.003 A 
ENDBRANCH   1   3
BRANCH   1  11
ATOM     11  C   UNL     1       3.400   6.557 -10.937  0.00  0.00    +0.092 C 
ATOM     12  C   UNL     1       3.900   5.432 -12.063  0.00  0.00    +0.020 C 
BRANCH  11  17
ATOM     13  C   UNL     1      -1.044   7.709 -11.643  0.00  0.00    -0.009 C 
ATOM     14  C   UNL     1      -0.429   6.881 -11.572  0.00  0.00    -0.041 C 
ATOM     15  C   UNL     1      -0.220   6.257 -10.223  0.00  0.00    +0.039 C 
ATOM     16  C   UNL     1       1.224   6.605  -9.878  0.00  0.00    +0.077 C 
ATOM     17  N   UNL     1       2.056   5.734 -10.654  0.00  0.00    -0.271 NA
ATOM     18  C   UNL     1       1.558   5.576 -12.006  0.00  0.00    +0.077 C 
ATOM     19  C   UNL     1       0.766   6.779 -12.474  0.00  0.00    +0.039 C 
ENDBRANCH  11  17
ENDBRANCH   1  11
BRANCH   1  20
ATOM     20  C   UNL     1       3.801   6.552  -8.545  0.00  0.00    +0.165 C 
BRANCH  20  21
ATOM     21  N   UNL     1       3.661   5.743  -7.374  0.00  0.00    -0.227 N 
ATOM     22  N   UNL     1       2.695   4.879  -7.087  0.00  0.00    -0.145 NA
ATOM     23  C   UNL     1       2.735   4.664  -5.752  0.00  0.00    +0.221 A 
ATOM     24  N   UNL     1       3.719   5.429  -5.219  0.00  0.00    -0.201 NA
ATOM     25  C   UNL     1       4.475   5.777  -6.290  0.00  0.00    +0.197 A 
ENDBRANCH  20  21
ENDBRANCH   1  20
TORSDOF 5
ENDMDL
MODEL 2
REMARK VINA RESULT:      -8.0      4.696      8.686
REMARK  Name = 
REMARK  5 active torsions:
REMARK  status: ('A' for Active; 'I' for Inactive)
REMARK    1  A    between atoms: N_5  and  C_6
REMARK    2  A    between atoms: C_6  and  C_8
REMARK    3  A    between atoms: C_8  and  C_10
REMARK    4  A    between atoms: C_8  and  C_16
REMARK    5  A    between atoms: C_10  and  N_11
REMARK                            x       y       z     vdW  Elec       q    Type
REMARK                         _______ _______ _______ _____ _____    ______ ____
ROOT
ATOM      1  C   UNL     1       0.360   5.896  -5.472  0.00  0.00    +0.183 C 
ATOM      2  O   UNL     1       0.594   4.571  -5.467  0.00  0.00    -0.218 OA
ENDROOT
BRANCH   1   3
ATOM      3  C   UNL     1      -0.967   6.214  -4.888  0.00  0.00    +0.036 A 
ATOM      4  C   UNL     1      -2.090   5.462  -5.210  0.00  0.00    +0.141 A 
ATOM      5  F   UNL     1      -2.125   4.755  -6.356  0.00  0.00    -0.204 F 
ATOM      6  C   UNL     1      -3.110   5.457  -4.274  0.00  0.00    +0.059 A 
ATOM      7  C   UNL     1      -3.170   6.512  -3.371  0.00  0.00    +0.142 A 
ATOM      8  F   UNL     1      -4.224   6.635  -2.534  0.00  0.00    -0.204 F 
ATOM      9  C   UNL     1      -2.282   7.578  -3.454  0.00  0.00    +0.030 A 
ATOM     10  C   UNL     1      -1.156   7.430  -4.242  0.00  0.00    +0.003 A 
ENDBRANCH   1   3
BRANCH   1  11
ATOM     11  C   UNL     1       1.414   6.596  -4.385  0.00  0.00    +0.092 C 
ATOM     12  C   UNL     1       1.094   5.415  -3.249  0.00  0.00    +0.020 C 
BRANCH  11  17
ATOM     13  C   UNL     1       5.951   7.453  -3.887  0.00  0.00    -0.009 C 
ATOM     14  C   UNL     1       5.293   6.672  -4.044  0.00  0.00    -0.041 C 
ATOM     15  C   UNL     1       4.945   6.300  -5.456  0.00  0.00    +0.039 C 
ATOM     16  C   UNL     1       3.496   6.754  -5.608  0.00  0.00    +0.077 C 
ATOM     17  N   UNL     1       2.688   5.790  -4.922  0.00  0.00    -0.271 NA
ATOM     18  C   UNL     1       3.286   5.380  -3.666  0.00  0.00    +0.077 C 
ATOM     19  C   UNL     1       4.171   6.455  -3.071  0.00  0.00    +0.039 C 
ENDBRANCH  11  17
ENDBRANCH   1  11
BRANCH   1  20
ATOM     20  C   UNL     1       0.666   6.677  -6.691  0.00  0.00    +0.165 C 
BRANCH  20  21
ATOM     21  N   UNL     1       0.797   5.870  -7.865  0.00  0.00    -0.227 N 
ATOM     22  N   UNL     1       1.904   5.347  -8.379  0.00  0.00    -0.145 NA
ATOM     23  C   UNL     1       1.635   5.031  -9.666  0.00  0.00    +0.221 A 
ATOM     24  N   UNL     1       0.358   5.393  -9.944  0.00  0.00    -0.201 NA
ATOM     25  C   UNL     1      -0.206   5.557  -8.722  0.00  0.00    +0.197 A 
ENDBRANCH  20  21
ENDBRANCH   1  20
TORSDOF 5
ENDMDL
MODEL 3
REMARK VINA RESULT:      -7.6      3.503      6.664
REMARK  Name = 
REMARK  5 active torsions:
REMARK  status: ('A' for Active; 'I' for Inactive)
REMARK    1  A    between atoms: N_5  and  C_6
REMARK    2  A    between atoms: C_6  and  C_8
REMARK    3  A    between atoms: C_8  and  C_10
REMARK    4  A    between atoms: C_8  and  C_16
REMARK    5  A    between atoms: C_10  and  N_11
REMARK                            x       y       z     vdW  Elec       q    Type
REMARK                         _______ _______ _______ _____ _____    ______ ____
ROOT
ATOM      1  C   UNL     1       1.689   5.818  -6.310  0.00  0.00    +0.183 C 
ATOM      2  O   UNL     1       1.311   7.108  -6.269  0.00  0.00    -0.218 OA
ENDROOT
BRANCH   1   3
ATOM      3  C   UNL     1       2.227   5.454  -7.646  0.00  0.00    +0.036 A 
ATOM      4  C   UNL     1       1.717   6.028  -8.804  0.00  0.00    +0.141 A 
ATOM      5  F   UNL     1       0.474   6.547  -8.811  0.00  0.00    -0.204 F 
ATOM      6  C   UNL     1       2.571   6.066  -9.892  0.00  0.00    +0.059 A 
ATOM      7  C   UNL     1       3.622   5.157  -9.927  0.00  0.00    +0.142 A 
ATOM      8  F   UNL     1       4.397   5.051 -11.030  0.00  0.00    -0.204 F 
ATOM      9  C   UNL     1       3.767   4.189  -8.940  0.00  0.00    +0.030 A 
ATOM     10  C   UNL     1       3.042   4.335  -7.772  0.00  0.00    +0.003 A 
ENDBRANCH   1   3
BRANCH   1  11
ATOM     11  C   UNL     1       3.023   5.653  -5.323  0.00  0.00    +0.092 C 
ATOM     12  C   UNL     1       3.716   7.034  -5.956  0.00  0.00    +0.020 C 
BRANCH  11  17
ATOM     13  C   UNL     1       4.177   5.823  -0.828  0.00  0.00    -0.009 C 
ATOM     14  C   UNL     1       3.723   6.390  -1.563  0.00  0.00    -0.041 C 
ATOM     15  C   UNL     1       2.240   6.258  -1.756  0.00  0.00    +0.039 C 
ATOM     16  C   UNL     1       2.107   5.525  -3.087  0.00  0.00    +0.077 C 
ATOM     17  N   UNL     1       2.378   6.484  -4.117  0.00  0.00    -0.271 NA
ATOM     18  C   UNL     1       3.491   7.347  -3.770  0.00  0.00    +0.077 C 
ATOM     19  C   UNL     1       4.472   6.675  -2.832  0.00  0.00    +0.039 C 
ENDBRANCH  11  17
ENDBRANCH   1  11
BRANCH   1  20
ATOM     20  C   UNL     1       0.796   4.787  -5.738  0.00  0.00    +0.165 C 
BRANCH  20  21
ATOM     21  N   UNL     1      -0.583   5.169  -5.733  0.00  0.00    -0.227 N 
ATOM     22  N   UNL     1      -1.448   5.121  -6.739  0.00  0.00    -0.145 NA
ATOM     23  C   UNL     1      -2.477   5.940  -6.418  0.00  0.00    +0.221 A 
ATOM     24  N   UNL     1      -2.218   6.511  -5.217  0.00  0.00    -0.201 NA
ATOM     25  C   UNL     1      -1.241   5.733  -4.691  0.00  0.00    +0.197 A 
ENDBRANCH  20  21
ENDBRANCH   1  20
TORSDOF 5
ENDMDL
MODEL 4
REMARK VINA RESULT:      -7.6      2.993      4.345
REMARK  Name = 
REMARK  5 active torsions:
REMARK  status: ('A' for Active; 'I' for Inactive)
REMARK    1  A    between atoms: N_5  and  C_6
REMARK    2  A    between atoms: C_6  and  C_8
REMARK    3  A    between atoms: C_8  and  C_10
REMARK    4  A    between atoms: C_8  and  C_16
REMARK    5  A    between atoms: C_10  and  N_11
REMARK                            x       y       z     vdW  Elec       q    Type
REMARK                         _______ _______ _______ _____ _____    ______ ____
ROOT
ATOM      1  C   UNL     1       2.826   6.029  -6.682  0.00  0.00    +0.183 C 
ATOM      2  O   UNL     1       2.865   4.820  -6.094  0.00  0.00    -0.218 OA
ENDROOT
BRANCH   1   3
ATOM      3  C   UNL     1       3.583   6.036  -7.959  0.00  0.00    +0.036 A 
ATOM      4  C   UNL     1       4.785   5.351  -8.083  0.00  0.00    +0.141 A 
ATOM      5  F   UNL     1       5.516   5.064  -6.988  0.00  0.00    -0.204 F 
ATOM      6  C   UNL     1       5.136   4.960  -9.364  0.00  0.00    +0.059 A 
ATOM      7  C   UNL     1       4.573   5.648 -10.432  0.00  0.00    +0.142 A 
ATOM      8  F   UNL     1       4.989   5.408 -11.695  0.00  0.00    -0.204 F 
ATOM      9  C   UNL     1       3.745   6.745 -10.221  0.00  0.00    +0.030 A 
ATOM     10  C   UNL     1       3.244   6.951  -8.949  0.00  0.00    +0.003 A 
ENDBRANCH   1   3
BRANCH   1  11
ATOM     11  C   UNL     1       1.258   6.292  -7.186  0.00  0.00    +0.092 C 
ATOM     12  C   UNL     1       1.146   4.740  -7.790  0.00  0.00    +0.020 C 
BRANCH  11  17
ATOM     13  C   UNL     1      -2.912   7.214  -5.360  0.00  0.00    -0.009 C 
ATOM     14  C   UNL     1      -2.160   6.505  -5.331  0.00  0.00    -0.041 C 
ATOM     15  C   UNL     1      -1.059   6.670  -4.324  0.00  0.00    +0.039 C 
ATOM     16  C   UNL     1       0.156   7.044  -5.167  0.00  0.00    +0.077 C 
ATOM     17  N   UNL     1       0.611   5.839  -5.794  0.00  0.00    -0.271 NA
ATOM     18  C   UNL     1      -0.493   5.029  -6.271  0.00  0.00    +0.077 C 
ATOM     19  C   UNL     1      -1.713   5.860  -6.610  0.00  0.00    +0.039 C 
ENDBRANCH  11  17
ENDBRANCH   1  11
BRANCH   1  20
ATOM     20  C   UNL     1       3.056   7.237  -5.859  0.00  0.00    +0.165 C 
BRANCH  20  21
ATOM     21  N   UNL     1       3.797   6.979  -4.663  0.00  0.00    -0.227 N 
ATOM     22  N   UNL     1       3.333   6.600  -3.479  0.00  0.00    -0.145 NA
ATOM     23  C   UNL     1       4.294   6.874  -2.568  0.00  0.00    +0.221 A 
ATOM     24  N   UNL     1       5.342   7.452  -3.204  0.00  0.00    -0.201 NA
ATOM     25  C   UNL     1       5.132   7.156  -4.510  0.00  0.00    +0.197 A 
ENDBRANCH  20  21
ENDBRANCH   1  20
TORSDOF 5
ENDMDL
MODEL 5
REMARK VINA RESULT:      -7.6      3.664      6.546
REMARK  Name = 
REMARK  5 active torsions:
REMARK  status: ('A' for Active; 'I' for Inactive)
REMARK    1  A    between atoms: N_5  and  C_6
REMARK    2  A    between atoms: C_6  and  C_8
REMARK    3  A    between atoms: C_8  and  C_10
REMARK    4  A    between atoms: C_8  and  C_16
REMARK    5  A    between atoms: C_10  and  N_11
REMARK                            x       y       z     vdW  Elec       q    Type
REMARK                         _______ _______ _______ _____ _____    ______ ____
ROOT
ATOM      1  C   UNL     1       1.997   5.871  -6.207  0.00  0.00    +0.183 C 
ATOM      2  O   UNL     1       2.622   7.041  -5.979  0.00  0.00    -0.218 OA
ENDROOT
BRANCH   1   3
ATOM      3  C   UNL     1       0.539   5.976  -5.949  0.00  0.00    +0.036 A 
ATOM      4  C   UNL     1       0.053   6.704  -4.870  0.00  0.00    +0.141 A 
ATOM      5  F   UNL     1       0.840   6.937  -3.801  0.00  0.00    -0.204 F 
ATOM      6  C   UNL     1      -1.236   7.193  -4.995  0.00  0.00    +0.059 A 
ATOM      7  C   UNL     1      -2.087   6.564  -5.895  0.00  0.00    +0.142 A 
ATOM      8  F   UNL     1      -3.394   6.904  -5.952  0.00  0.00    -0.204 F 
ATOM      9  C   UNL     1      -1.683   5.430  -6.592  0.00  0.00    +0.030 A 
ATOM     10  C   UNL     1      -0.335   5.122  -6.611  0.00  0.00    +0.003 A 
ENDBRANCH   1   3
BRANCH   1  11
ATOM     11  C   UNL     1       2.057   5.582  -7.849  0.00  0.00    +0.092 C 
ATOM     12  C   UNL     1       1.470   7.109  -8.183  0.00  0.00    +0.020 C 
BRANCH  11  17
ATOM     13  C   UNL     1       5.011   5.216 -11.413  0.00  0.00    -0.009 C 
ATOM     14  C   UNL     1       4.813   5.810 -10.591  0.00  0.00    -0.041 C 
ATOM     15  C   UNL     1       5.467   5.464  -9.284  0.00  0.00    +0.039 C 
ATOM     16  C   UNL     1       4.318   4.943  -8.426  0.00  0.00    +0.077 C 
ATOM     17  N   UNL     1       3.568   6.087  -8.001  0.00  0.00    -0.271 NA
ATOM     18  C   UNL     1       3.413   7.057  -9.067  0.00  0.00    +0.077 C 
ATOM     19  C   UNL     1       3.450   6.418 -10.439  0.00  0.00    +0.039 C 
ENDBRANCH  11  17
ENDBRANCH   1  11
BRANCH   1  20
ATOM     20  C   UNL     1       2.595   4.622  -5.687  0.00  0.00    +0.165 C 
BRANCH  20  21
ATOM     21  N   UNL     1       3.470   4.830  -4.575  0.00  0.00    -0.227 N 
ATOM     22  N   UNL     1       3.144   5.014  -3.301  0.00  0.00    -0.145 NA
ATOM     23  C   UNL     1       4.216   5.570  -2.692  0.00  0.00    +0.221 A 
ATOM     24  N   UNL     1       5.193   5.752  -3.613  0.00  0.00    -0.201 NA
ATOM     25  C   UNL     1       4.818   4.956  -4.645  0.00  0.00    +0.197 A 
ENDBRANCH  20  21
ENDBRANCH   1  20
TORSDOF 5
ENDMDL
MODEL 6
REMARK VINA RESULT:      -7.5      2.507      5.052
REMARK  Name = 
REMARK  5 active torsions:
REMARK  status: ('A' for Active; 'I' for Inactive)
REMARK    1  A    between atoms: N_5  and  C_6
REMARK    2  A    between atoms: C_6  and  C_8
REMARK    3  A    between atoms: C_8  and  C_10
REMARK    4  A    between atoms: C_8  and  C_16
REMARK    5  A    between atoms: C_10  and  N_11
REMARK                            x       y       z     vdW  Elec       q    Type
REMARK                         _______ _______ _______ _____ _____    ______ ____
ROOT
ATOM      1  C   UNL     1       2.273   6.159  -8.873  0.00  0.00    +0.183 C 
ATOM      2  O   UNL     1       2.007   7.473  -8.979  0.00  0.00    -0.218 OA
ENDROOT
BRANCH   1   3
ATOM      3  C   UNL     1       3.701   5.870  -9.161  0.00  0.00    +0.036 A 
ATOM      4  C   UNL     1       4.344   6.449 -10.247  0.00  0.00    +0.141 A 
ATOM      5  F   UNL     1       3.629   6.894 -11.299  0.00  0.00    -0.204 F 
ATOM      6  C   UNL     1       5.719   6.572 -10.147  0.00  0.00    +0.059 A 
ATOM      7  C   UNL     1       6.386   5.729  -9.266  0.00  0.00    +0.142 A 
ATOM      8  F   UNL     1       7.737   5.705  -9.234  0.00  0.00    -0.204 F 
ATOM      9  C   UNL     1       5.704   4.741  -8.565  0.00  0.00    +0.030 A 
ATOM     10  C   UNL     1       4.325   4.806  -8.519  0.00  0.00    +0.003 A 
ENDBRANCH   1   3
BRANCH   1  11
ATOM     11  C   UNL     1       2.134   5.746  -7.263  0.00  0.00    +0.092 C 
ATOM     12  C   UNL     1       2.882   7.162  -6.791  0.00  0.00    +0.020 C 
BRANCH  11  17
ATOM     13  C   UNL     1      -0.949   5.423  -3.806  0.00  0.00    -0.009 C 
ATOM     14  C   UNL     1      -0.660   6.058  -4.568  0.00  0.00    -0.041 C 
ATOM     15  C   UNL     1      -1.309   5.904  -5.913  0.00  0.00    +0.039 C 
ATOM     16  C   UNL     1      -0.202   5.328  -6.791  0.00  0.00    +0.077 C 
ATOM     17  N   UNL     1       0.687   6.409  -7.098  0.00  0.00    -0.271 NA
ATOM     18  C   UNL     1       0.919   7.259  -5.947  0.00  0.00    +0.077 C 
ATOM     19  C   UNL     1       0.768   6.513  -4.638  0.00  0.00    +0.039 C 
ENDBRANCH  11  17
ENDBRANCH   1  11
BRANCH   1  20
ATOM     20  C   UNL     1       1.343   5.185  -9.487  0.00  0.00    +0.165 C 
BRANCH  20  21
ATOM     21  N   UNL     1       0.787   5.633 -10.726  0.00  0.00    -0.227 N 
ATOM     22  N   UNL     1       1.145   5.286 -11.956  0.00  0.00    -0.145 NA
ATOM     23  C   UNL     1       0.659   6.231 -12.794  0.00  0.00    +0.221 A 
ATOM     24  N   UNL     1       0.024   7.176 -12.060  0.00  0.00    -0.201 NA
ATOM     25  C   UNL     1      -0.179   6.574 -10.862  0.00  0.00    +0.197 A 
ENDBRANCH  20  21
ENDBRANCH   1  20
TORSDOF 5
ENDMDL
MODEL 7
REMARK VINA RESULT:      -7.4      3.148      6.632
REMARK  Name = 
REMARK  5 active torsions:
REMARK  status: ('A' for Active; 'I' for Inactive)
REMARK    1  A    between atoms: N_5  and  C_6
REMARK    2  A    between atoms: C_6  and  C_8
REMARK    3  A    between atoms: C_8  and  C_10
REMARK    4  A    between atoms: C_8  and  C_16
REMARK    5  A    between atoms: C_10  and  N_11
REMARK                            x       y       z     vdW  Elec       q    Type
REMARK                         _______ _______ _______ _____ _____    ______ ____
ROOT
ATOM      1  C   UNL     1       1.971   5.953  -8.723  0.00  0.00    +0.183 C 
ATOM      2  O   UNL     1       1.888   4.732  -9.283  0.00  0.00    -0.218 OA
ENDROOT
BRANCH   1   3
ATOM      3  C   UNL     1       1.301   5.987  -7.398  0.00  0.00    +0.036 A 
ATOM      4  C   UNL     1       0.061   5.391  -7.207  0.00  0.00    +0.141 A 
ATOM      5  F   UNL     1      -0.759   5.183  -8.256  0.00  0.00    -0.204 F 
ATOM      6  C   UNL     1      -0.234   5.000  -5.913  0.00  0.00    +0.059 A 
ATOM      7  C   UNL     1       0.447   5.621  -4.873  0.00  0.00    +0.142 A 
ATOM      8  F   UNL     1       0.096   5.385  -3.589  0.00  0.00    -0.204 F 
ATOM      9  C   UNL     1       1.340   6.658  -5.119  0.00  0.00    +0.030 A 
ATOM     10  C   UNL     1       1.771   6.853  -6.418  0.00  0.00    +0.003 A 
ENDBRANCH   1   3
BRANCH   1  11
ATOM     11  C   UNL     1       3.570   6.217  -8.330  0.00  0.00    +0.092 C 
ATOM     12  C   UNL     1       3.752   4.637  -7.824  0.00  0.00    +0.020 C 
BRANCH  11  17
ATOM     13  C   UNL     1       7.685   7.054 -10.314  0.00  0.00    -0.009 C 
ATOM     14  C   UNL     1       6.889   6.395 -10.360  0.00  0.00    -0.041 C 
ATOM     15  C   UNL     1       5.748   6.713 -11.282  0.00  0.00    +0.039 C 
ATOM     16  C   UNL     1       4.606   7.081 -10.339  0.00  0.00    +0.077 C 
ATOM     17  N   UNL     1       4.111   5.853  -9.791  0.00  0.00    -0.271 NA
ATOM     18  C   UNL     1       5.186   4.941  -9.452  0.00  0.00    +0.077 C 
ATOM     19  C   UNL     1       6.473   5.666  -9.116  0.00  0.00    +0.039 C 
ENDBRANCH  11  17
ENDBRANCH   1  11
BRANCH   1  20
ATOM     20  C   UNL     1       1.692   7.145  -9.552  0.00  0.00    +0.165 C 
BRANCH  20  21
ATOM     21  N   UNL     1       1.006   6.844 -10.770  0.00  0.00    -0.227 N 
ATOM     22  N   UNL     1       1.528   6.469 -11.932  0.00  0.00    -0.145 NA
ATOM     23  C   UNL     1       0.592   6.694 -12.881  0.00  0.00    +0.221 A 
ATOM     24  N   UNL     1      -0.501   7.239 -12.292  0.00  0.00    -0.201 NA
ATOM     25  C   UNL     1      -0.328   6.967 -10.975  0.00  0.00    +0.197 A 
ENDBRANCH  20  21
ENDBRANCH   1  20
TORSDOF 5
ENDMDL
MODEL 8
REMARK VINA RESULT:      -7.4      4.838      8.052
REMARK  Name = 
REMARK  5 active torsions:
REMARK  status: ('A' for Active; 'I' for Inactive)
REMARK    1  A    between atoms: N_5  and  C_6
REMARK    2  A    between atoms: C_6  and  C_8
REMARK    3  A    between atoms: C_8  and  C_10
REMARK    4  A    between atoms: C_8  and  C_16
REMARK    5  A    between atoms: C_10  and  N_11
REMARK                            x       y       z     vdW  Elec       q    Type
REMARK                         _______ _______ _______ _____ _____    ______ ____
ROOT
ATOM      1  C   UNL     1       0.927   5.881  -4.606  0.00  0.00    +0.183 C 
ATOM      2  O   UNL     1       0.586   7.181  -4.654  0.00  0.00    -0.218 OA
ENDROOT
BRANCH   1   3
ATOM      3  C   UNL     1       1.072   5.308  -5.969  0.00  0.00    +0.036 A 
ATOM      4  C   UNL     1       0.177   5.630  -6.980  0.00  0.00    +0.141 A 
ATOM      5  F   UNL     1      -1.060   6.069  -6.674  0.00  0.00    -0.204 F 
ATOM      6  C   UNL     1       0.652   5.516  -8.275  0.00  0.00    +0.059 A 
ATOM      7  C   UNL     1       1.737   4.676  -8.499  0.00  0.00    +0.142 A 
ATOM      8  F   UNL     1       2.149   4.413  -9.759  0.00  0.00    -0.204 F 
ATOM      9  C   UNL     1       2.279   3.916  -7.469  0.00  0.00    +0.030 A 
ATOM     10  C   UNL     1       1.930   4.233  -6.170  0.00  0.00    +0.003 A 
ENDBRANCH   1   3
BRANCH   1  11
ATOM     11  C   UNL     1       2.480   5.790  -4.005  0.00  0.00    +0.092 C 
ATOM     12  C   UNL     1       3.010   6.955  -5.078  0.00  0.00    +0.020 C 
BRANCH  11  17
ATOM     13  C   UNL     1       4.813   6.661  -0.085  0.00  0.00    -0.009 C 
ATOM     14  C   UNL     1       4.208   7.128  -0.781  0.00  0.00    -0.041 C 
ATOM     15  C   UNL     1       2.723   7.122  -0.560  0.00  0.00    +0.039 C 
ATOM     16  C   UNL     1       2.197   6.173  -1.633  0.00  0.00    +0.077 C 
ATOM     17  N   UNL     1       2.231   6.892  -2.872  0.00  0.00    -0.271 NA
ATOM     18  C   UNL     1       3.440   7.682  -3.004  0.00  0.00    +0.077 C 
ATOM     19  C   UNL     1       4.601   7.094  -2.229  0.00  0.00    +0.039 C 
ENDBRANCH  11  17
ENDBRANCH   1  11
BRANCH   1  20
ATOM     20  C   UNL     1       0.218   4.985  -3.667  0.00  0.00    +0.165 C 
BRANCH  20  21
ATOM     21  N   UNL     1      -1.046   5.497  -3.237  0.00  0.00    -0.227 N 
ATOM     22  N   UNL     1      -1.316   6.195  -2.141  0.00  0.00    -0.145 NA
ATOM     23  C   UNL     1      -2.650   6.108  -1.930  0.00  0.00    +0.221 A 
ATOM     24  N   UNL     1      -3.190   5.324  -2.894  0.00  0.00    -0.201 NA
ATOM     25  C   UNL     1      -2.234   5.286  -3.855  0.00  0.00    +0.197 A 
ENDBRANCH  20  21
ENDBRANCH   1  20
TORSDOF 5
ENDMDL
MODEL 9
REMARK VINA RESULT:      -7.4      4.101      6.133
REMARK  Name = 
REMARK  5 active torsions:
REMARK  status: ('A' for Active; 'I' for Inactive)
REMARK    1  A    between atoms: N_5  and  C_6
REMARK    2  A    between atoms: C_6  and  C_8
REMARK    3  A    between atoms: C_8  and  C_10
REMARK    4  A    between atoms: C_8  and  C_16
REMARK    5  A    between atoms: C_10  and  N_11
REMARK                            x       y       z     vdW  Elec       q    Type
REMARK                         _______ _______ _______ _____ _____    ______ ____
ROOT
ATOM      1  C   UNL     1       1.250   5.493  -6.136  0.00  0.00    +0.183 C 
ATOM      2  O   UNL     1       1.043   4.215  -5.768  0.00  0.00    -0.218 OA
ENDROOT
BRANCH   1   3
ATOM      3  C   UNL     1       1.462   5.607  -7.602  0.00  0.00    +0.036 A 
ATOM      4  C   UNL     1       1.927   4.529  -8.344  0.00  0.00    +0.141 A 
ATOM      5  F   UNL     1       2.619   3.541  -7.742  0.00  0.00    -0.204 F 
ATOM      6  C   UNL     1       1.597   4.526  -9.688  0.00  0.00    +0.059 A 
ATOM      7  C   UNL     1       1.278   5.741 -10.283  0.00  0.00    +0.142 A 
ATOM      8  F   UNL     1       1.091   5.818 -11.619  0.00  0.00    -0.204 F 
ATOM      9  C   UNL     1       1.364   6.932  -9.571  0.00  0.00    +0.030 A 
ATOM     10  C   UNL     1       1.469   6.864  -8.195  0.00  0.00    +0.003 A 
ENDBRANCH   1   3
BRANCH   1  11
ATOM     11  C   UNL     1      -0.181   6.319  -5.910  0.00  0.00    +0.092 C 
ATOM     12  C   UNL     1      -0.960   5.366  -7.037  0.00  0.00    +0.020 C 
BRANCH  11  17
ATOM     13  C   UNL     1      -2.736   7.296  -2.157  0.00  0.00    -0.009 C 
ATOM     14  C   UNL     1      -2.493   6.509  -2.782  0.00  0.00    -0.041 C 
ATOM     15  C   UNL     1      -1.298   5.667  -2.441  0.00  0.00    +0.039 C 
ATOM     16  C   UNL     1      -0.272   6.038  -3.508  0.00  0.00    +0.077 C 
ATOM     17  N   UNL     1      -0.672   5.376  -4.714  0.00  0.00    -0.271 NA
ATOM     18  C   UNL     1      -2.108   5.432  -4.910  0.00  0.00    +0.077 C 
ATOM     19  C   UNL     1      -2.732   6.647  -4.257  0.00  0.00    +0.039 C 
ENDBRANCH  11  17
ENDBRANCH   1  11
BRANCH   1  20
ATOM     20  C   UNL     1       2.178   6.329  -5.344  0.00  0.00    +0.165 C 
BRANCH  20  21
ATOM     21  N   UNL     1       3.108   5.567  -4.568  0.00  0.00    -0.227 N 
ATOM     22  N   UNL     1       3.062   5.295  -3.270  0.00  0.00    -0.145 NA
ATOM     23  C   UNL     1       4.308   4.925  -2.895  0.00  0.00    +0.221 A 
ATOM     24  N   UNL     1       5.125   5.002  -3.973  0.00  0.00    -0.201 NA
ATOM     25  C   UNL     1       4.272   5.043  -5.026  0.00  0.00    +0.197 A 
ENDBRANCH  20  21
ENDBRANCH   1  20
TORSDOF 5
ENDMDL
