MODEL 1
REMARK VINA RESULT:      -6.4      0.000      0.000
REMARK  Name = 
REMARK  0 active torsions:
REMARK  status: ('A' for Active; 'I' for Inactive)
REMARK                            x       y       z     vdW  Elec       q    Type
REMARK                         _______ _______ _______ _____ _____    ______ ____
ROOT
ATOM      1  C   UNL     1      -2.040   9.110  -4.438  0.00  0.00    +0.000 C 
ATOM      2  C   UNL     1      -1.863   7.698  -4.409  0.00  0.00    +0.001 C 
ATOM      3  C   UNL     1      -0.419   7.368  -4.719  0.00  0.00    +0.000 C 
ATOM      4  C   UNL     1      -0.262   5.869  -4.804  0.00  0.00    +0.001 C 
ATOM      5  C   UNL     1      -1.185   5.288  -5.840  0.00  0.00    +0.000 C 
ATOM      6  C   UNL     1      -2.622   5.630  -5.548  0.00  0.00    +0.001 C 
ATOM      7  C   UNL     1      -2.999   5.062  -4.196  0.00  0.00    +0.018 C 
ATOM      8  C   UNL     1      -2.048   5.605  -3.165  0.00  0.00    +0.077 C 
ATOM      9  N   UNL     1      -2.362   5.024  -1.879  0.00  0.00    -0.134 NA
ATOM     10  C   UNL     1       1.145   5.466  -5.140  0.00  0.00    +0.000 C 
ATOM     11  C   UNL     1      -0.609   5.278  -3.467  0.00  0.00    +0.018 C 
ATOM     12  C   UNL     1      -2.249   7.096  -3.068  0.00  0.00    +0.018 C 
ATOM     13  C   UNL     1      -2.763   7.132  -5.496  0.00  0.00    +0.000 C 
ENDROOT
TORSDOF 0
ENDMDL
MODEL 2
REMARK VINA RESULT:      -6.4      8.792     10.864
REMARK  Name = 
REMARK  0 active torsions:
REMARK  status: ('A' for Active; 'I' for Inactive)
REMARK                            x       y       z     vdW  Elec       q    Type
REMARK                         _______ _______ _______ _____ _____    ______ ____
ROOT
ATOM      1  C   UNL     1       3.571   5.799 -10.253  0.00  0.00    +0.000 C 
ATOM      2  C   UNL     1       4.870   6.032 -10.786  0.00  0.00    +0.001 C 
ATOM      3  C   UNL     1       5.906   5.441  -9.855  0.00  0.00    +0.000 C 
ATOM      4  C   UNL     1       7.284   5.794 -10.363  0.00  0.00    +0.001 C 
ATOM      5  C   UNL     1       7.450   7.283 -10.485  0.00  0.00    +0.000 C 
ATOM      6  C   UNL     1       6.409   7.879 -11.394  0.00  0.00    +0.001 C 
ATOM      7  C   UNL     1       6.549   7.267 -12.772  0.00  0.00    +0.018 C 
ATOM      8  C   UNL     1       6.429   5.772 -12.647  0.00  0.00    +0.077 C 
ATOM      9  N   UNL     1       6.619   5.173 -13.949  0.00  0.00    -0.134 NA
ATOM     10  C   UNL     1       8.368   5.264  -9.469  0.00  0.00    +0.000 C 
ATOM     11  C   UNL     1       7.460   5.179 -11.723  0.00  0.00    +0.018 C 
ATOM     12  C   UNL     1       5.035   5.442 -12.177  0.00  0.00    +0.018 C 
ATOM     13  C   UNL     1       5.040   7.542 -10.853  0.00  0.00    +0.000 C 
ENDROOT
TORSDOF 0
ENDMDL
MODEL 3
REMARK VINA RESULT:      -6.4      8.800     10.949
REMARK  Name = 
REMARK  0 active torsions:
REMARK  status: ('A' for Active; 'I' for Inactive)
REMARK                            x       y       z     vdW  Elec       q    Type
REMARK                         _______ _______ _______ _____ _____    ______ ____
ROOT
ATOM      1  C   UNL     1       6.599   9.100 -11.262  0.00  0.00    +0.000 C 
ATOM      2  C   UNL     1       6.544   7.680 -11.194  0.00  0.00    +0.001 C 
ATOM      3  C   UNL     1       5.164   7.254 -10.742  0.00  0.00    +0.000 C 
ATOM      4  C   UNL     1       5.146   5.755 -10.556  0.00  0.00    +0.001 C 
ATOM      5  C   UNL     1       6.197   5.321  -9.573  0.00  0.00    +0.000 C 
ATOM      6  C   UNL     1       7.570   5.759 -10.007  0.00  0.00    +0.001 C 
ATOM      7  C   UNL     1       7.884   5.137 -11.351  0.00  0.00    +0.018 C 
ATOM      8  C   UNL     1       6.809   5.533 -12.326  0.00  0.00    +0.077 C 
ATOM      9  N   UNL     1       7.068   4.897 -13.599  0.00  0.00    -0.134 NA
ATOM     10  C   UNL     1       3.811   5.261 -10.077  0.00  0.00    +0.000 C 
ATOM     11  C   UNL     1       5.433   5.109 -11.882  0.00  0.00    +0.018 C 
ATOM     12  C   UNL     1       6.872   7.026 -12.526  0.00  0.00    +0.018 C 
ATOM     13  C   UNL     1       7.576   7.262 -10.158  0.00  0.00    +0.000 C 
ENDROOT
TORSDOF 0
ENDMDL
MODEL 4
REMARK VINA RESULT:      -6.1      8.886     11.050
REMARK  Name = 
REMARK  0 active torsions:
REMARK  status: ('A' for Active; 'I' for Inactive)
REMARK                            x       y       z     vdW  Elec       q    Type
REMARK                         _______ _______ _______ _____ _____    ______ ____
ROOT
ATOM      1  C   UNL     1       4.109   5.202 -10.104  0.00  0.00    +0.000 C 
ATOM      2  C   UNL     1       5.281   5.798 -10.649  0.00  0.00    +0.001 C 
ATOM      3  C   UNL     1       5.511   5.264 -12.046  0.00  0.00    +0.000 C 
ATOM      4  C   UNL     1       6.817   5.806 -12.573  0.00  0.00    +0.001 C 
ATOM      5  C   UNL     1       7.958   5.447 -11.662  0.00  0.00    +0.000 C 
ATOM      6  C   UNL     1       7.726   5.958 -10.265  0.00  0.00    +0.001 C 
ATOM      7  C   UNL     1       7.601   7.467 -10.306  0.00  0.00    +0.018 C 
ATOM      8  C   UNL     1       6.490   7.831 -11.254  0.00  0.00    +0.077 C 
ATOM      9  N   UNL     1       6.400   9.271 -11.345  0.00  0.00    -0.134 NA
ATOM     10  C   UNL     1       7.128   5.294 -13.950  0.00  0.00    +0.000 C 
ATOM     11  C   UNL     1       6.715   7.304 -12.647  0.00  0.00    +0.018 C 
ATOM     12  C   UNL     1       5.192   7.314 -10.688  0.00  0.00    +0.018 C 
ATOM     13  C   UNL     1       6.431   5.382  -9.745  0.00  0.00    +0.000 C 
ENDROOT
TORSDOF 0
ENDMDL
MODEL 5
REMARK VINA RESULT:      -5.9      5.162      6.567
REMARK  Name = 
REMARK  0 active torsions:
REMARK  status: ('A' for Active; 'I' for Inactive)
REMARK                            x       y       z     vdW  Elec       q    Type
REMARK                         _______ _______ _______ _____ _____    ______ ____
ROOT
ATOM      1  C   UNL     1       5.060   5.201  -9.838  0.00  0.00    +0.000 C 
ATOM      2  C   UNL     1       4.146   5.477  -8.783  0.00  0.00    +0.001 C 
ATOM      3  C   UNL     1       4.866   5.366  -7.456  0.00  0.00    +0.000 C 
ATOM      4  C   UNL     1       3.868   5.542  -6.337  0.00  0.00    +0.001 C 
ATOM      5  C   UNL     1       2.759   4.532  -6.438  0.00  0.00    +0.000 C 
ATOM      6  C   UNL     1       2.052   4.624  -7.764  0.00  0.00    +0.001 C 
ATOM      7  C   UNL     1       1.455   6.008  -7.909  0.00  0.00    +0.018 C 
ATOM      8  C   UNL     1       2.556   7.023  -7.762  0.00  0.00    +0.077 C 
ATOM      9  N   UNL     1       1.988   8.351  -7.841  0.00  0.00    -0.134 NA
ATOM     10  C   UNL     1       4.508   5.414  -4.984  0.00  0.00    +0.000 C 
ATOM     11  C   UNL     1       3.274   6.918  -6.442  0.00  0.00    +0.018 C 
ATOM     12  C   UNL     1       3.517   6.855  -8.911  0.00  0.00    +0.018 C 
ATOM     13  C   UNL     1       3.061   4.416  -8.868  0.00  0.00    +0.000 C 
ENDROOT
TORSDOF 0
ENDMDL
MODEL 6
REMARK VINA RESULT:      -5.9      0.473      2.753
REMARK  Name = 
REMARK  0 active torsions:
REMARK  status: ('A' for Active; 'I' for Inactive)
REMARK                            x       y       z     vdW  Elec       q    Type
REMARK                         _______ _______ _______ _____ _____    ______ ____
ROOT
ATOM      1  C   UNL     1       1.276   5.840  -4.802  0.00  0.00    +0.000 C 
ATOM      2  C   UNL     1      -0.102   6.066  -4.529  0.00  0.00    +0.001 C 
ATOM      3  C   UNL     1      -0.936   5.487  -5.651  0.00  0.00    +0.000 C 
ATOM      4  C   UNL     1      -2.387   5.833  -5.417  0.00  0.00    +0.001 C 
ATOM      5  C   UNL     1      -2.578   7.321  -5.312  0.00  0.00    +0.000 C 
ATOM      6  C   UNL     1      -1.735   7.906  -4.210  0.00  0.00    +0.001 C 
ATOM      7  C   UNL     1      -2.140   7.276  -2.894  0.00  0.00    +0.018 C 
ATOM      8  C   UNL     1      -1.994   5.783  -3.011  0.00  0.00    +0.077 C 
ATOM      9  N   UNL     1      -2.432   5.167  -1.779  0.00  0.00    -0.134 NA
ATOM     10  C   UNL     1      -3.275   5.314  -6.512  0.00  0.00    +0.000 C 
ATOM     11  C   UNL     1      -2.824   5.201  -4.126  0.00  0.00    +0.018 C 
ATOM     12  C   UNL     1      -0.534   5.459  -3.204  0.00  0.00    +0.018 C 
ATOM     13  C   UNL     1      -0.286   7.575  -4.478  0.00  0.00    +0.000 C 
ENDROOT
TORSDOF 0
ENDMDL
MODEL 7
REMARK VINA RESULT:      -5.9      1.473      3.116
REMARK  Name = 
REMARK  0 active torsions:
REMARK  status: ('A' for Active; 'I' for Inactive)
REMARK                            x       y       z     vdW  Elec       q    Type
REMARK                         _______ _______ _______ _____ _____    ______ ____
ROOT
ATOM      1  C   UNL     1       1.002   5.485  -5.418  0.00  0.00    +0.000 C 
ATOM      2  C   UNL     1      -0.254   5.938  -4.927  0.00  0.00    +0.001 C 
ATOM      3  C   UNL     1      -0.427   5.478  -3.495  0.00  0.00    +0.000 C 
ATOM      4  C   UNL     1      -1.809   5.858  -3.018  0.00  0.00    +0.001 C 
ATOM      5  C   UNL     1      -2.868   5.269  -3.909  0.00  0.00    +0.000 C 
ATOM      6  C   UNL     1      -2.689   5.708  -5.338  0.00  0.00    +0.001 C 
ATOM      7  C   UNL     1      -2.788   7.217  -5.407  0.00  0.00    +0.018 C 
ATOM      8  C   UNL     1      -1.759   7.808  -4.481  0.00  0.00    +0.077 C 
ATOM      9  N   UNL     1      -1.884   9.249  -4.495  0.00  0.00    -0.134 NA
ATOM     10  C   UNL     1      -2.064   5.405  -1.610  0.00  0.00    +0.000 C 
ATOM     11  C   UNL     1      -1.929   7.355  -3.055  0.00  0.00    +0.018 C 
ATOM     12  C   UNL     1      -0.389   7.450  -4.999  0.00  0.00    +0.018 C 
ATOM     13  C   UNL     1      -1.314   5.293  -5.805  0.00  0.00    +0.000 C 
ENDROOT
TORSDOF 0
ENDMDL
MODEL 8
REMARK VINA RESULT:      -5.8      3.786      5.490
REMARK  Name = 
REMARK  0 active torsions:
REMARK  status: ('A' for Active; 'I' for Inactive)
REMARK                            x       y       z     vdW  Elec       q    Type
REMARK                         _______ _______ _______ _____ _____    ______ ____
ROOT
ATOM      1  C   UNL     1      -0.685   5.372  -5.716  0.00  0.00    +0.000 C 
ATOM      2  C   UNL     1       0.287   5.553  -6.740  0.00  0.00    +0.001 C 
ATOM      3  C   UNL     1      -0.348   5.284  -8.086  0.00  0.00    +0.000 C 
ATOM      4  C   UNL     1       0.714   5.359  -9.157  0.00  0.00    +0.001 C 
ATOM      5  C   UNL     1       1.830   4.390  -8.881  0.00  0.00    +0.000 C 
ATOM      6  C   UNL     1       2.453   4.640  -7.533  0.00  0.00    +0.001 C 
ATOM      7  C   UNL     1       3.019   6.045  -7.505  0.00  0.00    +0.018 C 
ATOM      8  C   UNL     1       1.913   7.014  -7.827  0.00  0.00    +0.077 C 
ATOM      9  N   UNL     1       2.455   8.354  -7.860  0.00  0.00    -0.134 NA
ATOM     10  C   UNL     1       0.160   5.072 -10.523  0.00  0.00    +0.000 C 
ATOM     11  C   UNL     1       1.279   6.751  -9.168  0.00  0.00    +0.018 C 
ATOM     12  C   UNL     1       0.886   6.950  -6.726  0.00  0.00    +0.018 C 
ATOM     13  C   UNL     1       1.382   4.531  -6.474  0.00  0.00    +0.000 C 
ENDROOT
TORSDOF 0
ENDMDL
MODEL 9
REMARK VINA RESULT:      -5.8      1.474      3.305
REMARK  Name = 
REMARK  0 active torsions:
REMARK  status: ('A' for Active; 'I' for Inactive)
REMARK                            x       y       z     vdW  Elec       q    Type
REMARK                         _______ _______ _______ _____ _____    ______ ____
ROOT
ATOM      1  C   UNL     1      -3.265   5.106  -6.235  0.00  0.00    +0.000 C 
ATOM      2  C   UNL     1      -2.394   5.743  -5.307  0.00  0.00    +0.001 C 
ATOM      3  C   UNL     1      -2.740   5.292  -3.905  0.00  0.00    +0.000 C 
ATOM      4  C   UNL     1      -1.895   6.059  -2.916  0.00  0.00    +0.001 C 
ATOM      5  C   UNL     1      -2.092   7.541  -3.073  0.00  0.00    +0.000 C 
ATOM      6  C   UNL     1      -1.769   7.993  -4.472  0.00  0.00    +0.001 C 
ATOM      7  C   UNL     1      -0.321   7.668  -4.773  0.00  0.00    +0.018 C 
ATOM      8  C   UNL     1      -0.109   6.192  -4.572  0.00  0.00    +0.077 C 
ATOM      9  N   UNL     1       1.284   5.879  -4.801  0.00  0.00    -0.134 NA
ATOM     10  C   UNL     1      -2.205   5.684  -1.496  0.00  0.00    +0.000 C 
ATOM     11  C   UNL     1      -0.450   5.738  -3.177  0.00  0.00    +0.018 C 
ATOM     12  C   UNL     1      -0.931   5.448  -5.594  0.00  0.00    +0.018 C 
ATOM     13  C   UNL     1      -2.645   7.237  -5.442  0.00  0.00    +0.000 C 
ENDROOT
TORSDOF 0
ENDMDL
