MODEL 1
REMARK VINA RESULT:      -7.0      0.000      0.000
REMARK  Name = 
REMARK  15 active torsions:
REMARK  status: ('A' for Active; 'I' for Inactive)
REMARK    1  A    between atoms: C_2  and  C_3
REMARK    2  A    between atoms: C_3  and  C_4
REMARK    3  A    between atoms: C_4  and  C_5
REMARK    4  A    between atoms: C_5  and  C_6
REMARK    5  A    between atoms: C_6  and  C_7
REMARK    6  A    between atoms: C_7  and  C_8
REMARK    7  A    between atoms: C_8  and  C_10
REMARK    8  A    between atoms: C_10  and  C_11
REMARK    9  A    between atoms: C_11  and  C_12
REMARK   10  A    between atoms: C_18  and  C_19
REMARK   11  A    between atoms: C_19  and  C_20
REMARK   12  A    between atoms: C_21  and  C_22
REMARK   13  A    between atoms: C_22  and  C_23
REMARK   14  A    between atoms: C_23  and  C_24
REMARK   15  A    between atoms: C_24  and  C_25
REMARK                            x       y       z     vdW  Elec       q    Type
REMARK                         _______ _______ _______ _____ _____    ______ ____
ROOT
ATOM      1  C   UNL     1       1.413   6.134  -4.698  0.00  0.00    +0.034 C 
ATOM      2  C   UNL     1       0.697   4.781  -5.228  0.00  0.00    +0.037 C 
ATOM      3  C   UNL     1       2.163   4.608  -6.145  0.00  0.00    +0.155 C 
ATOM      4  O   UNL     1       2.284   6.054  -6.657  0.00  0.00    -0.223 OA
ATOM      5  C   UNL     1       3.232   4.596  -4.840  0.00  0.00    +0.066 C 
ATOM      6  C   UNL     1       2.536   5.446  -5.786  0.00  0.00    +0.155 C 
ATOM      7  O   UNL     1       1.805   4.029  -6.003  0.00  0.00    -0.223 OA
ENDROOT
BRANCH   2   8
ATOM      8  C   UNL     1      -0.030   5.570  -6.423  0.00  0.00    +0.028 C 
BRANCH   8   9
ATOM      9  C   UNL     1      -1.422   5.216  -6.540  0.00  0.00    -0.031 C 
ATOM     10  C   UNL     1      -2.460   6.013  -6.282  0.00  0.00    -0.031 C 
BRANCH  10  11
ATOM     11  C   UNL     1      -2.189   7.151  -5.405  0.00  0.00    +0.026 C 
BRANCH  11  12
ATOM     12  C   UNL     1      -2.709   7.143  -4.105  0.00  0.00    +0.016 C 
BRANCH  12  13
ATOM     13  C   UNL     1      -2.123   6.844  -2.860  0.00  0.00    +0.114 C 
BRANCH  13  14
ATOM     14  C   UNL     1      -2.352   5.562  -2.237  0.00  0.00    +0.365 C 
ATOM     15  O   UNL     1      -2.924   4.586  -3.052  0.00  0.00    -0.246 OA
ATOM     16  O   UNL     1      -2.234   5.230  -1.044  0.00  0.00    -0.246 OA
ENDBRANCH  13  14
ENDBRANCH  12  13
ENDBRANCH  11  12
ENDBRANCH  10  11
ENDBRANCH   8   9
ENDBRANCH   2   8
BRANCH   1  17
ATOM     17  C   UNL     1       2.072   5.293  -3.480  0.00  0.00    +0.010 C 
BRANCH  17  18
ATOM     18  C   UNL     1       1.156   5.455  -2.546  0.00  0.00    +0.065 C 
BRANCH  18  19
ATOM     19  C   UNL     1       1.477   5.256  -1.150  0.00  0.00    +0.151 C 
ATOM     20  O   UNL     1       2.484   4.638  -0.949  0.00  0.00    -0.296 OA
BRANCH  19  21
ATOM     21  C   UNL     1       1.098   6.520  -0.420  0.00  0.00    +0.065 C 
BRANCH  21  22
ATOM     22  C   UNL     1       2.335   7.258  -0.397  0.00  0.00    +0.008 C 
BRANCH  22  23
ATOM     23  C   UNL     1       3.226   7.785  -1.114  0.00  0.00    +0.000 C 
BRANCH  23  24
ATOM     24  C   UNL     1       4.099   8.356  -1.963  0.00  0.00    +0.000 C 
BRANCH  24  25
ATOM     25  C   UNL     1       4.719   7.677  -2.942  0.00  0.00    +0.000 C 
BRANCH  25  27
ATOM     26  C   UNL     1       4.841   7.823  -4.120  0.00  0.00    +0.000 C 
ATOM     27  C   UNL     1       5.362   7.622  -4.124  0.00  0.00    +0.000 C 
ENDBRANCH  25  27
ENDBRANCH  24  25
ENDBRANCH  23  24
ENDBRANCH  22  23
ENDBRANCH  21  22
ENDBRANCH  19  21
ENDBRANCH  18  19
ENDBRANCH  17  18
ENDBRANCH   1  17
TORSDOF 15
ENDMDL
MODEL 2
REMARK VINA RESULT:      -6.8      4.381      8.173
REMARK  Name = 
REMARK  15 active torsions:
REMARK  status: ('A' for Active; 'I' for Inactive)
REMARK    1  A    between atoms: C_2  and  C_3
REMARK    2  A    between atoms: C_3  and  C_4
REMARK    3  A    between atoms: C_4  and  C_5
REMARK    4  A    between atoms: C_5  and  C_6
REMARK    5  A    between atoms: C_6  and  C_7
REMARK    6  A    between atoms: C_7  and  C_8
REMARK    7  A    between atoms: C_8  and  C_10
REMARK    8  A    between atoms: C_10  and  C_11
REMARK    9  A    between atoms: C_11  and  C_12
REMARK   10  A    between atoms: C_18  and  C_19
REMARK   11  A    between atoms: C_19  and  C_20
REMARK   12  A    between atoms: C_21  and  C_22
REMARK   13  A    between atoms: C_22  and  C_23
REMARK   14  A    between atoms: C_23  and  C_24
REMARK   15  A    between atoms: C_24  and  C_25
REMARK                            x       y       z     vdW  Elec       q    Type
REMARK                         _______ _______ _______ _____ _____    ______ ____
ROOT
ATOM      1  C   UNL     1       2.980   6.707  -5.606  0.00  0.00    +0.034 C 
ATOM      2  C   UNL     1       3.393   5.163  -5.869  0.00  0.00    +0.037 C 
ATOM      3  C   UNL     1       4.401   5.407  -4.476  0.00  0.00    +0.155 C 
ATOM      4  O   UNL     1       4.990   6.777  -4.859  0.00  0.00    -0.223 OA
ATOM      5  C   UNL     1       3.177   5.830  -3.396  0.00  0.00    +0.066 C 
ATOM      6  C   UNL     1       4.111   6.343  -4.378  0.00  0.00    +0.155 C 
ATOM      7  O   UNL     1       4.207   4.755  -4.619  0.00  0.00    -0.223 OA
ENDROOT
BRANCH   2   8
ATOM      8  C   UNL     1       4.569   5.592  -6.874  0.00  0.00    +0.028 C 
BRANCH   8   9
ATOM      9  C   UNL     1       4.078   5.864  -8.201  0.00  0.00    -0.031 C 
ATOM     10  C   UNL     1       4.732   5.643  -9.343  0.00  0.00    -0.031 C 
BRANCH  10  11
ATOM     11  C   UNL     1       6.187   5.546  -9.235  0.00  0.00    +0.026 C 
BRANCH  11  12
ATOM     12  C   UNL     1       6.982   6.360 -10.052  0.00  0.00    +0.016 C 
BRANCH  12  13
ATOM     13  C   UNL     1       7.130   6.428 -11.450  0.00  0.00    +0.114 C 
BRANCH  13  14
ATOM     14  C   UNL     1       7.995   5.499 -12.137  0.00  0.00    +0.365 C 
ATOM     15  O   UNL     1       9.357   5.795 -12.094  0.00  0.00    -0.246 OA
ATOM     16  O   UNL     1       7.702   4.539 -12.873  0.00  0.00    -0.246 OA
ENDBRANCH  13  14
ENDBRANCH  12  13
ENDBRANCH  11  12
ENDBRANCH  10  11
ENDBRANCH   8   9
ENDBRANCH   2   8
BRANCH   1  17
ATOM     17  C   UNL     1       1.773   6.208  -4.647  0.00  0.00    +0.010 C 
BRANCH  17  18
ATOM     18  C   UNL     1       0.751   6.291  -5.477  0.00  0.00    +0.065 C 
BRANCH  18  19
ATOM     19  C   UNL     1      -0.391   5.416  -5.335  0.00  0.00    +0.151 C 
ATOM     20  O   UNL     1      -0.898   5.423  -4.248  0.00  0.00    -0.296 OA
BRANCH  19  21
ATOM     21  C   UNL     1      -1.162   5.474  -6.630  0.00  0.00    +0.065 C 
BRANCH  21  22
ATOM     22  C   UNL     1      -0.118   5.494  -7.622  0.00  0.00    +0.008 C 
BRANCH  22  23
ATOM     23  C   UNL     1       0.134   5.692  -8.840  0.00  0.00    +0.000 C 
BRANCH  23  24
ATOM     24  C   UNL     1       0.514   5.892 -10.115  0.00  0.00    +0.000 C 
BRANCH  24  25
ATOM     25  C   UNL     1       0.111   6.946 -10.842  0.00  0.00    +0.000 C 
BRANCH  25  27
ATOM     26  C   UNL     1       0.109   7.108 -12.024  0.00  0.00    +0.000 C 
ATOM     27  C   UNL     1      -0.283   7.506 -12.001  0.00  0.00    +0.000 C 
ENDBRANCH  25  27
ENDBRANCH  24  25
ENDBRANCH  23  24
ENDBRANCH  22  23
ENDBRANCH  21  22
ENDBRANCH  19  21
ENDBRANCH  18  19
ENDBRANCH  17  18
ENDBRANCH   1  17
TORSDOF 15
ENDMDL
MODEL 3
REMARK VINA RESULT:      -6.8      3.927      5.747
REMARK  Name = 
REMARK  15 active torsions:
REMARK  status: ('A' for Active; 'I' for Inactive)
REMARK    1  A    between atoms: C_2  and  C_3
REMARK    2  A    between atoms: C_3  and  C_4
REMARK    3  A    between atoms: C_4  and  C_5
REMARK    4  A    between atoms: C_5  and  C_6
REMARK    5  A    between atoms: C_6  and  C_7
REMARK    6  A    between atoms: C_7  and  C_8
REMARK    7  A    between atoms: C_8  and  C_10
REMARK    8  A    between atoms: C_10  and  C_11
REMARK    9  A    between atoms: C_11  and  C_12
REMARK   10  A    between atoms: C_18  and  C_19
REMARK   11  A    between atoms: C_19  and  C_20
REMARK   12  A    between atoms: C_21  and  C_22
REMARK   13  A    between atoms: C_22  and  C_23
REMARK   14  A    between atoms: C_23  and  C_24
REMARK   15  A    between atoms: C_24  and  C_25
REMARK                            x       y       z     vdW  Elec       q    Type
REMARK                         _______ _______ _______ _____ _____    ______ ____
ROOT
ATOM      1  C   UNL     1       3.001   5.288  -5.486  0.00  0.00    +0.034 C 
ATOM      2  C   UNL     1       2.363   6.761  -5.263  0.00  0.00    +0.037 C 
ATOM      3  C   UNL     1       3.425   6.791  -3.889  0.00  0.00    +0.155 C 
ATOM      4  O   UNL     1       3.136   5.380  -3.347  0.00  0.00    -0.223 OA
ATOM      5  C   UNL     1       4.870   6.565  -4.730  0.00  0.00    +0.066 C 
ATOM      6  C   UNL     1       3.766   5.887  -4.080  0.00  0.00    +0.155 C 
ATOM      7  O   UNL     1       3.233   7.403  -4.157  0.00  0.00    -0.223 OA
ENDROOT
BRANCH   2   8
ATOM      8  C   UNL     1       1.152   6.164  -4.393  0.00  0.00    +0.028 C 
BRANCH   8   9
ATOM      9  C   UNL     1       0.107   5.617  -5.219  0.00  0.00    -0.031 C 
ATOM     10  C   UNL     1      -0.974   6.267  -5.653  0.00  0.00    -0.031 C 
BRANCH  10  11
ATOM     11  C   UNL     1      -1.357   7.452  -4.886  0.00  0.00    +0.026 C 
BRANCH  11  12
ATOM     12  C   UNL     1      -2.375   7.341  -3.931  0.00  0.00    +0.016 C 
BRANCH  12  13
ATOM     13  C   UNL     1      -2.347   7.022  -2.560  0.00  0.00    +0.114 C 
BRANCH  13  14
ATOM     14  C   UNL     1      -2.125   5.661  -2.133  0.00  0.00    +0.365 C 
ATOM     15  O   UNL     1      -2.847   4.686  -2.821  0.00  0.00    -0.246 OA
ATOM     16  O   UNL     1      -1.483   5.232  -1.158  0.00  0.00    -0.246 OA
ENDBRANCH  13  14
ENDBRANCH  12  13
ENDBRANCH  11  12
ENDBRANCH  10  11
ENDBRANCH   8   9
ENDBRANCH   2   8
BRANCH   1  17
ATOM     17  C   UNL     1       4.164   5.945  -6.403  0.00  0.00    +0.010 C 
BRANCH  17  18
ATOM     18  C   UNL     1       3.537   6.048  -7.558  0.00  0.00    +0.065 C 
BRANCH  18  19
ATOM     19  C   UNL     1       3.969   5.284  -8.707  0.00  0.00    +0.151 C 
ATOM     20  O   UNL     1       3.745   4.108  -8.642  0.00  0.00    -0.296 OA
BRANCH  19  21
ATOM     21  C   UNL     1       3.711   6.129  -9.929  0.00  0.00    +0.065 C 
BRANCH  21  22
ATOM     22  C   UNL     1       5.024   6.620 -10.259  0.00  0.00    +0.008 C 
BRANCH  22  23
ATOM     23  C   UNL     1       6.245   6.318 -10.320  0.00  0.00    +0.000 C 
BRANCH  23  24
ATOM     24  C   UNL     1       7.536   5.940 -10.285  0.00  0.00    +0.000 C 
BRANCH  24  25
ATOM     25  C   UNL     1       8.241   5.638 -11.386  0.00  0.00    +0.000 C 
BRANCH  25  27
ATOM     26  C   UNL     1       8.688   5.855 -12.471  0.00  0.00    +0.000 C 
ATOM     27  C   UNL     1       9.212   5.898 -12.282  0.00  0.00    +0.000 C 
ENDBRANCH  25  27
ENDBRANCH  24  25
ENDBRANCH  23  24
ENDBRANCH  22  23
ENDBRANCH  21  22
ENDBRANCH  19  21
ENDBRANCH  18  19
ENDBRANCH  17  18
ENDBRANCH   1  17
TORSDOF 15
ENDMDL
MODEL 4
REMARK VINA RESULT:      -6.7      3.319      5.382
REMARK  Name = 
REMARK  15 active torsions:
REMARK  status: ('A' for Active; 'I' for Inactive)
REMARK    1  A    between atoms: C_2  and  C_3
REMARK    2  A    between atoms: C_3  and  C_4
REMARK    3  A    between atoms: C_4  and  C_5
REMARK    4  A    between atoms: C_5  and  C_6
REMARK    5  A    between atoms: C_6  and  C_7
REMARK    6  A    between atoms: C_7  and  C_8
REMARK    7  A    between atoms: C_8  and  C_10
REMARK    8  A    between atoms: C_10  and  C_11
REMARK    9  A    between atoms: C_11  and  C_12
REMARK   10  A    between atoms: C_18  and  C_19
REMARK   11  A    between atoms: C_19  and  C_20
REMARK   12  A    between atoms: C_21  and  C_22
REMARK   13  A    between atoms: C_22  and  C_23
REMARK   14  A    between atoms: C_23  and  C_24
REMARK   15  A    between atoms: C_24  and  C_25
REMARK                            x       y       z     vdW  Elec       q    Type
REMARK                         _______ _______ _______ _____ _____    ______ ____
ROOT
ATOM      1  C   UNL     1       1.514   6.397 -10.019  0.00  0.00    +0.034 C 
ATOM      2  C   UNL     1       0.978   4.891  -9.760  0.00  0.00    +0.037 C 
ATOM      3  C   UNL     1      -0.018   5.225 -11.144  0.00  0.00    +0.155 C 
ATOM      4  O   UNL     1      -0.488   6.636 -10.751  0.00  0.00    -0.223 OA
ATOM      5  C   UNL     1       1.230   5.550 -12.232  0.00  0.00    +0.066 C 
ATOM      6  C   UNL     1       0.348   6.134 -11.240  0.00  0.00    +0.155 C 
ATOM      7  O   UNL     1       0.124   4.558 -11.006  0.00  0.00    -0.223 OA
ENDROOT
BRANCH   2   8
ATOM      8  C   UNL     1      -0.152   5.410  -8.744  0.00  0.00    +0.028 C 
BRANCH   8   9
ATOM      9  C   UNL     1       0.379   5.678  -7.432  0.00  0.00    -0.031 C 
ATOM     10  C   UNL     1      -0.289   5.591  -6.280  0.00  0.00    -0.031 C 
BRANCH  10  11
ATOM     11  C   UNL     1      -1.746   5.674  -6.381  0.00  0.00    +0.026 C 
BRANCH  11  12
ATOM     12  C   UNL     1      -2.448   6.433  -5.436  0.00  0.00    +0.016 C 
BRANCH  12  13
ATOM     13  C   UNL     1      -2.164   6.762  -4.097  0.00  0.00    +0.114 C 
BRANCH  13  14
ATOM     14  C   UNL     1      -2.551   5.869  -3.031  0.00  0.00    +0.365 C 
ATOM     15  O   UNL     1      -2.369   6.357  -1.737  0.00  0.00    -0.246 OA
ATOM     16  O   UNL     1      -2.906   4.677  -3.085  0.00  0.00    -0.246 OA
ENDBRANCH  13  14
ENDBRANCH  12  13
ENDBRANCH  11  12
ENDBRANCH  10  11
ENDBRANCH   8   9
ENDBRANCH   2   8
BRANCH   1  17
ATOM     17  C   UNL     1       2.669   5.805 -10.990  0.00  0.00    +0.010 C 
BRANCH  17  18
ATOM     18  C   UNL     1       3.743   6.353 -10.456  0.00  0.00    +0.065 C 
BRANCH  18  19
ATOM     19  C   UNL     1       4.870   5.541 -10.058  0.00  0.00    +0.151 C 
ATOM     20  O   UNL     1       5.926   6.109 -10.061  0.00  0.00    -0.296 OA
BRANCH  19  21
ATOM     21  C   UNL     1       4.399   4.634  -8.949  0.00  0.00    +0.065 C 
BRANCH  21  22
ATOM     22  C   UNL     1       4.676   5.407  -7.766  0.00  0.00    +0.008 C 
BRANCH  22  23
ATOM     23  C   UNL     1       4.201   5.811  -6.671  0.00  0.00    +0.000 C 
BRANCH  23  24
ATOM     24  C   UNL     1       3.668   6.340  -5.555  0.00  0.00    +0.000 C 
BRANCH  24  25
ATOM     25  C   UNL     1       4.263   7.315  -4.851  0.00  0.00    +0.000 C 
BRANCH  25  27
ATOM     26  C   UNL     1       5.169   7.702  -4.177  0.00  0.00    +0.000 C 
ATOM     27  C   UNL     1       4.843   7.784  -3.730  0.00  0.00    +0.000 C 
ENDBRANCH  25  27
ENDBRANCH  24  25
ENDBRANCH  23  24
ENDBRANCH  22  23
ENDBRANCH  21  22
ENDBRANCH  19  21
ENDBRANCH  18  19
ENDBRANCH  17  18
ENDBRANCH   1  17
TORSDOF 15
ENDMDL
MODEL 5
REMARK VINA RESULT:      -6.7      3.442      6.359
REMARK  Name = 
REMARK  15 active torsions:
REMARK  status: ('A' for Active; 'I' for Inactive)
REMARK    1  A    between atoms: C_2  and  C_3
REMARK    2  A    between atoms: C_3  and  C_4
REMARK    3  A    between atoms: C_4  and  C_5
REMARK    4  A    between atoms: C_5  and  C_6
REMARK    5  A    between atoms: C_6  and  C_7
REMARK    6  A    between atoms: C_7  and  C_8
REMARK    7  A    between atoms: C_8  and  C_10
REMARK    8  A    between atoms: C_10  and  C_11
REMARK    9  A    between atoms: C_11  and  C_12
REMARK   10  A    between atoms: C_18  and  C_19
REMARK   11  A    between atoms: C_19  and  C_20
REMARK   12  A    between atoms: C_21  and  C_22
REMARK   13  A    between atoms: C_22  and  C_23
REMARK   14  A    between atoms: C_23  and  C_24
REMARK   15  A    between atoms: C_24  and  C_25
REMARK                            x       y       z     vdW  Elec       q    Type
REMARK                         _______ _______ _______ _____ _____    ______ ____
ROOT
ATOM      1  C   UNL     1       3.232   5.369  -7.101  0.00  0.00    +0.034 C 
ATOM      2  C   UNL     1       2.949   6.964  -7.127  0.00  0.00    +0.037 C 
ATOM      3  C   UNL     1       3.289   6.847  -5.427  0.00  0.00    +0.155 C 
ATOM      4  O   UNL     1       2.454   5.592  -5.114  0.00  0.00    -0.223 OA
ATOM      5  C   UNL     1       4.848   6.218  -5.564  0.00  0.00    +0.066 C 
ATOM      6  C   UNL     1       3.442   5.875  -5.482  0.00  0.00    +0.155 C 
ATOM      7  O   UNL     1       3.389   7.464  -5.731  0.00  0.00    -0.223 OA
ENDROOT
BRANCH   2   8
ATOM      8  C   UNL     1       1.376   6.743  -6.890  0.00  0.00    +0.028 C 
BRANCH   8   9
ATOM      9  C   UNL     1       0.737   6.127  -8.026  0.00  0.00    -0.031 C 
ATOM     10  C   UNL     1      -0.449   5.517  -8.025  0.00  0.00    -0.031 C 
BRANCH  10  11
ATOM     11  C   UNL     1      -0.923   5.045  -6.724  0.00  0.00    +0.026 C 
BRANCH  11  12
ATOM     12  C   UNL     1      -2.121   5.558  -6.213  0.00  0.00    +0.016 C 
BRANCH  12  13
ATOM     13  C   UNL     1      -2.384   6.487  -5.189  0.00  0.00    +0.114 C 
BRANCH  13  14
ATOM     14  C   UNL     1      -2.623   6.034  -3.839  0.00  0.00    +0.365 C 
ATOM     15  O   UNL     1      -2.100   6.840  -2.828  0.00  0.00    -0.246 OA
ATOM     16  O   UNL     1      -3.116   4.964  -3.438  0.00  0.00    -0.246 OA
ENDBRANCH  13  14
ENDBRANCH  12  13
ENDBRANCH  11  12
ENDBRANCH  10  11
ENDBRANCH   8   9
ENDBRANCH   2   8
BRANCH   1  17
ATOM     17  C   UNL     1       4.799   5.656  -7.398  0.00  0.00    +0.010 C 
BRANCH  17  18
ATOM     18  C   UNL     1       4.906   5.187  -8.625  0.00  0.00    +0.065 C 
BRANCH  18  19
ATOM     19  C   UNL     1       5.599   5.937  -9.648  0.00  0.00    +0.151 C 
ATOM     20  O   UNL     1       6.380   5.301 -10.297  0.00  0.00    -0.296 OA
BRANCH  19  21
ATOM     21  C   UNL     1       4.610   6.916 -10.232  0.00  0.00    +0.065 C 
BRANCH  21  22
ATOM     22  C   UNL     1       3.644   6.054 -10.864  0.00  0.00    +0.008 C 
BRANCH  22  23
ATOM     23  C   UNL     1       2.490   6.003 -11.366  0.00  0.00    +0.000 C 
BRANCH  23  24
ATOM     24  C   UNL     1       1.274   6.058 -11.937  0.00  0.00    +0.000 C 
BRANCH  24  25
ATOM     25  C   UNL     1       0.307   6.893 -11.522  0.00  0.00    +0.000 C 
BRANCH  25  27
ATOM     26  C   UNL     1      -0.798   7.307 -11.349  0.00  0.00    +0.000 C 
ATOM     27  C   UNL     1      -0.753   7.689 -11.755  0.00  0.00    +0.000 C 
ENDBRANCH  25  27
ENDBRANCH  24  25
ENDBRANCH  23  24
ENDBRANCH  22  23
ENDBRANCH  21  22
ENDBRANCH  19  21
ENDBRANCH  18  19
ENDBRANCH  17  18
ENDBRANCH   1  17
TORSDOF 15
ENDMDL
MODEL 6
REMARK VINA RESULT:      -6.7      3.949      7.268
REMARK  Name = 
REMARK  15 active torsions:
REMARK  status: ('A' for Active; 'I' for Inactive)
REMARK    1  A    between atoms: C_2  and  C_3
REMARK    2  A    between atoms: C_3  and  C_4
REMARK    3  A    between atoms: C_4  and  C_5
REMARK    4  A    between atoms: C_5  and  C_6
REMARK    5  A    between atoms: C_6  and  C_7
REMARK    6  A    between atoms: C_7  and  C_8
REMARK    7  A    between atoms: C_8  and  C_10
REMARK    8  A    between atoms: C_10  and  C_11
REMARK    9  A    between atoms: C_11  and  C_12
REMARK   10  A    between atoms: C_18  and  C_19
REMARK   11  A    between atoms: C_19  and  C_20
REMARK   12  A    between atoms: C_21  and  C_22
REMARK   13  A    between atoms: C_22  and  C_23
REMARK   14  A    between atoms: C_23  and  C_24
REMARK   15  A    between atoms: C_24  and  C_25
REMARK                            x       y       z     vdW  Elec       q    Type
REMARK                         _______ _______ _______ _____ _____    ______ ____
ROOT
ATOM      1  C   UNL     1       1.426   5.220  -8.389  0.00  0.00    +0.034 C 
ATOM      2  C   UNL     1       1.661   6.820  -8.485  0.00  0.00    +0.037 C 
ATOM      3  C   UNL     1       1.263   6.574 -10.158  0.00  0.00    +0.155 C 
ATOM      4  O   UNL     1       2.125   5.325 -10.415  0.00  0.00    -0.223 OA
ATOM      5  C   UNL     1      -0.270   5.912  -9.919  0.00  0.00    +0.066 C 
ATOM      6  C   UNL     1       1.142   5.605 -10.030  0.00  0.00    +0.155 C 
ATOM      7  O   UNL     1       1.155   7.208  -9.894  0.00  0.00    -0.223 OA
ENDROOT
BRANCH   2   8
ATOM      8  C   UNL     1       3.230   6.628  -8.765  0.00  0.00    +0.028 C 
BRANCH   8   9
ATOM      9  C   UNL     1       3.887   5.905  -7.706  0.00  0.00    -0.031 C 
ATOM     10  C   UNL     1       5.132   5.427  -7.734  0.00  0.00    -0.031 C 
BRANCH  10  11
ATOM     11  C   UNL     1       5.707   5.224  -9.064  0.00  0.00    +0.026 C 
BRANCH  11  12
ATOM     12  C   UNL     1       6.924   5.841  -9.377  0.00  0.00    +0.016 C 
BRANCH  12  13
ATOM     13  C   UNL     1       7.981   5.458 -10.223  0.00  0.00    +0.114 C 
BRANCH  13  14
ATOM     14  C   UNL     1       7.811   5.481 -11.657  0.00  0.00    +0.365 C 
ATOM     15  O   UNL     1       7.596   6.738 -12.221  0.00  0.00    -0.246 OA
ATOM     16  O   UNL     1       7.699   4.534 -12.456  0.00  0.00    -0.246 OA
ENDBRANCH  13  14
ENDBRANCH  12  13
ENDBRANCH  11  12
ENDBRANCH  10  11
ENDBRANCH   8   9
ENDBRANCH   2   8
BRANCH   1  17
ATOM     17  C   UNL     1      -0.137   5.482  -8.053  0.00  0.00    +0.010 C 
BRANCH  17  18
ATOM     18  C   UNL     1      -0.157   5.226  -6.760  0.00  0.00    +0.065 C 
BRANCH  18  19
ATOM     19  C   UNL     1      -0.900   6.067  -5.850  0.00  0.00    +0.151 C 
ATOM     20  O   UNL     1      -1.847   5.539  -5.337  0.00  0.00    -0.296 OA
BRANCH  19  21
ATOM     21  C   UNL     1       0.100   6.918  -5.108  0.00  0.00    +0.065 C 
BRANCH  21  22
ATOM     22  C   UNL     1       1.104   5.962  -4.717  0.00  0.00    +0.008 C 
BRANCH  22  23
ATOM     23  C   UNL     1       2.323   5.813  -4.435  0.00  0.00    +0.000 C 
BRANCH  23  24
ATOM     24  C   UNL     1       3.596   5.676  -4.025  0.00  0.00    +0.000 C 
BRANCH  24  25
ATOM     25  C   UNL     1       4.391   6.720  -3.742  0.00  0.00    +0.000 C 
BRANCH  25  27
ATOM     26  C   UNL     1       4.900   7.475  -4.514  0.00  0.00    +0.000 C 
ATOM     27  C   UNL     1       5.105   7.801  -4.109  0.00  0.00    +0.000 C 
ENDBRANCH  25  27
ENDBRANCH  24  25
ENDBRANCH  23  24
ENDBRANCH  22  23
ENDBRANCH  21  22
ENDBRANCH  19  21
ENDBRANCH  18  19
ENDBRANCH  17  18
ENDBRANCH   1  17
TORSDOF 15
ENDMDL
MODEL 7
REMARK VINA RESULT:      -6.4      4.409      7.196
REMARK  Name = 
REMARK  15 active torsions:
REMARK  status: ('A' for Active; 'I' for Inactive)
REMARK    1  A    between atoms: C_2  and  C_3
REMARK    2  A    between atoms: C_3  and  C_4
REMARK    3  A    between atoms: C_4  and  C_5
REMARK    4  A    between atoms: C_5  and  C_6
REMARK    5  A    between atoms: C_6  and  C_7
REMARK    6  A    between atoms: C_7  and  C_8
REMARK    7  A    between atoms: C_8  and  C_10
REMARK    8  A    between atoms: C_10  and  C_11
REMARK    9  A    between atoms: C_11  and  C_12
REMARK   10  A    between atoms: C_18  and  C_19
REMARK   11  A    between atoms: C_19  and  C_20
REMARK   12  A    between atoms: C_21  and  C_22
REMARK   13  A    between atoms: C_22  and  C_23
REMARK   14  A    between atoms: C_23  and  C_24
REMARK   15  A    between atoms: C_24  and  C_25
REMARK                            x       y       z     vdW  Elec       q    Type
REMARK                         _______ _______ _______ _____ _____    ______ ____
ROOT
ATOM      1  C   UNL     1       3.549   6.329  -8.106  0.00  0.00    +0.034 C 
ATOM      2  C   UNL     1       3.057   4.907  -8.707  0.00  0.00    +0.037 C 
ATOM      3  C   UNL     1       4.351   5.169  -9.837  0.00  0.00    +0.155 C 
ATOM      4  O   UNL     1       4.074   6.648 -10.161  0.00  0.00    -0.223 OA
ATOM      5  C   UNL     1       5.602   5.273  -8.710  0.00  0.00    +0.066 C 
ATOM      6  C   UNL     1       4.592   6.030  -9.425  0.00  0.00    +0.155 C 
ATOM      7  O   UNL     1       4.152   4.512  -9.725  0.00  0.00    -0.223 OA
ENDROOT
BRANCH   2   8
ATOM      8  C   UNL     1       1.989   5.622  -9.669  0.00  0.00    +0.028 C 
BRANCH   8   9
ATOM      9  C   UNL     1       1.025   4.691 -10.198  0.00  0.00    -0.031 C 
ATOM     10  C   UNL     1       0.196   4.912 -11.220  0.00  0.00    -0.031 C 
BRANCH  10  11
ATOM     11  C   UNL     1      -0.073   6.316 -11.531  0.00  0.00    +0.026 C 
BRANCH  11  12
ATOM     12  C   UNL     1       0.702   6.953 -12.507  0.00  0.00    +0.016 C 
BRANCH  12  13
ATOM     13  C   UNL     1       1.475   6.448 -13.570  0.00  0.00    +0.114 C 
BRANCH  13  14
ATOM     14  C   UNL     1       0.834   5.903 -14.742  0.00  0.00    +0.365 C 
ATOM     15  O   UNL     1       0.640   4.522 -14.740  0.00  0.00    -0.246 OA
ATOM     16  O   UNL     1       0.541   6.460 -15.816  0.00  0.00    -0.246 OA
ENDBRANCH  13  14
ENDBRANCH  12  13
ENDBRANCH  11  12
ENDBRANCH  10  11
ENDBRANCH   8   9
ENDBRANCH   2   8
BRANCH   1  17
ATOM     17  C   UNL     1       4.566   5.545  -7.118  0.00  0.00    +0.010 C 
BRANCH  17  18
ATOM     18  C   UNL     1       4.121   5.941  -5.942  0.00  0.00    +0.065 C 
BRANCH  18  19
ATOM     19  C   UNL     1       3.764   4.981  -4.922  0.00  0.00    +0.151 C 
ATOM     20  O   UNL     1       4.688   4.551  -4.291  0.00  0.00    -0.296 OA
BRANCH  19  21
ATOM     21  C   UNL     1       2.461   5.437  -4.315  0.00  0.00    +0.065 C 
BRANCH  21  22
ATOM     22  C   UNL     1       1.480   4.866  -5.201  0.00  0.00    +0.008 C 
BRANCH  22  23
ATOM     23  C   UNL     1       0.566   5.133  -6.026  0.00  0.00    +0.000 C 
BRANCH  23  24
ATOM     24  C   UNL     1      -0.384   5.320  -6.960  0.00  0.00    +0.000 C 
BRANCH  24  25
ATOM     25  C   UNL     1      -1.698   5.297  -6.683  0.00  0.00    +0.000 C 
BRANCH  25  27
ATOM     26  C   UNL     1      -2.318   6.052  -5.999  0.00  0.00    +0.000 C 
ATOM     27  C   UNL     1      -2.774   5.728  -5.998  0.00  0.00    +0.000 C 
ENDBRANCH  25  27
ENDBRANCH  24  25
ENDBRANCH  23  24
ENDBRANCH  22  23
ENDBRANCH  21  22
ENDBRANCH  19  21
ENDBRANCH  18  19
ENDBRANCH  17  18
ENDBRANCH   1  17
TORSDOF 15
ENDMDL
MODEL 8
REMARK VINA RESULT:      -6.4      3.420      7.015
REMARK  Name = 
REMARK  15 active torsions:
REMARK  status: ('A' for Active; 'I' for Inactive)
REMARK    1  A    between atoms: C_2  and  C_3
REMARK    2  A    between atoms: C_3  and  C_4
REMARK    3  A    between atoms: C_4  and  C_5
REMARK    4  A    between atoms: C_5  and  C_6
REMARK    5  A    between atoms: C_6  and  C_7
REMARK    6  A    between atoms: C_7  and  C_8
REMARK    7  A    between atoms: C_8  and  C_10
REMARK    8  A    between atoms: C_10  and  C_11
REMARK    9  A    between atoms: C_11  and  C_12
REMARK   10  A    between atoms: C_18  and  C_19
REMARK   11  A    between atoms: C_19  and  C_20
REMARK   12  A    between atoms: C_21  and  C_22
REMARK   13  A    between atoms: C_22  and  C_23
REMARK   14  A    between atoms: C_23  and  C_24
REMARK   15  A    between atoms: C_24  and  C_25
REMARK                            x       y       z     vdW  Elec       q    Type
REMARK                         _______ _______ _______ _____ _____    ______ ____
ROOT
ATOM      1  C   UNL     1       2.662   6.467  -4.721  0.00  0.00    +0.034 C 
ATOM      2  C   UNL     1       2.981   5.037  -5.412  0.00  0.00    +0.037 C 
ATOM      3  C   UNL     1       4.504   5.210  -4.594  0.00  0.00    +0.155 C 
ATOM      4  O   UNL     1       4.785   6.682  -4.945  0.00  0.00    -0.223 OA
ATOM      5  C   UNL     1       3.893   5.324  -3.026  0.00  0.00    +0.066 C 
ATOM      6  C   UNL     1       4.247   6.080  -4.211  0.00  0.00    +0.155 C 
ATOM      7  O   UNL     1       4.296   4.565  -4.750  0.00  0.00    -0.223 OA
ENDROOT
BRANCH   2   8
ATOM      8  C   UNL     1       3.543   5.744  -6.740  0.00  0.00    +0.028 C 
BRANCH   8   9
ATOM      9  C   UNL     1       3.189   5.019  -7.934  0.00  0.00    -0.031 C 
ATOM     10  C   UNL     1       4.038   4.550  -8.850  0.00  0.00    -0.031 C 
BRANCH  10  11
ATOM     11  C   UNL     1       5.351   5.192  -8.890  0.00  0.00    +0.026 C 
BRANCH  11  12
ATOM     12  C   UNL     1       5.626   6.107  -9.914  0.00  0.00    +0.016 C 
BRANCH  12  13
ATOM     13  C   UNL     1       6.691   6.200 -10.830  0.00  0.00    +0.114 C 
BRANCH  13  14
ATOM     14  C   UNL     1       6.775   5.286 -11.944  0.00  0.00    +0.365 C 
ATOM     15  O   UNL     1       5.568   4.998 -12.582  0.00  0.00    -0.246 OA
ATOM     16  O   UNL     1       7.741   4.613 -12.346  0.00  0.00    -0.246 OA
ENDBRANCH  13  14
ENDBRANCH  12  13
ENDBRANCH  11  12
ENDBRANCH  10  11
ENDBRANCH   8   9
ENDBRANCH   2   8
BRANCH   1  17
ATOM     17  C   UNL     1       2.055   5.694  -3.432  0.00  0.00    +0.010 C 
BRANCH  17  18
ATOM     18  C   UNL     1       0.778   6.004  -3.540  0.00  0.00    +0.065 C 
BRANCH  18  19
ATOM     19  C   UNL     1      -0.203   5.423  -2.652  0.00  0.00    +0.151 C 
ATOM     20  O   UNL     1       0.234   4.625  -1.872  0.00  0.00    -0.296 OA
BRANCH  19  21
ATOM     21  C   UNL     1      -1.181   6.513  -2.291  0.00  0.00    +0.065 C 
BRANCH  21  22
ATOM     22  C   UNL     1      -1.841   6.777  -3.544  0.00  0.00    +0.008 C 
BRANCH  22  23
ATOM     23  C   UNL     1      -2.194   6.270  -4.642  0.00  0.00    +0.000 C 
BRANCH  23  24
ATOM     24  C   UNL     1      -2.494   5.797  -5.865  0.00  0.00    +0.000 C 
BRANCH  24  25
ATOM     25  C   UNL     1      -1.578   5.639  -6.833  0.00  0.00    +0.000 C 
BRANCH  25  27
ATOM     26  C   UNL     1      -0.435   5.501  -7.144  0.00  0.00    +0.000 C 
ATOM     27  C   UNL     1      -0.525   5.001  -7.378  0.00  0.00    +0.000 C 
ENDBRANCH  25  27
ENDBRANCH  24  25
ENDBRANCH  23  24
ENDBRANCH  22  23
ENDBRANCH  21  22
ENDBRANCH  19  21
ENDBRANCH  18  19
ENDBRANCH  17  18
ENDBRANCH   1  17
TORSDOF 15
ENDMDL
MODEL 9
REMARK VINA RESULT:      -6.4      1.519      4.557
REMARK  Name = 
REMARK  15 active torsions:
REMARK  status: ('A' for Active; 'I' for Inactive)
REMARK    1  A    between atoms: C_2  and  C_3
REMARK    2  A    between atoms: C_3  and  C_4
REMARK    3  A    between atoms: C_4  and  C_5
REMARK    4  A    between atoms: C_5  and  C_6
REMARK    5  A    between atoms: C_6  and  C_7
REMARK    6  A    between atoms: C_7  and  C_8
REMARK    7  A    between atoms: C_8  and  C_10
REMARK    8  A    between atoms: C_10  and  C_11
REMARK    9  A    between atoms: C_11  and  C_12
REMARK   10  A    between atoms: C_18  and  C_19
REMARK   11  A    between atoms: C_19  and  C_20
REMARK   12  A    between atoms: C_21  and  C_22
REMARK   13  A    between atoms: C_22  and  C_23
REMARK   14  A    between atoms: C_23  and  C_24
REMARK   15  A    between atoms: C_24  and  C_25
REMARK                            x       y       z     vdW  Elec       q    Type
REMARK                         _______ _______ _______ _____ _____    ______ ____
ROOT
ATOM      1  C   UNL     1      -0.695   5.400  -2.387  0.00  0.00    +0.034 C 
ATOM      2  C   UNL     1      -1.404   6.673  -3.096  0.00  0.00    +0.037 C 
ATOM      3  C   UNL     1      -2.623   6.411  -1.886  0.00  0.00    +0.155 C 
ATOM      4  O   UNL     1      -2.743   4.881  -2.011  0.00  0.00    -0.223 OA
ATOM      5  C   UNL     1      -1.626   6.585  -0.536  0.00  0.00    +0.066 C 
ATOM      6  C   UNL     1      -2.141   5.640  -1.507  0.00  0.00    +0.155 C 
ATOM      7  O   UNL     1      -2.569   7.051  -2.151  0.00  0.00    -0.223 OA
ENDROOT
BRANCH   2   8
ATOM      8  C   UNL     1      -2.162   5.731  -4.153  0.00  0.00    +0.028 C 
BRANCH   8   9
ATOM      9  C   UNL     1      -2.321   6.369  -5.434  0.00  0.00    -0.031 C 
ATOM     10  C   UNL     1      -1.877   5.907  -6.604  0.00  0.00    -0.031 C 
BRANCH  10  11
ATOM     11  C   UNL     1      -0.783   4.939  -6.533  0.00  0.00    +0.026 C 
BRANCH  11  12
ATOM     12  C   UNL     1       0.530   5.387  -6.721  0.00  0.00    +0.016 C 
BRANCH  12  13
ATOM     13  C   UNL     1       1.086   6.680  -6.753  0.00  0.00    +0.114 C 
BRANCH  13  14
ATOM     14  C   UNL     1       1.635   7.206  -7.979  0.00  0.00    +0.365 C 
ATOM     15  O   UNL     1       2.210   8.474  -7.891  0.00  0.00    -0.246 OA
ATOM     16  O   UNL     1       1.562   6.756  -9.137  0.00  0.00    -0.246 OA
ENDBRANCH  13  14
ENDBRANCH  12  13
ENDBRANCH  11  12
ENDBRANCH  10  11
ENDBRANCH   8   9
ENDBRANCH   2   8
BRANCH   1  17
ATOM     17  C   UNL     1       0.085   6.409  -1.386  0.00  0.00    +0.010 C 
BRANCH  17  18
ATOM     18  C   UNL     1       1.337   6.160  -1.715  0.00  0.00    +0.065 C 
BRANCH  18  19
ATOM     19  C   UNL     1       2.390   6.232  -0.728  0.00  0.00    +0.151 C 
ATOM     20  O   UNL     1       3.105   5.271  -0.684  0.00  0.00    -0.296 OA
BRANCH  19  21
ATOM     21  C   UNL     1       2.884   7.657  -0.704  0.00  0.00    +0.065 C 
BRANCH  21  22
ATOM     22  C   UNL     1       4.128   7.576  -1.425  0.00  0.00    +0.008 C 
BRANCH  22  23
ATOM     23  C   UNL     1       4.647   7.550  -2.573  0.00  0.00    +0.000 C 
BRANCH  23  24
ATOM     24  C   UNL     1       5.096   7.501  -3.840  0.00  0.00    +0.000 C 
BRANCH  24  25
ATOM     25  C   UNL     1       4.796   6.503  -4.685  0.00  0.00    +0.000 C 
BRANCH  25  27
ATOM     26  C   UNL     1       4.498   5.671  -5.487  0.00  0.00    +0.000 C 
ATOM     27  C   UNL     1       4.468   6.040  -5.907  0.00  0.00    +0.000 C 
ENDBRANCH  25  27
ENDBRANCH  24  25
ENDBRANCH  23  24
ENDBRANCH  22  23
ENDBRANCH  21  22
ENDBRANCH  19  21
ENDBRANCH  18  19
ENDBRANCH  17  18
ENDBRANCH   1  17
TORSDOF 15
ENDMDL
