MODEL 1
REMARK VINA RESULT:      -4.5      0.000      0.000
REMARK  Name = 
REMARK  4 active torsions:
REMARK  status: ('A' for Active; 'I' for Inactive)
REMARK    1  A    between atoms: CD_2  and  CG_4
REMARK    2  A    between atoms: CG_4  and  CB_5
REMARK    3  A    between atoms: CB_5  and  CA_6
REMARK    4  A    between atoms: CA_6  and  C_8
REMARK                            x       y       z     vdW  Elec       q    Type
REMARK                         _______ _______ _______ _____ _____    ______ ____
ROOT
ATOM      1  CB  GLN A   1       6.759   5.935 -10.159  0.00  0.00    +0.040 C 
ENDROOT
BRANCH   1   2
ATOM      2  CA  GLN A   1       5.209   5.577 -10.624  0.00  0.00    +0.195 C 
ATOM      3  N   GLN A   1       4.747   7.087 -10.445  0.00  0.00    -0.121 NA
BRANCH   2   4
ATOM      4  C   GLN A   1       4.763   5.168  -9.119  0.00  0.00    +0.382 C 
ATOM      5  OXT GLN A   1       3.819   4.143  -9.175  0.00  0.00    -0.244 OA
ATOM      6  O   GLN A   1       5.649   5.100  -8.269  0.00  0.00    -0.244 OA
ENDBRANCH   2   4
ENDBRANCH   1   2
BRANCH   1   7
ATOM      7  CG  GLN A   1       7.274   6.555 -11.435  0.00  0.00    +0.091 C 
BRANCH   7   9
ATOM      8  NE2 GLN A   1       7.729   4.738 -12.985  0.00  0.00    -0.088 NA
ATOM      9  CD  GLN A   1       8.226   5.619 -12.077  0.00  0.00    +0.261 C 
ATOM     10  OE1 GLN A   1       9.465   5.875 -12.138  0.00  0.00    -0.272 OA
ENDBRANCH   7   9
ENDBRANCH   1   7
TORSDOF 4
ENDMDL
MODEL 2
REMARK VINA RESULT:      -4.3      1.471      4.293
REMARK  Name = 
REMARK  4 active torsions:
REMARK  status: ('A' for Active; 'I' for Inactive)
REMARK    1  A    between atoms: CD_2  and  CG_4
REMARK    2  A    between atoms: CG_4  and  CB_5
REMARK    3  A    between atoms: CB_5  and  CA_6
REMARK    4  A    between atoms: CA_6  and  C_8
REMARK                            x       y       z     vdW  Elec       q    Type
REMARK                         _______ _______ _______ _____ _____    ______ ____
ROOT
ATOM      1  CB  GLN A   1       6.792   5.897 -10.056  0.00  0.00    +0.040 C 
ENDROOT
BRANCH   1   2
ATOM      2  CA  GLN A   1       7.165   6.633 -11.493  0.00  0.00    +0.195 C 
ATOM      3  N   GLN A   1       5.994   5.873 -12.251  0.00  0.00    -0.121 NA
BRANCH   2   4
ATOM      4  C   GLN A   1       8.268   5.508 -11.879  0.00  0.00    +0.382 C 
ATOM      5  OXT GLN A   1       7.692   4.563 -12.729  0.00  0.00    -0.244 OA
ATOM      6  O   GLN A   1       9.408   5.897 -12.126  0.00  0.00    -0.244 OA
ENDBRANCH   2   4
ENDBRANCH   1   2
BRANCH   1   7
ATOM      7  CG  GLN A   1       5.287   5.998 -10.098  0.00  0.00    +0.091 C 
BRANCH   7   9
ATOM      8  NE2 GLN A   1       3.905   4.241  -9.138  0.00  0.00    -0.088 NA
ATOM      9  CD  GLN A   1       4.723   5.304  -8.916  0.00  0.00    +0.261 C 
ATOM     10  OE1 GLN A   1       5.278   5.380  -7.779  0.00  0.00    -0.272 OA
ENDBRANCH   7   9
ENDBRANCH   1   7
TORSDOF 4
ENDMDL
MODEL 3
REMARK VINA RESULT:      -4.2      9.483     10.710
REMARK  Name = 
REMARK  4 active torsions:
REMARK  status: ('A' for Active; 'I' for Inactive)
REMARK    1  A    between atoms: CD_2  and  CG_4
REMARK    2  A    between atoms: CG_4  and  CB_5
REMARK    3  A    between atoms: CB_5  and  CA_6
REMARK    4  A    between atoms: CA_6  and  C_8
REMARK                            x       y       z     vdW  Elec       q    Type
REMARK                         _______ _______ _______ _____ _____    ______ ____
ROOT
ATOM      1  CB  GLN A   1      -0.725   5.584  -4.045  0.00  0.00    +0.040 C 
ENDROOT
BRANCH   1   2
ATOM      2  CA  GLN A   1      -1.149   6.406  -2.669  0.00  0.00    +0.195 C 
ATOM      3  N   GLN A   1      -0.823   5.151  -1.752  0.00  0.00    -0.121 NA
BRANCH   2   4
ATOM      4  C   GLN A   1      -2.714   6.008  -2.815  0.00  0.00    +0.382 C 
ATOM      5  OXT GLN A   1      -2.855   4.624  -2.708  0.00  0.00    -0.244 OA
ATOM      6  O   GLN A   1      -3.533   6.724  -2.241  0.00  0.00    -0.244 OA
ENDBRANCH   2   4
ENDBRANCH   1   2
BRANCH   1   7
ATOM      7  CG  GLN A   1      -1.187   6.571  -5.088  0.00  0.00    +0.091 C 
BRANCH   7   9
ATOM      8  NE2 GLN A   1      -0.710   5.415  -7.174  0.00  0.00    -0.088 NA
ATOM      9  CD  GLN A   1      -1.650   5.829  -6.284  0.00  0.00    +0.261 C 
ATOM     10  OE1 GLN A   1      -2.763   5.223  -6.296  0.00  0.00    -0.272 OA
ENDBRANCH   7   9
ENDBRANCH   1   7
TORSDOF 4
ENDMDL
MODEL 4
REMARK VINA RESULT:      -4.1      2.008      4.467
REMARK  Name = 
REMARK  4 active torsions:
REMARK  status: ('A' for Active; 'I' for Inactive)
REMARK    1  A    between atoms: CD_2  and  CG_4
REMARK    2  A    between atoms: CG_4  and  CB_5
REMARK    3  A    between atoms: CB_5  and  CA_6
REMARK    4  A    between atoms: CA_6  and  C_8
REMARK                            x       y       z     vdW  Elec       q    Type
REMARK                         _______ _______ _______ _____ _____    ______ ____
ROOT
ATOM      1  CB  GLN A   1       5.242   6.164 -10.734  0.00  0.00    +0.040 C 
ENDROOT
BRANCH   1   2
ATOM      2  CA  GLN A   1       6.855   5.811 -10.877  0.00  0.00    +0.195 C 
ATOM      3  N   GLN A   1       7.205   7.309 -11.272  0.00  0.00    -0.121 NA
BRANCH   2   4
ATOM      4  C   GLN A   1       6.700   5.344 -12.422  0.00  0.00    +0.382 C 
ATOM      5  OXT GLN A   1       7.818   4.600 -12.799  0.00  0.00    -0.244 OA
ATOM      6  O   GLN A   1       5.591   4.955 -12.784  0.00  0.00    -0.244 OA
ENDBRANCH   2   4
ENDBRANCH   1   2
BRANCH   1   7
ATOM      7  CG  GLN A   1       4.974   5.596  -9.361  0.00  0.00    +0.091 C 
BRANCH   7   9
ATOM      8  NE2 GLN A   1       2.737   5.351 -10.284  0.00  0.00    -0.088 NA
ATOM      9  CD  GLN A   1       3.647   4.938  -9.362  0.00  0.00    +0.261 C 
ATOM     10  OE1 GLN A   1       3.480   3.786  -8.862  0.00  0.00    -0.272 OA
ENDBRANCH   7   9
ENDBRANCH   1   7
TORSDOF 4
ENDMDL
MODEL 5
REMARK VINA RESULT:      -4.1      8.863     10.972
REMARK  Name = 
REMARK  4 active torsions:
REMARK  status: ('A' for Active; 'I' for Inactive)
REMARK    1  A    between atoms: CD_2  and  CG_4
REMARK    2  A    between atoms: CG_4  and  CB_5
REMARK    3  A    between atoms: CB_5  and  CA_6
REMARK    4  A    between atoms: CA_6  and  C_8
REMARK                            x       y       z     vdW  Elec       q    Type
REMARK                         _______ _______ _______ _____ _____    ______ ____
ROOT
ATOM      1  CB  GLN A   1      -1.621   7.318  -4.100  0.00  0.00    +0.040 C 
ENDROOT
BRANCH   1   2
ATOM      2  CA  GLN A   1      -0.406   7.007  -5.184  0.00  0.00    +0.195 C 
ATOM      3  N   GLN A   1      -1.298   5.951  -5.966  0.00  0.00    -0.121 NA
BRANCH   2   4
ATOM      4  C   GLN A   1       0.263   5.875  -4.235  0.00  0.00    +0.382 C 
ATOM      5  OXT GLN A   1       0.783   4.851  -5.027  0.00  0.00    -0.244 OA
ATOM      6  O   GLN A   1       0.927   6.264  -3.276  0.00  0.00    -0.244 OA
ENDBRANCH   2   4
ENDBRANCH   1   2
BRANCH   1   7
ATOM      7  CG  GLN A   1      -2.507   6.124  -4.358  0.00  0.00    +0.091 C 
BRANCH   7   9
ATOM      8  NE2 GLN A   1      -2.647   4.837  -2.299  0.00  0.00    -0.088 NA
ATOM      9  CD  GLN A   1      -3.217   5.770  -3.106  0.00  0.00    +0.261 C 
ATOM     10  OE1 GLN A   1      -4.055   6.559  -2.576  0.00  0.00    -0.272 OA
ENDBRANCH   7   9
ENDBRANCH   1   7
TORSDOF 4
ENDMDL
MODEL 6
REMARK VINA RESULT:      -4.1      7.691      9.424
REMARK  Name = 
REMARK  4 active torsions:
REMARK  status: ('A' for Active; 'I' for Inactive)
REMARK    1  A    between atoms: CD_2  and  CG_4
REMARK    2  A    between atoms: CG_4  and  CB_5
REMARK    3  A    between atoms: CB_5  and  CA_6
REMARK    4  A    between atoms: CA_6  and  C_8
REMARK                            x       y       z     vdW  Elec       q    Type
REMARK                         _______ _______ _______ _____ _____    ______ ____
ROOT
ATOM      1  CB  GLN A   1      -0.252   6.601  -4.408  0.00  0.00    +0.040 C 
ENDROOT
BRANCH   1   2
ATOM      2  CA  GLN A   1      -1.682   5.766  -4.493  0.00  0.00    +0.195 C 
ATOM      3  N   GLN A   1      -2.532   7.090  -4.273  0.00  0.00    -0.121 NA
BRANCH   2   4
ATOM      4  C   GLN A   1      -1.662   5.407  -2.912  0.00  0.00    +0.382 C 
ATOM      5  OXT GLN A   1      -2.827   4.719  -2.575  0.00  0.00    -0.244 OA
ATOM      6  O   GLN A   1      -0.597   5.020  -2.435  0.00  0.00    -0.244 OA
ENDBRANCH   2   4
ENDBRANCH   1   2
BRANCH   1   7
ATOM      7  CG  GLN A   1       0.360   6.199  -5.727  0.00  0.00    +0.091 C 
BRANCH   7   9
ATOM      8  NE2 GLN A   1       2.210   5.220  -4.489  0.00  0.00    -0.088 NA
ATOM      9  CD  GLN A   1       1.311   5.085  -5.499  0.00  0.00    +0.261 C 
ATOM     10  OE1 GLN A   1       1.057   3.908  -5.894  0.00  0.00    -0.272 OA
ENDBRANCH   7   9
ENDBRANCH   1   7
TORSDOF 4
ENDMDL
MODEL 7
REMARK VINA RESULT:      -4.0      9.627     10.596
REMARK  Name = 
REMARK  4 active torsions:
REMARK  status: ('A' for Active; 'I' for Inactive)
REMARK    1  A    between atoms: CD_2  and  CG_4
REMARK    2  A    between atoms: CG_4  and  CB_5
REMARK    3  A    between atoms: CB_5  and  CA_6
REMARK    4  A    between atoms: CA_6  and  C_8
REMARK                            x       y       z     vdW  Elec       q    Type
REMARK                         _______ _______ _______ _____ _____    ______ ____
ROOT
ATOM      1  CB  GLN A   1      -0.670   6.592  -4.057  0.00  0.00    +0.040 C 
ENDROOT
BRANCH   1   2
ATOM      2  CA  GLN A   1      -1.991   5.836  -4.712  0.00  0.00    +0.195 C 
ATOM      3  N   GLN A   1      -2.570   7.208  -5.266  0.00  0.00    -0.121 NA
BRANCH   2   4
ATOM      4  C   GLN A   1      -2.835   5.934  -3.330  0.00  0.00    +0.382 C 
ATOM      5  OXT GLN A   1      -2.924   4.669  -2.748  0.00  0.00    -0.244 OA
ATOM      6  O   GLN A   1      -2.611   6.898  -2.600  0.00  0.00    -0.244 OA
ENDBRANCH   2   4
ENDBRANCH   1   2
BRANCH   1   7
ATOM      7  CG  GLN A   1       0.281   5.423  -3.972  0.00  0.00    +0.091 C 
BRANCH   7   9
ATOM      8  NE2 GLN A   1       0.281   4.673  -1.658  0.00  0.00    -0.088 NA
ATOM      9  CD  GLN A   1       0.900   5.401  -2.626  0.00  0.00    +0.261 C 
ATOM     10  OE1 GLN A   1       2.130   5.655  -2.460  0.00  0.00    -0.272 OA
ENDBRANCH   7   9
ENDBRANCH   1   7
TORSDOF 4
ENDMDL
MODEL 8
REMARK VINA RESULT:      -4.0      2.063      4.481
REMARK  Name = 
REMARK  4 active torsions:
REMARK  status: ('A' for Active; 'I' for Inactive)
REMARK    1  A    between atoms: CD_2  and  CG_4
REMARK    2  A    between atoms: CG_4  and  CB_5
REMARK    3  A    between atoms: CB_5  and  CA_6
REMARK    4  A    between atoms: CA_6  and  C_8
REMARK                            x       y       z     vdW  Elec       q    Type
REMARK                         _______ _______ _______ _____ _____    ______ ____
ROOT
ATOM      1  CB  GLN A   1       5.823   5.857 -10.601  0.00  0.00    +0.040 C 
ENDROOT
BRANCH   1   2
ATOM      2  CA  GLN A   1       6.224   6.316 -12.142  0.00  0.00    +0.195 C 
ATOM      3  N   GLN A   1       5.464   5.070 -12.771  0.00  0.00    -0.121 NA
BRANCH   2   4
ATOM      4  C   GLN A   1       7.646   5.539 -12.093  0.00  0.00    +0.382 C 
ATOM      5  OXT GLN A   1       8.029   5.352 -10.765  0.00  0.00    -0.244 OA
ATOM      6  O   GLN A   1       7.809   4.611 -12.883  0.00  0.00    -0.244 OA
ENDBRANCH   2   4
ENDBRANCH   1   2
BRANCH   1   7
ATOM      7  CG  GLN A   1       4.631   6.753 -10.367  0.00  0.00    +0.091 C 
BRANCH   7   9
ATOM      8  NE2 GLN A   1       3.805   4.669  -9.421  0.00  0.00    -0.088 NA
ATOM      9  CD  GLN A   1       3.528   5.947  -9.793  0.00  0.00    +0.261 C 
ATOM     10  OE1 GLN A   1       2.515   6.496  -9.264  0.00  0.00    -0.272 OA
ENDBRANCH   7   9
ENDBRANCH   1   7
TORSDOF 4
ENDMDL
MODEL 9
REMARK VINA RESULT:      -3.9      8.315     10.191
REMARK  Name = 
REMARK  4 active torsions:
REMARK  status: ('A' for Active; 'I' for Inactive)
REMARK    1  A    between atoms: CD_2  and  CG_4
REMARK    2  A    between atoms: CG_4  and  CB_5
REMARK    3  A    between atoms: CB_5  and  CA_6
REMARK    4  A    between atoms: CA_6  and  C_8
REMARK                            x       y       z     vdW  Elec       q    Type
REMARK                         _______ _______ _______ _____ _____    ______ ____
ROOT
ATOM      1  CB  GLN A   1      -0.789   5.775  -3.722  0.00  0.00    +0.040 C 
ENDROOT
BRANCH   1   2
ATOM      2  CA  GLN A   1      -1.034   6.288  -2.165  0.00  0.00    +0.195 C 
ATOM      3  N   GLN A   1      -0.393   4.963  -1.569  0.00  0.00    -0.121 NA
BRANCH   2   4
ATOM      4  C   GLN A   1      -2.541   5.689  -2.118  0.00  0.00    +0.382 C 
ATOM      5  OXT GLN A   1      -3.461   6.730  -2.243  0.00  0.00    -0.244 OA
ATOM      6  O   GLN A   1      -2.752   4.646  -2.734  0.00  0.00    -0.244 OA
ENDBRANCH   2   4
ENDBRANCH   1   2
BRANCH   1   7
ATOM      7  CG  GLN A   1       0.652   5.336  -3.625  0.00  0.00    +0.091 C 
BRANCH   7   9
ATOM      8  NE2 GLN A   1       0.700   4.476  -5.900  0.00  0.00    -0.088 NA
ATOM      9  CD  GLN A   1       1.244   5.320  -4.983  0.00  0.00    +0.261 C 
ATOM     10  OE1 GLN A   1       1.908   6.304  -5.426  0.00  0.00    -0.272 OA
ENDBRANCH   7   9
ENDBRANCH   1   7
TORSDOF 4
ENDMDL
