MODEL 1
REMARK VINA RESULT:      -6.6      0.000      0.000
REMARK  Name = 
REMARK  4 active torsions:
REMARK  status: ('A' for Active; 'I' for Inactive)
REMARK    1  A    between atoms: O_2  and  C_3
REMARK    2  A    between atoms: C_3  and  C_5
REMARK    3  A    between atoms: C_5  and  C_6
REMARK    4  A    between atoms: C_5  and  C_12
REMARK                            x       y       z     vdW  Elec       q    Type
REMARK                         _______ _______ _______ _____ _____    ______ ____
ROOT
ATOM      1  C   UNL     1       4.141   5.130  -9.845  0.00  0.00    +0.137 C 
ENDROOT
BRANCH   1   2
ATOM      2  C   UNL     1       4.950   6.413 -10.703  0.00  0.00    +0.087 C 
ATOM      3  N   UNL     1       5.396   5.416 -11.844  0.00  0.00    -0.219 NA
ATOM      4  C   UNL     1       6.374   6.118 -12.630  0.00  0.00    +0.089 C 
ATOM      5  C   UNL     1       7.686   6.043 -11.859  0.00  0.00    +0.019 C 
ATOM      6  C   UNL     1       7.432   6.823 -10.574  0.00  0.00    +0.003 C 
ATOM      7  C   UNL     1       6.326   6.147  -9.837  0.00  0.00    +0.018 C 
ENDBRANCH   1   2
BRANCH   1   8
ATOM      8  C   UNL     1       3.831   6.085  -8.584  0.00  0.00    -0.011 A 
ATOM      9  C   UNL     1       4.292   5.515  -7.425  0.00  0.00    -0.004 A 
ATOM     10  C   UNL     1       3.837   6.043  -6.234  0.00  0.00    -0.000 A 
ATOM     11  C   UNL     1       2.803   6.967  -6.215  0.00  0.00    -0.000 A 
ATOM     12  C   UNL     1       2.515   7.578  -7.405  0.00  0.00    -0.000 A 
ATOM     13  C   UNL     1       2.987   7.100  -8.627  0.00  0.00    -0.004 A 
ENDBRANCH   1   8
BRANCH   1  14
ATOM     14  C   UNL     1       2.712   5.365 -10.568  0.00  0.00    +0.322 C 
ATOM     15  O   UNL     1       2.696   5.812 -11.704  0.00  0.00    -0.250 OA
BRANCH  14  17
ATOM     16  C   UNL     1       0.451   4.649 -10.520  0.00  0.00    +0.256 C 
ATOM     17  O   UNL     1       1.725   4.650  -9.927  0.00  0.00    -0.444 OA
ENDBRANCH  14  17
ENDBRANCH   1  14
TORSDOF 4
ENDMDL
MODEL 2
REMARK VINA RESULT:      -6.5      3.650      6.374
REMARK  Name = 
REMARK  4 active torsions:
REMARK  status: ('A' for Active; 'I' for Inactive)
REMARK    1  A    between atoms: O_2  and  C_3
REMARK    2  A    between atoms: C_3  and  C_5
REMARK    3  A    between atoms: C_5  and  C_6
REMARK    4  A    between atoms: C_5  and  C_12
REMARK                            x       y       z     vdW  Elec       q    Type
REMARK                         _______ _______ _______ _____ _____    ______ ____
ROOT
ATOM      1  C   UNL     1       1.640   5.869  -6.658  0.00  0.00    +0.137 C 
ENDROOT
BRANCH   1   2
ATOM      2  C   UNL     1       0.343   5.417  -5.587  0.00  0.00    +0.087 C 
ATOM      3  N   UNL     1      -0.682   5.379  -6.789  0.00  0.00    -0.219 NA
ATOM      4  C   UNL     1      -1.991   5.303  -6.197  0.00  0.00    +0.089 C 
ATOM      5  C   UNL     1      -2.350   6.716  -5.754  0.00  0.00    +0.019 C 
ATOM      6  C   UNL     1      -1.336   7.056  -4.667  0.00  0.00    +0.003 C 
ATOM      7  C   UNL     1       0.025   7.004  -5.276  0.00  0.00    +0.018 C 
ENDBRANCH   1   2
BRANCH   1   8
ATOM      8  C   UNL     1       2.693   5.967  -5.441  0.00  0.00    -0.011 A 
ATOM      9  C   UNL     1       3.417   7.128  -5.525  0.00  0.00    -0.004 A 
ATOM     10  C   UNL     1       4.559   7.220  -4.755  0.00  0.00    -0.000 A 
ATOM     11  C   UNL     1       5.061   6.110  -4.091  0.00  0.00    -0.000 A 
ATOM     12  C   UNL     1       4.204   5.054  -3.945  0.00  0.00    -0.000 A 
ATOM     13  C   UNL     1       3.020   4.942  -4.674  0.00  0.00    -0.004 A 
ENDBRANCH   1   8
BRANCH   1  14
ATOM     14  C   UNL     1       2.017   4.347  -7.062  0.00  0.00    +0.322 C 
ATOM     15  O   UNL     1       1.751   3.450  -6.279  0.00  0.00    -0.250 OA
BRANCH  14  17
ATOM     16  C   UNL     1       3.566   4.114  -8.843  0.00  0.00    +0.256 C 
ATOM     17  O   UNL     1       2.233   4.249  -8.418  0.00  0.00    -0.444 OA
ENDBRANCH  14  17
ENDBRANCH   1  14
TORSDOF 4
ENDMDL
MODEL 3
REMARK VINA RESULT:      -6.5      4.162      7.019
REMARK  Name = 
REMARK  4 active torsions:
REMARK  status: ('A' for Active; 'I' for Inactive)
REMARK    1  A    between atoms: O_2  and  C_3
REMARK    2  A    between atoms: C_3  and  C_5
REMARK    3  A    between atoms: C_5  and  C_6
REMARK    4  A    between atoms: C_5  and  C_12
REMARK                            x       y       z     vdW  Elec       q    Type
REMARK                         _______ _______ _______ _____ _____    ______ ____
ROOT
ATOM      1  C   UNL     1       1.488   4.552  -5.655  0.00  0.00    +0.137 C 
ENDROOT
BRANCH   1   2
ATOM      2  C   UNL     1       0.409   5.919  -5.648  0.00  0.00    +0.087 C 
ATOM      3  N   UNL     1      -0.305   5.393  -4.341  0.00  0.00    -0.219 NA
ATOM      4  C   UNL     1      -1.501   6.178  -4.192  0.00  0.00    +0.089 C 
ATOM      5  C   UNL     1      -2.527   5.595  -5.156  0.00  0.00    +0.019 C 
ATOM      6  C   UNL     1      -1.945   5.837  -6.544  0.00  0.00    +0.003 C 
ATOM      7  C   UNL     1      -0.643   5.115  -6.629  0.00  0.00    +0.018 C 
ENDBRANCH   1   2
BRANCH   1   8
ATOM      8  C   UNL     1       2.180   5.027  -7.031  0.00  0.00    -0.011 A 
ATOM      9  C   UNL     1       2.464   3.946  -7.824  0.00  0.00    -0.004 A 
ATOM     10  C   UNL     1       3.329   4.145  -8.881  0.00  0.00    -0.000 A 
ATOM     11  C   UNL     1       4.037   5.330  -9.008  0.00  0.00    -0.000 A 
ATOM     12  C   UNL     1       3.583   6.388  -8.269  0.00  0.00    -0.000 A 
ATOM     13  C   UNL     1       2.679   6.236  -7.219  0.00  0.00    -0.004 A 
ENDBRANCH   1   8
BRANCH   1  14
ATOM     14  C   UNL     1       2.586   5.243  -4.687  0.00  0.00    +0.322 C 
ATOM     15  O   UNL     1       2.233   6.155  -3.957  0.00  0.00    -0.250 OA
BRANCH  14  17
ATOM     16  C   UNL     1       4.882   5.035  -4.126  0.00  0.00    +0.256 C 
ATOM     17  O   UNL     1       3.687   4.427  -4.548  0.00  0.00    -0.444 OA
ENDBRANCH  14  17
ENDBRANCH   1  14
TORSDOF 4
ENDMDL
MODEL 4
REMARK VINA RESULT:      -6.5      3.266      4.989
REMARK  Name = 
REMARK  4 active torsions:
REMARK  status: ('A' for Active; 'I' for Inactive)
REMARK    1  A    between atoms: O_2  and  C_3
REMARK    2  A    between atoms: C_3  and  C_5
REMARK    3  A    between atoms: C_5  and  C_6
REMARK    4  A    between atoms: C_5  and  C_12
REMARK                            x       y       z     vdW  Elec       q    Type
REMARK                         _______ _______ _______ _____ _____    ______ ____
ROOT
ATOM      1  C   UNL     1       1.908   6.053  -6.442  0.00  0.00    +0.137 C 
ENDROOT
BRANCH   1   2
ATOM      2  C   UNL     1       1.861   5.234  -7.979  0.00  0.00    +0.087 C 
ATOM      3  N   UNL     1       3.417   4.967  -7.924  0.00  0.00    -0.219 NA
ATOM      4  C   UNL     1       3.795   4.524  -9.238  0.00  0.00    +0.089 C 
ATOM      5  C   UNL     1       3.898   5.773 -10.105  0.00  0.00    +0.019 C 
ATOM      6  C   UNL     1       2.481   6.332 -10.160  0.00  0.00    +0.003 C 
ATOM      7  C   UNL     1       2.064   6.666  -8.768  0.00  0.00    +0.018 C 
ENDBRANCH   1   2
BRANCH   1   8
ATOM      8  C   UNL     1       0.304   6.215  -6.409  0.00  0.00    -0.011 A 
ATOM      9  C   UNL     1      -0.076   7.028  -5.373  0.00  0.00    -0.004 A 
ATOM     10  C   UNL     1      -1.409   7.018  -5.016  0.00  0.00    -0.000 A 
ATOM     11  C   UNL     1      -2.279   6.076  -5.542  0.00  0.00    -0.000 A 
ATOM     12  C   UNL     1      -1.852   5.416  -6.662  0.00  0.00    -0.000 A 
ATOM     13  C   UNL     1      -0.522   5.433  -7.081  0.00  0.00    -0.004 A 
ENDBRANCH   1   8
BRANCH   1  14
ATOM     14  C   UNL     1       1.941   4.694  -5.565  0.00  0.00    +0.322 C 
ATOM     15  O   UNL     1       1.319   3.723  -5.965  0.00  0.00    -0.250 OA
BRANCH  14  17
ATOM     16  C   UNL     1       3.529   5.975  -4.355  0.00  0.00    +0.256 C 
ATOM     17  O   UNL     1       2.998   4.716  -4.683  0.00  0.00    -0.444 OA
ENDBRANCH  14  17
ENDBRANCH   1  14
TORSDOF 4
ENDMDL
MODEL 5
REMARK VINA RESULT:      -6.4      4.617      7.747
REMARK  Name = 
REMARK  4 active torsions:
REMARK  status: ('A' for Active; 'I' for Inactive)
REMARK    1  A    between atoms: O_2  and  C_3
REMARK    2  A    between atoms: C_3  and  C_5
REMARK    3  A    between atoms: C_5  and  C_6
REMARK    4  A    between atoms: C_5  and  C_12
REMARK                            x       y       z     vdW  Elec       q    Type
REMARK                         _______ _______ _______ _____ _____    ______ ____
ROOT
ATOM      1  C   UNL     1       0.476   5.306  -5.299  0.00  0.00    +0.137 C 
ENDROOT
BRANCH   1   2
ATOM      2  C   UNL     1      -0.251   6.682  -4.516  0.00  0.00    +0.087 C 
ATOM      3  N   UNL     1      -0.767   5.777  -3.328  0.00  0.00    -0.219 NA
ATOM      4  C   UNL     1      -1.701   6.581  -2.587  0.00  0.00    +0.089 C 
ATOM      5  C   UNL     1      -3.011   6.551  -3.364  0.00  0.00    +0.019 C 
ATOM      6  C   UNL     1      -2.701   7.245  -4.686  0.00  0.00    +0.003 C 
ATOM      7  C   UNL     1      -1.638   6.461  -5.378  0.00  0.00    +0.018 C 
ENDBRANCH   1   2
BRANCH   1   8
ATOM      8  C   UNL     1       0.806   6.159  -6.627  0.00  0.00    -0.011 A 
ATOM      9  C   UNL     1       0.365   5.497  -7.744  0.00  0.00    -0.004 A 
ATOM     10  C   UNL     1       0.839   5.930  -8.965  0.00  0.00    -0.000 A 
ATOM     11  C   UNL     1       1.872   6.852  -9.041  0.00  0.00    -0.000 A 
ATOM     12  C   UNL     1       2.140   7.556  -7.899  0.00  0.00    -0.000 A 
ATOM     13  C   UNL     1       1.648   7.176  -6.651  0.00  0.00    -0.004 A 
ENDBRANCH   1   8
BRANCH   1  14
ATOM     14  C   UNL     1       1.929   5.517  -4.618  0.00  0.00    +0.322 C 
ATOM     15  O   UNL     1       2.001   6.132  -3.566  0.00  0.00    -0.250 OA
BRANCH  14  17
ATOM     16  C   UNL     1       4.116   4.600  -4.553  0.00  0.00    +0.256 C 
ATOM     17  O   UNL     1       2.839   4.624  -5.138  0.00  0.00    -0.444 OA
ENDBRANCH  14  17
ENDBRANCH   1  14
TORSDOF 4
ENDMDL
MODEL 6
REMARK VINA RESULT:      -6.4      3.715      5.510
REMARK  Name = 
REMARK  4 active torsions:
REMARK  status: ('A' for Active; 'I' for Inactive)
REMARK    1  A    between atoms: O_2  and  C_3
REMARK    2  A    between atoms: C_3  and  C_5
REMARK    3  A    between atoms: C_5  and  C_6
REMARK    4  A    between atoms: C_5  and  C_12
REMARK                            x       y       z     vdW  Elec       q    Type
REMARK                         _______ _______ _______ _____ _____    ______ ____
ROOT
ATOM      1  C   UNL     1       1.393   5.714  -6.831  0.00  0.00    +0.137 C 
ENDROOT
BRANCH   1   2
ATOM      2  C   UNL     1       2.375   6.467  -5.605  0.00  0.00    +0.087 C 
ATOM      3  N   UNL     1       3.699   5.996  -6.328  0.00  0.00    -0.219 NA
ATOM      4  C   UNL     1       4.768   6.220  -5.392  0.00  0.00    +0.089 C 
ATOM      5  C   UNL     1       4.730   5.061  -4.403  0.00  0.00    +0.019 C 
ATOM      6  C   UNL     1       3.398   5.209  -3.676  0.00  0.00    +0.003 C 
ATOM      7  C   UNL     1       2.308   5.100  -4.688  0.00  0.00    +0.018 C 
ENDBRANCH   1   2
BRANCH   1   8
ATOM      8  C   UNL     1       0.031   6.069  -6.045  0.00  0.00    -0.011 A 
ATOM      9  C   UNL     1      -1.014   5.331  -6.536  0.00  0.00    -0.004 A 
ATOM     10  C   UNL     1      -2.290   5.732  -6.196  0.00  0.00    -0.000 A 
ATOM     11  C   UNL     1      -2.508   6.946  -5.562  0.00  0.00    -0.000 A 
ATOM     12  C   UNL     1      -1.415   7.533  -4.986  0.00  0.00    -0.000 A 
ATOM     13  C   UNL     1      -0.110   7.132  -5.272  0.00  0.00    -0.004 A 
ENDBRANCH   1   8
BRANCH   1  14
ATOM     14  C   UNL     1       1.357   7.015  -7.792  0.00  0.00    +0.322 C 
ATOM     15  O   UNL     1       1.849   8.057  -7.388  0.00  0.00    -0.250 OA
BRANCH  14  17
ATOM     16  C   UNL     1       1.406   5.312  -9.443  0.00  0.00    +0.256 C 
ATOM     17  O   UNL     1       1.119   6.644  -9.097  0.00  0.00    -0.444 OA
ENDBRANCH  14  17
ENDBRANCH   1  14
TORSDOF 4
ENDMDL
MODEL 7
REMARK VINA RESULT:      -6.4      1.607      3.451
REMARK  Name = 
REMARK  4 active torsions:
REMARK  status: ('A' for Active; 'I' for Inactive)
REMARK    1  A    between atoms: O_2  and  C_3
REMARK    2  A    between atoms: C_3  and  C_5
REMARK    3  A    between atoms: C_5  and  C_6
REMARK    4  A    between atoms: C_5  and  C_12
REMARK                            x       y       z     vdW  Elec       q    Type
REMARK                         _______ _______ _______ _____ _____    ______ ____
ROOT
ATOM      1  C   UNL     1       3.694   6.445  -9.077  0.00  0.00    +0.137 C 
ENDROOT
BRANCH   1   2
ATOM      2  C   UNL     1       4.822   5.866 -10.271  0.00  0.00    +0.087 C 
ATOM      3  N   UNL     1       5.993   5.855  -9.211  0.00  0.00    -0.219 NA
ATOM      4  C   UNL     1       7.209   5.680  -9.958  0.00  0.00    +0.089 C 
ATOM      5  C   UNL     1       7.561   7.043 -10.541  0.00  0.00    +0.019 C 
ATOM      6  C   UNL     1       6.428   7.362 -11.509  0.00  0.00    +0.003 C 
ATOM      7  C   UNL     1       5.158   7.412 -10.729  0.00  0.00    +0.018 C 
ENDBRANCH   1   2
BRANCH   1   8
ATOM      8  C   UNL     1       2.455   6.328 -10.101  0.00  0.00    -0.011 A 
ATOM      9  C   UNL     1       1.273   6.588  -9.456  0.00  0.00    -0.004 A 
ATOM     10  C   UNL     1       0.107   6.228 -10.101  0.00  0.00    -0.000 A 
ATOM     11  C   UNL     1       0.140   5.452 -11.250  0.00  0.00    -0.000 A 
ATOM     12  C   UNL     1       1.345   5.371 -11.892  0.00  0.00    -0.000 A 
ATOM     13  C   UNL     1       2.542   5.761 -11.291  0.00  0.00    -0.004 A 
ENDBRANCH   1   8
BRANCH   1  14
ATOM     14  C   UNL     1       3.465   4.996  -8.394  0.00  0.00    +0.322 C 
ATOM     15  O   UNL     1       3.585   3.996  -9.085  0.00  0.00    -0.250 OA
BRANCH  14  17
ATOM     16  C   UNL     1       3.585   6.384  -6.475  0.00  0.00    +0.256 C 
ATOM     17  O   UNL     1       3.550   5.091  -7.023  0.00  0.00    -0.444 OA
ENDBRANCH  14  17
ENDBRANCH   1  14
TORSDOF 4
ENDMDL
MODEL 8
REMARK VINA RESULT:      -6.3      3.210      6.386
REMARK  Name = 
REMARK  4 active torsions:
REMARK  status: ('A' for Active; 'I' for Inactive)
REMARK    1  A    between atoms: O_2  and  C_3
REMARK    2  A    between atoms: C_3  and  C_5
REMARK    3  A    between atoms: C_5  and  C_6
REMARK    4  A    between atoms: C_5  and  C_12
REMARK                            x       y       z     vdW  Elec       q    Type
REMARK                         _______ _______ _______ _____ _____    ______ ____
ROOT
ATOM      1  C   UNL     1       1.530   5.815  -8.100  0.00  0.00    +0.137 C 
ENDROOT
BRANCH   1   2
ATOM      2  C   UNL     1       0.264   6.707  -7.302  0.00  0.00    +0.087 C 
ATOM      3  N   UNL     1       0.931   6.460  -5.892  0.00  0.00    -0.219 NA
ATOM      4  C   UNL     1      -0.048   6.847  -4.912  0.00  0.00    +0.089 C 
ATOM      5  C   UNL     1      -1.034   5.690  -4.804  0.00  0.00    +0.019 C 
ATOM      6  C   UNL     1      -1.705   5.617  -6.171  0.00  0.00    +0.003 C 
ATOM      7  C   UNL     1      -0.649   5.341  -7.187  0.00  0.00    +0.018 C 
ENDBRANCH   1   2
BRANCH   1   8
ATOM      8  C   UNL     1       0.748   5.845  -9.510  0.00  0.00    -0.011 A 
ATOM      9  C   UNL     1       0.770   4.607 -10.097  0.00  0.00    -0.004 A 
ATOM     10  C   UNL     1       0.426   4.533 -11.432  0.00  0.00    -0.000 A 
ATOM     11  C   UNL     1       0.270   5.682 -12.191  0.00  0.00    -0.000 A 
ATOM     12  C   UNL     1       0.121   6.851 -11.496  0.00  0.00    -0.000 A 
ATOM     13  C   UNL     1       0.419   6.959 -10.138  0.00  0.00    -0.004 A 
ENDBRANCH   1   8
BRANCH   1  14
ATOM     14  C   UNL     1       2.441   7.117  -8.404  0.00  0.00    +0.322 C 
ATOM     15  O   UNL     1       2.167   8.168  -7.848  0.00  0.00    -0.250 OA
BRANCH  14  17
ATOM     16  C   UNL     1       4.269   5.605  -8.419  0.00  0.00    +0.256 C 
ATOM     17  O   UNL     1       3.645   6.744  -8.958  0.00  0.00    -0.444 OA
ENDBRANCH  14  17
ENDBRANCH   1  14
TORSDOF 4
ENDMDL
MODEL 9
REMARK VINA RESULT:      -6.2      2.386      3.493
REMARK  Name = 
REMARK  4 active torsions:
REMARK  status: ('A' for Active; 'I' for Inactive)
REMARK    1  A    between atoms: O_2  and  C_3
REMARK    2  A    between atoms: C_3  and  C_5
REMARK    3  A    between atoms: C_5  and  C_6
REMARK    4  A    between atoms: C_5  and  C_12
REMARK                            x       y       z     vdW  Elec       q    Type
REMARK                         _______ _______ _______ _____ _____    ______ ____
ROOT
ATOM      1  C   UNL     1       2.934   5.455  -6.931  0.00  0.00    +0.137 C 
ENDROOT
BRANCH   1   2
ATOM      2  C   UNL     1       3.765   6.454  -8.092  0.00  0.00    +0.087 C 
ATOM      3  N   UNL     1       2.938   5.822  -9.280  0.00  0.00    -0.219 NA
ATOM      4  C   UNL     1       3.591   6.240 -10.491  0.00  0.00    +0.089 C 
ATOM      5  C   UNL     1       4.803   5.332 -10.666  0.00  0.00    +0.019 C 
ATOM      6  C   UNL     1       5.707   5.650  -9.480  0.00  0.00    +0.003 C 
ATOM      7  C   UNL     1       4.959   5.327  -8.232  0.00  0.00    +0.018 C 
ENDBRANCH   1   2
BRANCH   1   8
ATOM      8  C   UNL     1       3.889   5.949  -5.730  0.00  0.00    -0.011 A 
ATOM      9  C   UNL     1       4.218   4.897  -4.915  0.00  0.00    -0.004 A 
ATOM     10  C   UNL     1       4.762   5.197  -3.682  0.00  0.00    -0.000 A 
ATOM     11  C   UNL     1       4.778   6.500  -3.210  0.00  0.00    -0.000 A 
ATOM     12  C   UNL     1       4.571   7.483  -4.138  0.00  0.00    -0.000 A 
ATOM     13  C   UNL     1       4.061   7.219  -5.409  0.00  0.00    -0.004 A 
ENDBRANCH   1   8
BRANCH   1  14
ATOM     14  C   UNL     1       1.760   6.532  -6.644  0.00  0.00    +0.322 C 
ATOM     15  O   UNL     1       1.626   7.472  -7.410  0.00  0.00    -0.250 OA
BRANCH  14  17
ATOM     16  C   UNL     1       0.465   4.661  -5.972  0.00  0.00    +0.256 C 
ATOM     17  O   UNL     1       0.826   6.006  -5.780  0.00  0.00    -0.444 OA
ENDBRANCH  14  17
ENDBRANCH   1  14
TORSDOF 4
ENDMDL
