MODEL 1
REMARK VINA RESULT:      -9.2      0.000      0.000
REMARK  Name = 
REMARK  18 active torsions:
REMARK  status: ('A' for Active; 'I' for Inactive)
REMARK    1  A    between atoms: C_2  and  C_4
REMARK    2  A    between atoms: C_6  and  C_7
REMARK    3  A    between atoms: C_7  and  N_8
REMARK    4  A    between atoms: N_12  and  C_13
REMARK    5  A    between atoms: C_13  and  C_14
REMARK    6  A    between atoms: C_13  and  C_46
REMARK    7  A    between atoms: N_16  and  C_17
REMARK    8  A    between atoms: C_17  and  C_18
REMARK    9  A    between atoms: C_17  and  C_25
REMARK   10  A    between atoms: C_18  and  C_19
REMARK   11  A    between atoms: C_25  and  C_26
REMARK   12  A    between atoms: C_26  and  C_28
REMARK   13  A    between atoms: C_28  and  C_29
REMARK   14  A    between atoms: C_28  and  N_36
REMARK   15  A    between atoms: C_29  and  C_30
REMARK   16  A    between atoms: C_37  and  O_39
REMARK   17  A    between atoms: O_39  and  C_40
REMARK   18  A    between atoms: C_40  and  C_41
REMARK                            x       y       z     vdW  Elec       q    Type
REMARK                         _______ _______ _______ _____ _____    ______ ____
ROOT
ATOM      1  C   UNL     1       1.669   5.657  -6.017  0.00  0.00    +0.102 C 
ENDROOT
BRANCH   1   3
ATOM      2  C   UNL     1       0.168   5.451  -3.963  0.00  0.00    +0.261 C 
ATOM      3  N   UNL     1       0.833   4.757  -5.020  0.00  0.00    -0.205 NA
ATOM      4  O   UNL     1       0.689   6.584  -3.713  0.00  0.00    -0.271 OA
BRANCH   2   5
ATOM      5  C   UNL     1      -1.444   5.538  -4.125  0.00  0.00    +0.174 C 
BRANCH   5   8
ATOM      6  N   UNL     1      -1.657   6.899  -0.511  0.00  0.00    -0.255 N 
ATOM      7  C   UNL     1      -1.848   6.046  -1.651  0.00  0.00    +0.324 C 
ATOM      8  N   UNL     1      -1.605   6.546  -2.922  0.00  0.00    -0.181 NA
ATOM      9  O   UNL     1      -2.307   4.896  -1.514  0.00  0.00    -0.251 OA
ATOM     10  C   UNL     1      -1.676   8.346  -0.675  0.00  0.00    +0.117 C 
BRANCH   6  11
ATOM     11  C   UNL     1      -0.838   6.322   0.538  0.00  0.00    +0.141 C 
BRANCH  11  15
ATOM     12  C   UNL     1       1.951   8.396   1.567  0.00  0.00    +0.088 A 
ATOM     13  S   UNL     1       2.738   7.721   0.197  0.00  0.00    -0.071 S 
ATOM     14  C   UNL     1       1.528   6.579  -0.236  0.00  0.00    +0.053 A 
ATOM     15  C   UNL     1       0.506   6.981   0.619  0.00  0.00    +0.086 A 
ATOM     16  N   UNL     1       0.977   7.479   1.756  0.00  0.00    -0.245 NA
BRANCH  12  18
ATOM     17  C   UNL     1       1.766  10.182   3.267  0.00  0.00    +0.007 C 
ATOM     18  C   UNL     1       2.662   9.143   2.653  0.00  0.00    +0.047 C 
ATOM     19  C   UNL     1       3.910   9.767   2.074  0.00  0.00    +0.007 C 
ENDBRANCH  12  18
ENDBRANCH  11  15
ENDBRANCH   6  11
ENDBRANCH   5   8
BRANCH   5  20
ATOM     20  C   UNL     1      -1.364   6.743  -5.253  0.00  0.00    +0.029 C 
ATOM     21  C   UNL     1      -1.924   7.938  -4.539  0.00  0.00    +0.002 C 
ATOM     22  C   UNL     1      -2.262   6.292  -6.378  0.00  0.00    +0.002 C 
ENDBRANCH   5  20
ENDBRANCH   2   5
ENDBRANCH   1   3
BRANCH   1  23
ATOM     23  C   UNL     1       1.213   4.957  -7.425  0.00  0.00    +0.057 C 
BRANCH  23  24
ATOM     24  C   UNL     1       0.757   6.205  -8.373  0.00  0.00    +0.174 C 
ATOM     25  O   UNL     1      -0.353   5.409  -9.032  0.00  0.00    -0.221 OA
BRANCH  24  26
ATOM     26  C   UNL     1       1.970   5.799  -9.530  0.00  0.00    +0.133 C 
BRANCH  26  27
ATOM     27  N   UNL     1       1.383   6.632 -10.718  0.00  0.00    -0.168 NA
ATOM     28  C   UNL     1       1.093   5.923 -11.897  0.00  0.00    +0.421 C 
ATOM     29  O   UNL     1       0.953   4.673 -11.942  0.00  0.00    -0.225 OA
BRANCH  28  30
ATOM     30  O   UNL     1       0.337   6.551 -12.864  0.00  0.00    -0.428 OA
BRANCH  30  31
ATOM     31  C   UNL     1       0.695   7.584 -13.633  0.00  0.00    +0.245 C 
BRANCH  31  32
ATOM     32  C   UNL     1       0.427   7.685 -15.035  0.00  0.00    +0.071 A 
ATOM     33  S   UNL     1       1.131   8.965 -15.947  0.00  0.00    -0.065 S 
ATOM     34  C   UNL     1       0.619   8.445 -17.504  0.00  0.00    +0.134 A 
ATOM     35  N   UNL     1       0.438   7.137 -17.234  0.00  0.00    -0.235 NA
ATOM     36  C   UNL     1      -0.022   6.887 -16.036  0.00  0.00    +0.105 A 
ENDBRANCH  31  32
ENDBRANCH  30  31
ENDBRANCH  28  30
ENDBRANCH  26  27
BRANCH  26  37
ATOM     37  C   UNL     1       2.944   7.019  -9.050  0.00  0.00    +0.051 C 
BRANCH  37  38
ATOM     38  C   UNL     1       4.272   6.529  -9.540  0.00  0.00    -0.020 A 
ATOM     39  C   UNL     1       5.025   5.673  -8.776  0.00  0.00    -0.004 A 
ATOM     40  C   UNL     1       6.308   5.312  -9.129  0.00  0.00    -0.000 A 
ATOM     41  C   UNL     1       7.022   6.146  -9.982  0.00  0.00    -0.000 A 
ATOM     42  C   UNL     1       6.266   6.986 -10.780  0.00  0.00    -0.000 A 
ATOM     43  C   UNL     1       4.891   7.108 -10.640  0.00  0.00    -0.004 A 
ENDBRANCH  37  38
ENDBRANCH  26  37
ENDBRANCH  24  26
ENDBRANCH  23  24
ENDBRANCH   1  23
BRANCH   1  44
ATOM     44  C   UNL     1       2.992   4.679  -5.894  0.00  0.00    +0.048 C 
BRANCH  44  45
ATOM     45  C   UNL     1       4.024   5.525  -5.213  0.00  0.00    -0.020 A 
ATOM     46  C   UNL     1       4.106   6.899  -5.412  0.00  0.00    -0.004 A 
ATOM     47  C   UNL     1       4.513   7.758  -4.396  0.00  0.00    -0.000 A 
ATOM     48  C   UNL     1       4.422   7.310  -3.083  0.00  0.00    -0.000 A 
ATOM     49  C   UNL     1       4.585   5.943  -2.887  0.00  0.00    -0.000 A 
ATOM     50  C   UNL     1       4.570   5.109  -4.003  0.00  0.00    -0.004 A 
ENDBRANCH  44  45
ENDBRANCH   1  44
TORSDOF 18
ENDMDL
MODEL 2
REMARK VINA RESULT:      -8.8      3.071      5.739
REMARK  Name = 
REMARK  18 active torsions:
REMARK  status: ('A' for Active; 'I' for Inactive)
REMARK    1  A    between atoms: C_2  and  C_4
REMARK    2  A    between atoms: C_6  and  C_7
REMARK    3  A    between atoms: C_7  and  N_8
REMARK    4  A    between atoms: N_12  and  C_13
REMARK    5  A    between atoms: C_13  and  C_14
REMARK    6  A    between atoms: C_13  and  C_46
REMARK    7  A    between atoms: N_16  and  C_17
REMARK    8  A    between atoms: C_17  and  C_18
REMARK    9  A    between atoms: C_17  and  C_25
REMARK   10  A    between atoms: C_18  and  C_19
REMARK   11  A    between atoms: C_25  and  C_26
REMARK   12  A    between atoms: C_26  and  C_28
REMARK   13  A    between atoms: C_28  and  C_29
REMARK   14  A    between atoms: C_28  and  N_36
REMARK   15  A    between atoms: C_29  and  C_30
REMARK   16  A    between atoms: C_37  and  O_39
REMARK   17  A    between atoms: O_39  and  C_40
REMARK   18  A    between atoms: C_40  and  C_41
REMARK                            x       y       z     vdW  Elec       q    Type
REMARK                         _______ _______ _______ _____ _____    ______ ____
ROOT
ATOM      1  C   UNL     1       0.153   6.413  -5.035  0.00  0.00    +0.102 C 
ENDROOT
BRANCH   1   3
ATOM      2  C   UNL     1       1.576   6.346  -2.918  0.00  0.00    +0.261 C 
ATOM      3  N   UNL     1       0.829   7.165  -3.820  0.00  0.00    -0.205 NA
ATOM      4  O   UNL     1       1.229   5.124  -2.960  0.00  0.00    -0.271 OA
BRANCH   2   5
ATOM      5  C   UNL     1       3.186   6.531  -3.016  0.00  0.00    +0.174 C 
BRANCH   5   8
ATOM      6  N   UNL     1       3.363   8.571   0.264  0.00  0.00    -0.255 N 
ATOM      7  C   UNL     1       3.565   8.188  -1.105  0.00  0.00    +0.324 C 
ATOM      8  N   UNL     1       3.334   6.874  -1.484  0.00  0.00    -0.181 NA
ATOM      9  O   UNL     1       4.023   9.000  -1.932  0.00  0.00    -0.251 OA
ATOM     10  C   UNL     1       3.384   7.561   1.312  0.00  0.00    +0.117 C 
BRANCH   6  11
ATOM     11  C   UNL     1       2.533   9.748   0.440  0.00  0.00    +0.141 C 
BRANCH  11  15
ATOM     12  C   UNL     1       4.701  12.650   0.308  0.00  0.00    +0.088 A 
ATOM     13  S   UNL     1       4.485  12.677   2.012  0.00  0.00    -0.071 S 
ATOM     14  C   UNL     1       3.308  11.429   2.124  0.00  0.00    +0.053 A 
ATOM     15  C   UNL     1       3.346  10.949   0.818  0.00  0.00    +0.086 A 
ATOM     16  N   UNL     1       3.632  11.908  -0.055  0.00  0.00    -0.245 NA
BRANCH  12  18
ATOM     17  C   UNL     1       5.101  15.090   0.257  0.00  0.00    +0.007 C 
ATOM     18  C   UNL     1       5.273  13.790  -0.478  0.00  0.00    +0.047 C 
ATOM     19  C   UNL     1       4.599  13.831  -1.830  0.00  0.00    +0.007 C 
ENDBRANCH  12  18
ENDBRANCH  11  15
ENDBRANCH   6  11
ENDBRANCH   5   8
BRANCH   5  20
ATOM     20  C   UNL     1       3.483   4.922  -2.788  0.00  0.00    +0.029 C 
ATOM     21  C   UNL     1       4.142   4.869  -1.441  0.00  0.00    +0.002 C 
ATOM     22  C   UNL     1       4.435   4.535  -3.892  0.00  0.00    +0.002 C 
ENDBRANCH   5  20
ENDBRANCH   2   5
ENDBRANCH   1   3
BRANCH   1  23
ATOM     23  C   UNL     1       0.972   7.132  -6.258  0.00  0.00    +0.057 C 
BRANCH  23  24
ATOM     24  C   UNL     1       2.298   6.204  -6.462  0.00  0.00    +0.174 C 
ATOM     25  O   UNL     1       3.248   7.364  -6.230  0.00  0.00    -0.221 OA
BRANCH  24  26
ATOM     26  C   UNL     1       2.201   6.400  -8.173  0.00  0.00    +0.133 C 
BRANCH  26  27
ATOM     27  N   UNL     1       3.437   5.512  -8.535  0.00  0.00    -0.168 NA
ATOM     28  C   UNL     1       4.271   5.988  -9.562  0.00  0.00    +0.421 C 
ATOM     29  O   UNL     1       4.285   7.185  -9.950  0.00  0.00    -0.225 OA
BRANCH  28  30
ATOM     30  O   UNL     1       5.500   5.387  -9.734  0.00  0.00    -0.428 OA
BRANCH  30  31
ATOM     31  C   UNL     1       6.568   5.884 -10.366  0.00  0.00    +0.245 C 
BRANCH  31  32
ATOM     32  C   UNL     1       6.889   5.636 -11.738  0.00  0.00    +0.071 A 
ATOM     33  S   UNL     1       5.800   6.142 -12.972  0.00  0.00    -0.065 S 
ATOM     34  C   UNL     1       6.793   5.759 -14.323  0.00  0.00    +0.134 A 
ATOM     35  N   UNL     1       7.993   5.790 -13.711  0.00  0.00    -0.235 NA
ATOM     36  C   UNL     1       7.988   5.349 -12.480  0.00  0.00    +0.105 A 
ENDBRANCH  31  32
ENDBRANCH  30  31
ENDBRANCH  28  30
ENDBRANCH  26  27
BRANCH  26  37
ATOM     37  C   UNL     1       1.157   5.154  -8.333  0.00  0.00    +0.051 C 
BRANCH  37  38
ATOM     38  C   UNL     1       0.612   5.417  -9.703  0.00  0.00    -0.020 A 
ATOM     39  C   UNL     1       0.554   4.412 -10.635  0.00  0.00    -0.004 A 
ATOM     40  C   UNL     1       0.190   4.648 -11.945  0.00  0.00    -0.000 A 
ATOM     41  C   UNL     1       0.332   5.934 -12.452  0.00  0.00    -0.000 A 
ATOM     42  C   UNL     1       0.355   6.954 -11.518  0.00  0.00    -0.000 A 
ATOM     43  C   UNL     1       0.391   6.713 -10.151  0.00  0.00    -0.004 A 
ENDBRANCH  37  38
ENDBRANCH  26  37
ENDBRANCH  24  26
ENDBRANCH  23  24
ENDBRANCH   1  23
BRANCH   1  44
ATOM     44  C   UNL     1      -1.067   7.520  -5.127  0.00  0.00    +0.048 C 
BRANCH  44  45
ATOM     45  C   UNL     1      -2.085   7.042  -4.136  0.00  0.00    -0.020 A 
ATOM     46  C   UNL     1      -2.521   5.722  -4.100  0.00  0.00    -0.004 A 
ATOM     47  C   UNL     1      -2.874   5.105  -2.904  0.00  0.00    -0.000 A 
ATOM     48  C   UNL     1      -2.391   5.649  -1.719  0.00  0.00    -0.000 A 
ATOM     49  C   UNL     1      -2.189   7.024  -1.710  0.00  0.00    -0.000 A 
ATOM     50  C   UNL     1      -2.235   7.706  -2.923  0.00  0.00    -0.004 A 
ENDBRANCH  44  45
ENDBRANCH   1  44
TORSDOF 18
ENDMDL
MODEL 3
REMARK VINA RESULT:      -8.7      2.915      5.639
REMARK  Name = 
REMARK  18 active torsions:
REMARK  status: ('A' for Active; 'I' for Inactive)
REMARK    1  A    between atoms: C_2  and  C_4
REMARK    2  A    between atoms: C_6  and  C_7
REMARK    3  A    between atoms: C_7  and  N_8
REMARK    4  A    between atoms: N_12  and  C_13
REMARK    5  A    between atoms: C_13  and  C_14
REMARK    6  A    between atoms: C_13  and  C_46
REMARK    7  A    between atoms: N_16  and  C_17
REMARK    8  A    between atoms: C_17  and  C_18
REMARK    9  A    between atoms: C_17  and  C_25
REMARK   10  A    between atoms: C_18  and  C_19
REMARK   11  A    between atoms: C_25  and  C_26
REMARK   12  A    between atoms: C_26  and  C_28
REMARK   13  A    between atoms: C_28  and  C_29
REMARK   14  A    between atoms: C_28  and  N_36
REMARK   15  A    between atoms: C_29  and  C_30
REMARK   16  A    between atoms: C_37  and  O_39
REMARK   17  A    between atoms: O_39  and  C_40
REMARK   18  A    between atoms: C_40  and  C_41
REMARK                            x       y       z     vdW  Elec       q    Type
REMARK                         _______ _______ _______ _____ _____    ______ ____
ROOT
ATOM      1  C   UNL     1       0.275   6.255  -5.031  0.00  0.00    +0.102 C 
ENDROOT
BRANCH   1   3
ATOM      2  C   UNL     1       1.506   6.397  -2.801  0.00  0.00    +0.261 C 
ATOM      3  N   UNL     1       0.798   7.116  -3.813  0.00  0.00    -0.205 NA
ATOM      4  O   UNL     1       1.232   5.156  -2.794  0.00  0.00    -0.271 OA
BRANCH   2   5
ATOM      5  C   UNL     1       3.105   6.673  -2.773  0.00  0.00    +0.174 C 
BRANCH   5   8
ATOM      6  N   UNL     1       2.997   8.849   0.422  0.00  0.00    -0.255 N 
ATOM      7  C   UNL     1       3.330   8.403  -0.902  0.00  0.00    +0.324 C 
ATOM      8  N   UNL     1       3.104   7.078  -1.249  0.00  0.00    -0.181 NA
ATOM      9  O   UNL     1       3.892   9.167  -1.709  0.00  0.00    -0.251 OA
ATOM     10  C   UNL     1       2.883   7.885   1.507  0.00  0.00    +0.117 C 
BRANCH   6  11
ATOM     11  C   UNL     1       2.186  10.051   0.462  0.00  0.00    +0.141 C 
BRANCH  11  15
ATOM     12  C   UNL     1      -1.147   9.105   1.526  0.00  0.00    +0.088 A 
ATOM     13  S   UNL     1      -0.726   9.911   2.983  0.00  0.00    -0.071 S 
ATOM     14  C   UNL     1       0.923  10.227   2.615  0.00  0.00    +0.053 A 
ATOM     15  C   UNL     1       0.942   9.854   1.273  0.00  0.00    +0.086 A 
ATOM     16  N   UNL     1       0.084   8.873   1.019  0.00  0.00    -0.245 NA
BRANCH  12  18
ATOM     17  C   UNL     1      -3.361   8.490   2.438  0.00  0.00    +0.007 C 
ATOM     18  C   UNL     1      -2.327   8.192   1.389  0.00  0.00    +0.047 C 
ATOM     19  C   UNL     1      -1.846   6.763   1.482  0.00  0.00    +0.007 C 
ENDBRANCH  12  18
ENDBRANCH  11  15
ENDBRANCH   6  11
ENDBRANCH   5   8
BRANCH   5  20
ATOM     20  C   UNL     1       3.471   5.093  -2.456  0.00  0.00    +0.029 C 
ATOM     21  C   UNL     1       4.134   5.144  -1.110  0.00  0.00    +0.002 C 
ATOM     22  C   UNL     1       4.437   4.685  -3.540  0.00  0.00    +0.002 C 
ENDBRANCH   5  20
ENDBRANCH   2   5
ENDBRANCH   1   3
BRANCH   1  23
ATOM     23  C   UNL     1       1.261   6.848  -6.197  0.00  0.00    +0.057 C 
BRANCH  23  24
ATOM     24  C   UNL     1       1.919   5.525  -6.888  0.00  0.00    +0.174 C 
ATOM     25  O   UNL     1       3.338   6.026  -6.693  0.00  0.00    -0.221 OA
BRANCH  24  26
ATOM     26  C   UNL     1       1.709   6.211  -8.456  0.00  0.00    +0.133 C 
BRANCH  26  27
ATOM     27  N   UNL     1       2.670   5.240  -9.217  0.00  0.00    -0.168 NA
ATOM     28  C   UNL     1       3.521   5.822 -10.173  0.00  0.00    +0.421 C 
ATOM     29  O   UNL     1       3.792   7.051 -10.208  0.00  0.00    -0.225 OA
BRANCH  28  30
ATOM     30  O   UNL     1       4.557   5.062 -10.673  0.00  0.00    -0.428 OA
BRANCH  30  31
ATOM     31  C   UNL     1       5.067   5.092 -11.907  0.00  0.00    +0.245 C 
BRANCH  31  32
ATOM     32  C   UNL     1       6.405   5.490 -12.224  0.00  0.00    +0.071 A 
ATOM     33  S   UNL     1       7.583   5.592 -10.972  0.00  0.00    -0.065 S 
ATOM     34  C   UNL     1       8.949   5.905 -11.968  0.00  0.00    +0.134 A 
ATOM     35  N   UNL     1       8.483   5.389 -13.123  0.00  0.00    -0.235 NA
ATOM     36  C   UNL     1       7.202   5.564 -13.319  0.00  0.00    +0.105 A 
ENDBRANCH  31  32
ENDBRANCH  30  31
ENDBRANCH  28  30
ENDBRANCH  26  27
BRANCH  26  37
ATOM     37  C   UNL     1       0.398   5.287  -8.768  0.00  0.00    +0.051 C 
BRANCH  37  38
ATOM     38  C   UNL     1       0.179   5.588 -10.218  0.00  0.00    -0.020 A 
ATOM     39  C   UNL     1       0.330   4.606 -11.164  0.00  0.00    -0.004 A 
ATOM     40  C   UNL     1       0.274   4.876 -12.516  0.00  0.00    -0.000 A 
ATOM     41  C   UNL     1       0.533   6.172 -12.946  0.00  0.00    -0.000 A 
ATOM     42  C   UNL     1       0.348   7.170 -12.005  0.00  0.00    -0.000 A 
ATOM     43  C   UNL     1       0.071   6.896 -10.673  0.00  0.00    -0.004 A 
ENDBRANCH  37  38
ENDBRANCH  26  37
ENDBRANCH  24  26
ENDBRANCH  23  24
ENDBRANCH   1  23
BRANCH   1  44
ATOM     44  C   UNL     1      -0.902   7.354  -5.388  0.00  0.00    +0.048 C 
BRANCH  44  45
ATOM     45  C   UNL     1      -2.057   6.967  -4.515  0.00  0.00    -0.020 A 
ATOM     46  C   UNL     1      -2.514   5.656  -4.429  0.00  0.00    -0.004 A 
ATOM     47  C   UNL     1      -3.042   5.147  -3.247  0.00  0.00    -0.000 A 
ATOM     48  C   UNL     1      -2.722   5.789  -2.056  0.00  0.00    -0.000 A 
ATOM     49  C   UNL     1      -2.502   7.159  -2.135  0.00  0.00    -0.000 A 
ATOM     50  C   UNL     1      -2.366   7.734  -3.396  0.00  0.00    -0.004 A 
ENDBRANCH  44  45
ENDBRANCH   1  44
TORSDOF 18
ENDMDL
MODEL 4
REMARK VINA RESULT:      -8.6      2.402      4.444
REMARK  Name = 
REMARK  18 active torsions:
REMARK  status: ('A' for Active; 'I' for Inactive)
REMARK    1  A    between atoms: C_2  and  C_4
REMARK    2  A    between atoms: C_6  and  C_7
REMARK    3  A    between atoms: C_7  and  N_8
REMARK    4  A    between atoms: N_12  and  C_13
REMARK    5  A    between atoms: C_13  and  C_14
REMARK    6  A    between atoms: C_13  and  C_46
REMARK    7  A    between atoms: N_16  and  C_17
REMARK    8  A    between atoms: C_17  and  C_18
REMARK    9  A    between atoms: C_17  and  C_25
REMARK   10  A    between atoms: C_18  and  C_19
REMARK   11  A    between atoms: C_25  and  C_26
REMARK   12  A    between atoms: C_26  and  C_28
REMARK   13  A    between atoms: C_28  and  C_29
REMARK   14  A    between atoms: C_28  and  N_36
REMARK   15  A    between atoms: C_29  and  C_30
REMARK   16  A    between atoms: C_37  and  O_39
REMARK   17  A    between atoms: O_39  and  C_40
REMARK   18  A    between atoms: C_40  and  C_41
REMARK                            x       y       z     vdW  Elec       q    Type
REMARK                         _______ _______ _______ _____ _____    ______ ____
ROOT
ATOM      1  C   UNL     1       0.292   5.509  -4.895  0.00  0.00    +0.102 C 
ENDROOT
BRANCH   1   3
ATOM      2  C   UNL     1       1.821   6.852  -3.355  0.00  0.00    +0.261 C 
ATOM      3  N   UNL     1       1.166   6.799  -4.624  0.00  0.00    -0.205 NA
ATOM      4  O   UNL     1       1.268   6.110  -2.484  0.00  0.00    -0.271 OA
BRANCH   2   5
ATOM      5  C   UNL     1       3.428   6.635  -3.417  0.00  0.00    +0.174 C 
BRANCH   5   8
ATOM      6  N   UNL     1       3.598   8.513  -0.041  0.00  0.00    -0.255 N 
ATOM      7  C   UNL     1       3.767   8.217  -1.436  0.00  0.00    +0.324 C 
ATOM      8  N   UNL     1       3.619   6.909  -1.876  0.00  0.00    -0.181 NA
ATOM      9  O   UNL     1       4.125   9.103  -2.235  0.00  0.00    -0.251 OA
ATOM     10  C   UNL     1       3.742   7.456   0.949  0.00  0.00    +0.117 C 
BRANCH   6  11
ATOM     11  C   UNL     1       2.691   9.612   0.232  0.00  0.00    +0.141 C 
BRANCH  11  15
ATOM     12  C   UNL     1       4.684  12.639   0.232  0.00  0.00    +0.088 A 
ATOM     13  S   UNL     1       4.443  12.595   1.933  0.00  0.00    -0.071 S 
ATOM     14  C   UNL     1       3.341  11.276   1.984  0.00  0.00    +0.053 A 
ATOM     15  C   UNL     1       3.426  10.845   0.663  0.00  0.00    +0.086 A 
ATOM     16  N   UNL     1       3.666  11.848  -0.173  0.00  0.00    -0.245 NA
BRANCH  12  18
ATOM     17  C   UNL     1       4.847  13.760  -1.966  0.00  0.00    +0.007 C 
ATOM     18  C   UNL     1       5.198  13.837  -0.506  0.00  0.00    +0.047 C 
ATOM     19  C   UNL     1       6.693  13.924  -0.305  0.00  0.00    +0.007 C 
ENDBRANCH  12  18
ENDBRANCH  11  15
ENDBRANCH   6  11
ENDBRANCH   5   8
BRANCH   5  20
ATOM     20  C   UNL     1       3.313   4.999  -3.213  0.00  0.00    +0.029 C 
ATOM     21  C   UNL     1       4.095   4.740  -1.958  0.00  0.00    +0.002 C 
ATOM     22  C   UNL     1       3.985   4.401  -4.424  0.00  0.00    +0.002 C 
ENDBRANCH   5  20
ENDBRANCH   2   5
ENDBRANCH   1   3
BRANCH   1  23
ATOM     23  C   UNL     1       0.927   5.078  -6.342  0.00  0.00    +0.057 C 
BRANCH  23  24
ATOM     24  C   UNL     1       0.285   6.140  -7.402  0.00  0.00    +0.174 C 
ATOM     25  O   UNL     1      -0.812   5.181  -7.827  0.00  0.00    -0.221 OA
BRANCH  24  26
ATOM     26  C   UNL     1       1.415   5.653  -8.610  0.00  0.00    +0.133 C 
BRANCH  26  27
ATOM     27  N   UNL     1       0.824   6.510  -9.778  0.00  0.00    -0.168 NA
ATOM     28  C   UNL     1       0.628   5.849 -11.003  0.00  0.00    +0.421 C 
ATOM     29  O   UNL     1       0.571   4.596 -11.117  0.00  0.00    -0.225 OA
BRANCH  28  30
ATOM     30  O   UNL     1      -0.127   6.479 -11.969  0.00  0.00    -0.428 OA
BRANCH  30  31
ATOM     31  C   UNL     1       0.244   7.489 -12.762  0.00  0.00    +0.245 C 
BRANCH  31  32
ATOM     32  C   UNL     1       0.829   7.332 -14.058  0.00  0.00    +0.071 A 
ATOM     33  S   UNL     1       0.799   8.645 -15.172  0.00  0.00    -0.065 S 
ATOM     34  C   UNL     1       1.779   7.933 -16.391  0.00  0.00    +0.134 A 
ATOM     35  N   UNL     1       2.435   7.035 -15.630  0.00  0.00    -0.235 NA
ATOM     36  C   UNL     1       1.720   6.511 -14.669  0.00  0.00    +0.105 A 
ENDBRANCH  31  32
ENDBRANCH  30  31
ENDBRANCH  28  30
ENDBRANCH  26  27
BRANCH  26  37
ATOM     37  C   UNL     1       2.482   6.817  -8.188  0.00  0.00    +0.051 C 
BRANCH  37  38
ATOM     38  C   UNL     1       3.749   6.259  -8.759  0.00  0.00    -0.020 A 
ATOM     39  C   UNL     1       4.583   5.492  -7.986  0.00  0.00    -0.004 A 
ATOM     40  C   UNL     1       5.822   5.079  -8.433  0.00  0.00    -0.000 A 
ATOM     41  C   UNL     1       6.435   5.799  -9.451  0.00  0.00    -0.000 A 
ATOM     42  C   UNL     1       5.593   6.545 -10.256  0.00  0.00    -0.000 A 
ATOM     43  C   UNL     1       4.241   6.698  -9.982  0.00  0.00    -0.004 A 
ENDBRANCH  37  38
ENDBRANCH  26  37
ENDBRANCH  24  26
ENDBRANCH  23  24
ENDBRANCH   1  23
BRANCH   1  44
ATOM     44  C   UNL     1      -0.901   6.389  -5.617  0.00  0.00    +0.048 C 
BRANCH  44  45
ATOM     45  C   UNL     1      -1.965   6.513  -4.569  0.00  0.00    -0.020 A 
ATOM     46  C   UNL     1      -2.528   5.402  -3.949  0.00  0.00    -0.004 A 
ATOM     47  C   UNL     1      -2.944   5.443  -2.623  0.00  0.00    -0.000 A 
ATOM     48  C   UNL     1      -2.416   6.432  -1.800  0.00  0.00    -0.000 A 
ATOM     49  C   UNL     1      -2.082   7.632  -2.417  0.00  0.00    -0.000 A 
ATOM     50  C   UNL     1      -2.056   7.675  -3.809  0.00  0.00    -0.004 A 
ENDBRANCH  44  45
ENDBRANCH   1  44
TORSDOF 18
ENDMDL
MODEL 5
REMARK VINA RESULT:      -8.5      2.813     11.845
REMARK  Name = 
REMARK  18 active torsions:
REMARK  status: ('A' for Active; 'I' for Inactive)
REMARK    1  A    between atoms: C_2  and  C_4
REMARK    2  A    between atoms: C_6  and  C_7
REMARK    3  A    between atoms: C_7  and  N_8
REMARK    4  A    between atoms: N_12  and  C_13
REMARK    5  A    between atoms: C_13  and  C_14
REMARK    6  A    between atoms: C_13  and  C_46
REMARK    7  A    between atoms: N_16  and  C_17
REMARK    8  A    between atoms: C_17  and  C_18
REMARK    9  A    between atoms: C_17  and  C_25
REMARK   10  A    between atoms: C_18  and  C_19
REMARK   11  A    between atoms: C_25  and  C_26
REMARK   12  A    between atoms: C_26  and  C_28
REMARK   13  A    between atoms: C_28  and  C_29
REMARK   14  A    between atoms: C_28  and  N_36
REMARK   15  A    between atoms: C_29  and  C_30
REMARK   16  A    between atoms: C_37  and  O_39
REMARK   17  A    between atoms: O_39  and  C_40
REMARK   18  A    between atoms: C_40  and  C_41
REMARK                            x       y       z     vdW  Elec       q    Type
REMARK                         _______ _______ _______ _____ _____    ______ ____
ROOT
ATOM      1  C   UNL     1       4.435   5.893 -11.407  0.00  0.00    +0.102 C 
ENDROOT
BRANCH   1   3
ATOM      2  C   UNL     1       2.651   6.093 -13.220  0.00  0.00    +0.261 C 
ATOM      3  N   UNL     1       3.521   6.794 -12.330  0.00  0.00    -0.205 NA
ATOM      4  O   UNL     1       3.043   4.908 -13.462  0.00  0.00    -0.271 OA
BRANCH   2   5
ATOM      5  C   UNL     1       1.081   6.148 -12.812  0.00  0.00    +0.174 C 
BRANCH   5   8
ATOM      6  N   UNL     1       0.520   8.255 -16.005  0.00  0.00    -0.255 N 
ATOM      7  C   UNL     1       0.599   7.894 -14.617  0.00  0.00    +0.324 C 
ATOM      8  N   UNL     1       0.620   6.553 -14.264  0.00  0.00    -0.181 NA
ATOM      9  O   UNL     1       0.566   8.768 -13.729  0.00  0.00    -0.251 OA
ATOM     10  C   UNL     1       0.001   7.302 -16.975  0.00  0.00    +0.117 C 
BRANCH   6  11
ATOM     11  C   UNL     1       1.517   9.219 -16.431  0.00  0.00    +0.141 C 
BRANCH  11  15
ATOM     12  C   UNL     1      -0.250  12.381 -16.300  0.00  0.00    +0.088 A 
ATOM     13  S   UNL     1       0.079  12.440 -17.986  0.00  0.00    -0.071 S 
ATOM     14  C   UNL     1       1.085  11.048 -18.082  0.00  0.00    +0.053 A 
ATOM     15  C   UNL     1       0.897  10.532 -16.803  0.00  0.00    +0.086 A 
ATOM     16  N   UNL     1       0.685  11.489 -15.907  0.00  0.00    -0.245 NA
BRANCH  12  18
ATOM     17  C   UNL     1      -0.100  13.554 -14.128  0.00  0.00    +0.007 C 
ATOM     18  C   UNL     1      -0.715  13.559 -15.500  0.00  0.00    +0.047 C 
ATOM     19  C   UNL     1      -2.224  13.526 -15.425  0.00  0.00    +0.007 C 
ENDBRANCH  12  18
ENDBRANCH  11  15
ENDBRANCH   6  11
ENDBRANCH   5   8
BRANCH   5  20
ATOM     20  C   UNL     1       0.854   4.534 -13.081  0.00  0.00    +0.029 C 
ATOM     21  C   UNL     1       0.120   4.491 -14.390  0.00  0.00    +0.002 C 
ATOM     22  C   UNL     1      -0.011   4.060 -11.939  0.00  0.00    +0.002 C 
ENDBRANCH   5  20
ENDBRANCH   2   5
ENDBRANCH   1   3
BRANCH   1  23
ATOM     23  C   UNL     1       3.446   5.785 -10.106  0.00  0.00    +0.057 C 
BRANCH  23  24
ATOM     24  C   UNL     1       4.420   6.070  -8.828  0.00  0.00    +0.174 C 
ATOM     25  O   UNL     1       5.118   4.729  -8.955  0.00  0.00    -0.221 OA
BRANCH  24  26
ATOM     26  C   UNL     1       3.195   5.524  -7.744  0.00  0.00    +0.133 C 
BRANCH  26  27
ATOM     27  N   UNL     1       4.056   5.587  -6.439  0.00  0.00    -0.168 NA
ATOM     28  C   UNL     1       3.559   4.887  -5.326  0.00  0.00    +0.421 C 
ATOM     29  O   UNL     1       2.694   3.976  -5.405  0.00  0.00    -0.225 OA
BRANCH  28  30
ATOM     30  O   UNL     1       4.400   4.693  -4.251  0.00  0.00    -0.428 OA
BRANCH  30  31
ATOM     31  C   UNL     1       4.454   5.406  -3.121  0.00  0.00    +0.245 C 
BRANCH  31  32
ATOM     32  C   UNL     1       3.473   5.356  -2.081  0.00  0.00    +0.071 A 
ATOM     33  S   UNL     1       2.068   6.346  -2.186  0.00  0.00    -0.065 S 
ATOM     34  C   UNL     1       1.240   5.714  -0.819  0.00  0.00    +0.134 A 
ATOM     35  N   UNL     1       1.844   4.511  -0.751  0.00  0.00    -0.235 NA
ATOM     36  C   UNL     1       3.110   4.519  -1.076  0.00  0.00    +0.105 A 
ENDBRANCH  31  32
ENDBRANCH  30  31
ENDBRANCH  28  30
ENDBRANCH  26  27
BRANCH  26  37
ATOM     37  C   UNL     1       2.608   7.033  -7.526  0.00  0.00    +0.051 C 
BRANCH  37  38
ATOM     38  C   UNL     1       1.189   6.733  -7.155  0.00  0.00    -0.020 A 
ATOM     39  C   UNL     1       0.717   7.033  -5.902  0.00  0.00    -0.004 A 
ATOM     40  C   UNL     1      -0.538   6.647  -5.479  0.00  0.00    -0.000 A 
ATOM     41  C   UNL     1      -1.150   5.571  -6.113  0.00  0.00    -0.000 A 
ATOM     42  C   UNL     1      -0.703   5.287  -7.390  0.00  0.00    -0.000 A 
ATOM     43  C   UNL     1       0.391   5.927  -7.957  0.00  0.00    -0.004 A 
ENDBRANCH  37  38
ENDBRANCH  26  37
ENDBRANCH  24  26
ENDBRANCH  23  24
ENDBRANCH   1  23
BRANCH   1  44
ATOM     44  C   UNL     1       5.210   7.206 -10.779  0.00  0.00    +0.048 C 
BRANCH  44  45
ATOM     45  C   UNL     1       6.575   7.170 -11.397  0.00  0.00    -0.020 A 
ATOM     46  C   UNL     1       7.660   6.574 -10.761  0.00  0.00    -0.004 A 
ATOM     47  C   UNL     1       8.664   5.935 -11.482  0.00  0.00    -0.000 A 
ATOM     48  C   UNL     1       8.377   5.517 -12.777  0.00  0.00    -0.000 A 
ATOM     49  C   UNL     1       7.454   6.282 -13.480  0.00  0.00    -0.000 A 
ATOM     50  C   UNL     1       6.711   7.230 -12.780  0.00  0.00    -0.004 A 
ENDBRANCH  44  45
ENDBRANCH   1  44
TORSDOF 18
ENDMDL
MODEL 6
REMARK VINA RESULT:      -8.4      2.905     11.299
REMARK  Name = 
REMARK  18 active torsions:
REMARK  status: ('A' for Active; 'I' for Inactive)
REMARK    1  A    between atoms: C_2  and  C_4
REMARK    2  A    between atoms: C_6  and  C_7
REMARK    3  A    between atoms: C_7  and  N_8
REMARK    4  A    between atoms: N_12  and  C_13
REMARK    5  A    between atoms: C_13  and  C_14
REMARK    6  A    between atoms: C_13  and  C_46
REMARK    7  A    between atoms: N_16  and  C_17
REMARK    8  A    between atoms: C_17  and  C_18
REMARK    9  A    between atoms: C_17  and  C_25
REMARK   10  A    between atoms: C_18  and  C_19
REMARK   11  A    between atoms: C_25  and  C_26
REMARK   12  A    between atoms: C_26  and  C_28
REMARK   13  A    between atoms: C_28  and  C_29
REMARK   14  A    between atoms: C_28  and  N_36
REMARK   15  A    between atoms: C_29  and  C_30
REMARK   16  A    between atoms: C_37  and  O_39
REMARK   17  A    between atoms: O_39  and  C_40
REMARK   18  A    between atoms: C_40  and  C_41
REMARK                            x       y       z     vdW  Elec       q    Type
REMARK                         _______ _______ _______ _____ _____    ______ ____
ROOT
ATOM      1  C   UNL     1       4.519   6.310 -10.890  0.00  0.00    +0.102 C 
ENDROOT
BRANCH   1   3
ATOM      2  C   UNL     1       2.883   6.073 -12.834  0.00  0.00    +0.261 C 
ATOM      3  N   UNL     1       3.687   6.968 -12.063  0.00  0.00    -0.205 NA
ATOM      4  O   UNL     1       3.283   4.868 -12.767  0.00  0.00    -0.271 OA
BRANCH   2   5
ATOM      5  C   UNL     1       1.287   6.205 -12.572  0.00  0.00    +0.174 C 
BRANCH   5   8
ATOM      6  N   UNL     1       0.794   8.378 -15.733  0.00  0.00    -0.255 N 
ATOM      7  C   UNL     1       0.733   7.943 -14.366  0.00  0.00    +0.324 C 
ATOM      8  N   UNL     1       0.980   6.611 -14.065  0.00  0.00    -0.181 NA
ATOM      9  O   UNL     1       0.382   8.727 -13.463  0.00  0.00    -0.251 OA
ATOM     10  C   UNL     1       0.642   7.411 -16.811  0.00  0.00    +0.117 C 
BRANCH   6  11
ATOM     11  C   UNL     1       1.621   9.550 -15.952  0.00  0.00    +0.141 C 
BRANCH  11  15
ATOM     12  C   UNL     1      -0.435  12.525 -15.710  0.00  0.00    +0.088 A 
ATOM     13  S   UNL     1      -0.442  12.453 -17.427  0.00  0.00    -0.071 S 
ATOM     14  C   UNL     1       0.678  11.162 -17.617  0.00  0.00    +0.053 A 
ATOM     15  C   UNL     1       0.797  10.755 -16.291  0.00  0.00    +0.086 A 
ATOM     16  N   UNL     1       0.652  11.769 -15.446  0.00  0.00    -0.245 NA
BRANCH  12  18
ATOM     17  C   UNL     1      -0.926  14.947 -15.797  0.00  0.00    +0.007 C 
ATOM     18  C   UNL     1      -0.870  13.724 -14.925  0.00  0.00    +0.047 C 
ATOM     19  C   UNL     1       0.085  13.918 -13.770  0.00  0.00    +0.007 C 
ENDBRANCH  12  18
ENDBRANCH  11  15
ENDBRANCH   6  11
ENDBRANCH   5   8
BRANCH   5  20
ATOM     20  C   UNL     1       1.010   4.599 -12.847  0.00  0.00    +0.029 C 
ATOM     21  C   UNL     1       0.495   4.562 -14.256  0.00  0.00    +0.002 C 
ATOM     22  C   UNL     1      -0.053   4.205 -11.852  0.00  0.00    +0.002 C 
ENDBRANCH   5  20
ENDBRANCH   2   5
ENDBRANCH   1   3
BRANCH   1  23
ATOM     23  C   UNL     1       3.595   6.795  -9.628  0.00  0.00    +0.057 C 
BRANCH  23  24
ATOM     24  C   UNL     1       3.064   5.406  -8.954  0.00  0.00    +0.174 C 
ATOM     25  O   UNL     1       1.610   5.716  -9.258  0.00  0.00    -0.221 OA
BRANCH  24  26
ATOM     26  C   UNL     1       3.072   6.135  -7.391  0.00  0.00    +0.133 C 
BRANCH  26  27
ATOM     27  N   UNL     1       1.940   5.253  -6.766  0.00  0.00    -0.168 NA
ATOM     28  C   UNL     1       0.973   5.926  -6.000  0.00  0.00    +0.421 C 
ATOM     29  O   UNL     1       0.770   7.166  -6.067  0.00  0.00    -0.225 OA
BRANCH  28  30
ATOM     30  O   UNL     1      -0.175   5.244  -5.655  0.00  0.00    -0.428 OA
BRANCH  30  31
ATOM     31  C   UNL     1      -1.430   5.704  -5.668  0.00  0.00    +0.245 C 
BRANCH  31  32
ATOM     32  C   UNL     1      -2.072   6.343  -4.561  0.00  0.00    +0.071 A 
ATOM     33  S   UNL     1      -2.839   5.386  -3.352  0.00  0.00    -0.065 S 
ATOM     34  C   UNL     1      -3.220   6.658  -2.260  0.00  0.00    +0.134 A 
ATOM     35  N   UNL     1      -2.295   7.554  -2.657  0.00  0.00    -0.235 NA
ATOM     36  C   UNL     1      -2.050   7.550  -3.942  0.00  0.00    +0.105 A 
ENDBRANCH  31  32
ENDBRANCH  30  31
ENDBRANCH  28  30
ENDBRANCH  26  27
BRANCH  26  37
ATOM     37  C   UNL     1       4.253   5.144  -6.851  0.00  0.00    +0.051 C 
BRANCH  37  38
ATOM     38  C   UNL     1       4.468   5.686  -5.472  0.00  0.00    -0.020 A 
ATOM     39  C   UNL     1       4.461   4.850  -4.385  0.00  0.00    -0.004 A 
ATOM     40  C   UNL     1       4.516   5.329  -3.092  0.00  0.00    -0.000 A 
ATOM     41  C   UNL     1       4.112   6.636  -2.850  0.00  0.00    -0.000 A 
ATOM     42  C   UNL     1       4.152   7.493  -3.935  0.00  0.00    -0.000 A 
ATOM     43  C   UNL     1       4.427   7.053  -5.223  0.00  0.00    -0.004 A 
ENDBRANCH  37  38
ENDBRANCH  26  37
ENDBRANCH  24  26
ENDBRANCH  23  24
ENDBRANCH   1  23
BRANCH   1  44
ATOM     44  C   UNL     1       5.496   7.632 -10.754  0.00  0.00    +0.048 C 
BRANCH  44  45
ATOM     45  C   UNL     1       6.747   7.253 -11.487  0.00  0.00    -0.020 A 
ATOM     46  C   UNL     1       7.754   6.498 -10.894  0.00  0.00    -0.004 A 
ATOM     47  C   UNL     1       8.520   5.601 -11.631  0.00  0.00    -0.000 A 
ATOM     48  C   UNL     1       8.010   5.143 -12.842  0.00  0.00    -0.000 A 
ATOM     49  C   UNL     1       7.188   6.024 -13.535  0.00  0.00    -0.000 A 
ATOM     50  C   UNL     1       6.736   7.165 -12.875  0.00  0.00    -0.004 A 
ENDBRANCH  44  45
ENDBRANCH   1  44
TORSDOF 18
ENDMDL
MODEL 7
REMARK VINA RESULT:      -8.1      2.944     12.036
REMARK  Name = 
REMARK  18 active torsions:
REMARK  status: ('A' for Active; 'I' for Inactive)
REMARK    1  A    between atoms: C_2  and  C_4
REMARK    2  A    between atoms: C_6  and  C_7
REMARK    3  A    between atoms: C_7  and  N_8
REMARK    4  A    between atoms: N_12  and  C_13
REMARK    5  A    between atoms: C_13  and  C_14
REMARK    6  A    between atoms: C_13  and  C_46
REMARK    7  A    between atoms: N_16  and  C_17
REMARK    8  A    between atoms: C_17  and  C_18
REMARK    9  A    between atoms: C_17  and  C_25
REMARK   10  A    between atoms: C_18  and  C_19
REMARK   11  A    between atoms: C_25  and  C_26
REMARK   12  A    between atoms: C_26  and  C_28
REMARK   13  A    between atoms: C_28  and  C_29
REMARK   14  A    between atoms: C_28  and  N_36
REMARK   15  A    between atoms: C_29  and  C_30
REMARK   16  A    between atoms: C_37  and  O_39
REMARK   17  A    between atoms: O_39  and  C_40
REMARK   18  A    between atoms: C_40  and  C_41
REMARK                            x       y       z     vdW  Elec       q    Type
REMARK                         _______ _______ _______ _____ _____    ______ ____
ROOT
ATOM      1  C   UNL     1       4.540   5.903 -11.197  0.00  0.00    +0.102 C 
ENDROOT
BRANCH   1   3
ATOM      2  C   UNL     1       2.928   6.184 -13.154  0.00  0.00    +0.261 C 
ATOM      3  N   UNL     1       3.765   6.844 -12.203  0.00  0.00    -0.205 NA
ATOM      4  O   UNL     1       3.262   4.973 -13.348  0.00  0.00    -0.271 OA
BRANCH   2   5
ATOM      5  C   UNL     1       1.337   6.347 -12.879  0.00  0.00    +0.174 C 
BRANCH   5   8
ATOM      6  N   UNL     1       0.839   8.546 -16.020  0.00  0.00    -0.255 N 
ATOM      7  C   UNL     1       0.782   8.100 -14.656  0.00  0.00    +0.324 C 
ATOM      8  N   UNL     1       1.026   6.765 -14.367  0.00  0.00    -0.181 NA
ATOM      9  O   UNL     1       0.436   8.878 -13.746  0.00  0.00    -0.251 OA
ATOM     10  C   UNL     1       0.680   7.588 -17.105  0.00  0.00    +0.117 C 
BRANCH   6  11
ATOM     11  C   UNL     1       1.668   9.717 -16.233  0.00  0.00    +0.141 C 
BRANCH  11  15
ATOM     12  C   UNL     1       5.073   8.802 -17.074  0.00  0.00    +0.088 A 
ATOM     13  S   UNL     1       4.552   9.027 -18.696  0.00  0.00    -0.071 S 
ATOM     14  C   UNL     1       2.882   9.283 -18.377  0.00  0.00    +0.053 A 
ATOM     15  C   UNL     1       2.918   9.383 -16.989  0.00  0.00    +0.086 A 
ATOM     16  N   UNL     1       3.880   8.634 -16.463  0.00  0.00    -0.245 NA
BRANCH  12  18
ATOM     17  C   UNL     1       7.532   8.779 -17.333  0.00  0.00    +0.007 C 
ATOM     18  C   UNL     1       6.346   8.109 -16.695  0.00  0.00    +0.047 C 
ATOM     19  C   UNL     1       6.248   6.659 -17.106  0.00  0.00    +0.007 C 
ENDBRANCH  12  18
ENDBRANCH  11  15
ENDBRANCH   6  11
ENDBRANCH   5   8
BRANCH   5  20
ATOM     20  C   UNL     1       1.026   4.748 -13.158  0.00  0.00    +0.029 C 
ATOM     21  C   UNL     1       0.290   4.751 -14.466  0.00  0.00    +0.002 C 
ATOM     22  C   UNL     1       0.139   4.312 -12.018  0.00  0.00    +0.002 C 
ENDBRANCH   5  20
ENDBRANCH   2   5
ENDBRANCH   1   3
BRANCH   1  23
ATOM     23  C   UNL     1       3.481   5.949  -9.948  0.00  0.00    +0.057 C 
BRANCH  23  24
ATOM     24  C   UNL     1       4.418   6.126  -8.624  0.00  0.00    +0.174 C 
ATOM     25  O   UNL     1       5.074   4.769  -8.804  0.00  0.00    -0.221 OA
BRANCH  24  26
ATOM     26  C   UNL     1       3.138   5.564  -7.614  0.00  0.00    +0.133 C 
BRANCH  26  27
ATOM     27  N   UNL     1       3.919   5.637  -6.261  0.00  0.00    -0.168 NA
ATOM     28  C   UNL     1       3.423   4.849  -5.208  0.00  0.00    +0.421 C 
ATOM     29  O   UNL     1       2.643   3.875  -5.374  0.00  0.00    -0.225 OA
BRANCH  28  30
ATOM     30  O   UNL     1       4.217   4.675  -4.094  0.00  0.00    -0.428 OA
BRANCH  30  31
ATOM     31  C   UNL     1       3.914   4.965  -2.825  0.00  0.00    +0.245 C 
BRANCH  31  32
ATOM     32  C   UNL     1       3.671   6.284  -2.329  0.00  0.00    +0.071 A 
ATOM     33  S   UNL     1       4.007   6.650  -0.680  0.00  0.00    -0.065 S 
ATOM     34  C   UNL     1       3.712   8.342  -0.756  0.00  0.00    +0.134 A 
ATOM     35  N   UNL     1       3.905   8.525  -2.077  0.00  0.00    -0.235 NA
ATOM     36  C   UNL     1       3.500   7.534  -2.828  0.00  0.00    +0.105 A 
ENDBRANCH  31  32
ENDBRANCH  30  31
ENDBRANCH  28  30
ENDBRANCH  26  27
BRANCH  26  37
ATOM     37  C   UNL     1       2.521   7.066  -7.433  0.00  0.00    +0.051 C 
BRANCH  37  38
ATOM     38  C   UNL     1       1.097   6.747  -7.096  0.00  0.00    -0.020 A 
ATOM     39  C   UNL     1       0.598   7.015  -5.847  0.00  0.00    -0.004 A 
ATOM     40  C   UNL     1      -0.662   6.610  -5.458  0.00  0.00    -0.000 A 
ATOM     41  C   UNL     1      -1.252   5.544  -6.127  0.00  0.00    -0.000 A 
ATOM     42  C   UNL     1      -0.778   5.292  -7.401  0.00  0.00    -0.000 A 
ATOM     43  C   UNL     1       0.321   5.953  -7.932  0.00  0.00    -0.004 A 
ENDBRANCH  37  38
ENDBRANCH  26  37
ENDBRANCH  24  26
ENDBRANCH  23  24
ENDBRANCH   1  23
BRANCH   1  44
ATOM     44  C   UNL     1       5.407   7.164 -10.581  0.00  0.00    +0.048 C 
BRANCH  44  45
ATOM     45  C   UNL     1       6.714   7.117 -11.313  0.00  0.00    -0.020 A 
ATOM     46  C   UNL     1       7.809   6.409 -10.829  0.00  0.00    -0.004 A 
ATOM     47  C   UNL     1       8.713   5.791 -11.688  0.00  0.00    -0.000 A 
ATOM     48  C   UNL     1       8.299   5.513 -12.986  0.00  0.00    -0.000 A 
ATOM     49  C   UNL     1       7.369   6.389 -13.536  0.00  0.00    -0.000 A 
ATOM     50  C   UNL     1       6.742   7.302 -12.692  0.00  0.00    -0.004 A 
ENDBRANCH  44  45
ENDBRANCH   1  44
TORSDOF 18
ENDMDL
MODEL 8
REMARK VINA RESULT:      -7.7      2.535     11.828
REMARK  Name = 
REMARK  18 active torsions:
REMARK  status: ('A' for Active; 'I' for Inactive)
REMARK    1  A    between atoms: C_2  and  C_4
REMARK    2  A    between atoms: C_6  and  C_7
REMARK    3  A    between atoms: C_7  and  N_8
REMARK    4  A    between atoms: N_12  and  C_13
REMARK    5  A    between atoms: C_13  and  C_14
REMARK    6  A    between atoms: C_13  and  C_46
REMARK    7  A    between atoms: N_16  and  C_17
REMARK    8  A    between atoms: C_17  and  C_18
REMARK    9  A    between atoms: C_17  and  C_25
REMARK   10  A    between atoms: C_18  and  C_19
REMARK   11  A    between atoms: C_25  and  C_26
REMARK   12  A    between atoms: C_26  and  C_28
REMARK   13  A    between atoms: C_28  and  C_29
REMARK   14  A    between atoms: C_28  and  N_36
REMARK   15  A    between atoms: C_29  and  C_30
REMARK   16  A    between atoms: C_37  and  O_39
REMARK   17  A    between atoms: O_39  and  C_40
REMARK   18  A    between atoms: C_40  and  C_41
REMARK                            x       y       z     vdW  Elec       q    Type
REMARK                         _______ _______ _______ _____ _____    ______ ____
ROOT
ATOM      1  C   UNL     1       4.404   6.170 -10.581  0.00  0.00    +0.102 C 
ENDROOT
BRANCH   1   3
ATOM      2  C   UNL     1       2.925   6.286 -12.657  0.00  0.00    +0.261 C 
ATOM      3  N   UNL     1       3.670   7.027 -11.688  0.00  0.00    -0.205 NA
ATOM      4  O   UNL     1       3.313   5.080 -12.760  0.00  0.00    -0.271 OA
BRANCH   2   5
ATOM      5  C   UNL     1       1.314   6.402 -12.500  0.00  0.00    +0.174 C 
BRANCH   5   8
ATOM      6  N   UNL     1       0.966   8.423 -15.778  0.00  0.00    -0.255 N 
ATOM      7  C   UNL     1       0.827   8.043 -14.400  0.00  0.00    +0.324 C 
ATOM      8  N   UNL     1       1.095   6.735 -14.026  0.00  0.00    -0.181 NA
ATOM      9  O   UNL     1       0.393   8.852 -13.558  0.00  0.00    -0.251 OA
ATOM     10  C   UNL     1       0.915   7.408 -16.820  0.00  0.00    +0.117 C 
BRANCH   6  11
ATOM     11  C   UNL     1       1.768   9.612 -15.994  0.00  0.00    +0.141 C 
BRANCH  11  15
ATOM     12  C   UNL     1       4.991   8.527 -17.249  0.00  0.00    +0.088 A 
ATOM     13  S   UNL     1       4.469   9.244 -18.721  0.00  0.00    -0.071 S 
ATOM     14  C   UNL     1       2.859   9.618 -18.246  0.00  0.00    +0.053 A 
ATOM     15  C   UNL     1       2.941   9.336 -16.885  0.00  0.00    +0.086 A 
ATOM     16  N   UNL     1       3.801   8.356 -16.633  0.00  0.00    -0.245 NA
BRANCH  12  18
ATOM     17  C   UNL     1       7.457   8.367 -17.164  0.00  0.00    +0.007 C 
ATOM     18  C   UNL     1       6.164   7.601 -17.143  0.00  0.00    +0.047 C 
ATOM     19  C   UNL     1       6.097   6.605 -18.277  0.00  0.00    +0.007 C 
ENDBRANCH  12  18
ENDBRANCH  11  15
ENDBRANCH   6  11
ENDBRANCH   5   8
BRANCH   5  20
ATOM     20  C   UNL     1       1.079   4.781 -12.717  0.00  0.00    +0.029 C 
ATOM     21  C   UNL     1       0.636   4.673 -14.147  0.00  0.00    +0.002 C 
ATOM     22  C   UNL     1      -0.027   4.410 -11.760  0.00  0.00    +0.002 C 
ENDBRANCH   5  20
ENDBRANCH   2   5
ENDBRANCH   1   3
BRANCH   1  23
ATOM     23  C   UNL     1       3.598   6.721  -9.266  0.00  0.00    +0.057 C 
BRANCH  23  24
ATOM     24  C   UNL     1       2.942   5.384  -8.599  0.00  0.00    +0.174 C 
ATOM     25  O   UNL     1       1.524   5.814  -8.925  0.00  0.00    -0.221 OA
BRANCH  24  26
ATOM     26  C   UNL     1       2.988   6.113  -7.037  0.00  0.00    +0.133 C 
BRANCH  26  27
ATOM     27  N   UNL     1       1.899   5.206  -6.374  0.00  0.00    -0.168 NA
ATOM     28  C   UNL     1       1.055   5.825  -5.435  0.00  0.00    +0.421 C 
ATOM     29  O   UNL     1       0.898   7.071  -5.355  0.00  0.00    -0.225 OA
BRANCH  28  30
ATOM     30  O   UNL     1      -0.074   5.147  -5.028  0.00  0.00    -0.428 OA
BRANCH  30  31
ATOM     31  C   UNL     1      -1.248   5.668  -4.658  0.00  0.00    +0.245 C 
BRANCH  31  32
ATOM     32  C   UNL     1      -1.568   6.086  -3.327  0.00  0.00    +0.071 A 
ATOM     33  S   UNL     1      -0.554   5.614  -2.018  0.00  0.00    -0.065 S 
ATOM     34  C   UNL     1      -1.317   6.545  -0.791  0.00  0.00    +0.134 A 
ATOM     35  N   UNL     1      -1.892   7.481  -1.570  0.00  0.00    -0.235 NA
ATOM     36  C   UNL     1      -2.322   7.039  -2.724  0.00  0.00    +0.105 A 
ENDBRANCH  31  32
ENDBRANCH  30  31
ENDBRANCH  28  30
ENDBRANCH  26  27
BRANCH  26  37
ATOM     37  C   UNL     1       4.209   5.148  -6.539  0.00  0.00    +0.051 C 
BRANCH  37  38
ATOM     38  C   UNL     1       4.511   5.744  -5.199  0.00  0.00    -0.020 A 
ATOM     39  C   UNL     1       4.389   4.993  -4.058  0.00  0.00    -0.004 A 
ATOM     40  C   UNL     1       4.523   5.543  -2.800  0.00  0.00    -0.000 A 
ATOM     41  C   UNL     1       4.316   6.909  -2.647  0.00  0.00    -0.000 A 
ATOM     42  C   UNL     1       4.473   7.676  -3.788  0.00  0.00    -0.000 A 
ATOM     43  C   UNL     1       4.672   7.115  -5.042  0.00  0.00    -0.004 A 
ENDBRANCH  37  38
ENDBRANCH  26  37
ENDBRANCH  24  26
ENDBRANCH  23  24
ENDBRANCH   1  23
BRANCH   1  44
ATOM     44  C   UNL     1       5.590   7.302 -10.397  0.00  0.00    +0.048 C 
BRANCH  44  45
ATOM     45  C   UNL     1       6.635   6.919 -11.401  0.00  0.00    -0.020 A 
ATOM     46  C   UNL     1       7.237   5.665 -11.402  0.00  0.00    -0.004 A 
ATOM     47  C   UNL     1       7.636   5.052 -12.586  0.00  0.00    -0.000 A 
ATOM     48  C   UNL     1       7.055   5.480 -13.774  0.00  0.00    -0.000 A 
ATOM     49  C   UNL     1       6.677   6.817 -13.827  0.00  0.00    -0.000 A 
ATOM     50  C   UNL     1       6.666   7.548 -12.641  0.00  0.00    -0.004 A 
ENDBRANCH  44  45
ENDBRANCH   1  44
TORSDOF 18
ENDMDL
MODEL 9
REMARK VINA RESULT:      -7.6      2.548      3.866
REMARK  Name = 
REMARK  18 active torsions:
REMARK  status: ('A' for Active; 'I' for Inactive)
REMARK    1  A    between atoms: C_2  and  C_4
REMARK    2  A    between atoms: C_6  and  C_7
REMARK    3  A    between atoms: C_7  and  N_8
REMARK    4  A    between atoms: N_12  and  C_13
REMARK    5  A    between atoms: C_13  and  C_14
REMARK    6  A    between atoms: C_13  and  C_46
REMARK    7  A    between atoms: N_16  and  C_17
REMARK    8  A    between atoms: C_17  and  C_18
REMARK    9  A    between atoms: C_17  and  C_25
REMARK   10  A    between atoms: C_18  and  C_19
REMARK   11  A    between atoms: C_25  and  C_26
REMARK   12  A    between atoms: C_26  and  C_28
REMARK   13  A    between atoms: C_28  and  C_29
REMARK   14  A    between atoms: C_28  and  N_36
REMARK   15  A    between atoms: C_29  and  C_30
REMARK   16  A    between atoms: C_37  and  O_39
REMARK   17  A    between atoms: O_39  and  C_40
REMARK   18  A    between atoms: C_40  and  C_41
REMARK                            x       y       z     vdW  Elec       q    Type
REMARK                         _______ _______ _______ _____ _____    ______ ____
ROOT
ATOM      1  C   UNL     1       2.191   6.803  -4.402  0.00  0.00    +0.102 C 
ENDROOT
BRANCH   1   3
ATOM      2  C   UNL     1       0.420   5.126  -3.653  0.00  0.00    +0.261 C 
ATOM      3  N   UNL     1       1.372   5.475  -4.660  0.00  0.00    -0.205 NA
ATOM      4  O   UNL     1       0.676   5.656  -2.527  0.00  0.00    -0.271 OA
BRANCH   2   5
ATOM      5  C   UNL     1      -1.129   5.331  -4.091  0.00  0.00    +0.174 C 
BRANCH   5   8
ATOM      6  N   UNL     1      -2.011   6.869  -0.655  0.00  0.00    -0.255 N 
ATOM      7  C   UNL     1      -2.058   6.015  -1.808  0.00  0.00    +0.324 C 
ATOM      8  N   UNL     1      -1.403   6.404  -2.968  0.00  0.00    -0.181 NA
ATOM      9  O   UNL     1      -2.747   4.977  -1.804  0.00  0.00    -0.251 OA
ATOM     10  C   UNL     1      -1.713   8.285  -0.810  0.00  0.00    +0.117 C 
BRANCH   6  11
ATOM     11  C   UNL     1      -1.618   6.198   0.570  0.00  0.00    +0.141 C 
BRANCH  11  15
ATOM     12  C   UNL     1       0.440   8.488   2.482  0.00  0.00    +0.088 A 
ATOM     13  S   UNL     1      -0.924   8.578   3.522  0.00  0.00    -0.071 S 
ATOM     14  C   UNL     1      -2.014   7.652   2.567  0.00  0.00    +0.053 A 
ATOM     15  C   UNL     1      -1.133   7.169   1.604  0.00  0.00    +0.086 A 
ATOM     16  N   UNL     1      -0.148   8.025   1.358  0.00  0.00    -0.245 NA
BRANCH  12  18
ATOM     17  C   UNL     1       1.507  10.327   3.746  0.00  0.00    +0.007 C 
ATOM     18  C   UNL     1       1.587   9.451   2.527  0.00  0.00    +0.047 C 
ATOM     19  C   UNL     1       1.578  10.273   1.260  0.00  0.00    +0.007 C 
ENDBRANCH  12  18
ENDBRANCH  11  15
ENDBRANCH   6  11
ENDBRANCH   5   8
BRANCH   5  20
ATOM     20  C   UNL     1      -0.758   6.471  -5.229  0.00  0.00    +0.029 C 
ATOM     21  C   UNL     1      -1.387   7.725  -4.695  0.00  0.00    +0.002 C 
ATOM     22  C   UNL     1      -1.432   6.002  -6.494  0.00  0.00    +0.002 C 
ENDBRANCH   5  20
ENDBRANCH   2   5
ENDBRANCH   1   3
BRANCH   1  23
ATOM     23  C   UNL     1       2.725   7.065  -5.928  0.00  0.00    +0.057 C 
BRANCH  23  24
ATOM     24  C   UNL     1       3.146   5.586  -6.474  0.00  0.00    +0.174 C 
ATOM     25  O   UNL     1       4.608   5.962  -6.617  0.00  0.00    -0.221 OA
BRANCH  24  26
ATOM     26  C   UNL     1       2.697   6.026  -8.080  0.00  0.00    +0.133 C 
BRANCH  26  27
ATOM     27  N   UNL     1       3.801   5.197  -8.817  0.00  0.00    -0.168 NA
ATOM     28  C   UNL     1       4.415   5.814  -9.921  0.00  0.00    +0.421 C 
ATOM     29  O   UNL     1       4.384   7.055 -10.132  0.00  0.00    -0.225 OA
BRANCH  28  30
ATOM     30  O   UNL     1       5.561   5.243 -10.433  0.00  0.00    -0.428 OA
BRANCH  30  31
ATOM     31  C   UNL     1       6.547   5.853 -11.098  0.00  0.00    +0.245 C 
BRANCH  31  32
ATOM     32  C   UNL     1       6.673   5.876 -12.523  0.00  0.00    +0.071 A 
ATOM     33  S   UNL     1       5.270   6.081 -13.500  0.00  0.00    -0.065 S 
ATOM     34  C   UNL     1       6.065   6.216 -15.018  0.00  0.00    +0.134 A 
ATOM     35  N   UNL     1       7.277   6.612 -14.580  0.00  0.00    -0.235 NA
ATOM     36  C   UNL     1       7.647   6.077 -13.446  0.00  0.00    +0.105 A 
ENDBRANCH  31  32
ENDBRANCH  30  31
ENDBRANCH  28  30
ENDBRANCH  26  27
BRANCH  26  37
ATOM     37  C   UNL     1       1.604   4.816  -8.187  0.00  0.00    +0.051 C 
BRANCH  37  38
ATOM     38  C   UNL     1       0.827   5.244  -9.394  0.00  0.00    -0.020 A 
ATOM     39  C   UNL     1       0.565   4.356 -10.406  0.00  0.00    -0.004 A 
ATOM     40  C   UNL     1      -0.024   4.747 -11.590  0.00  0.00    -0.000 A 
ATOM     41  C   UNL     1       0.067   6.082 -11.968  0.00  0.00    -0.000 A 
ATOM     42  C   UNL     1       0.296   6.986 -10.946  0.00  0.00    -0.000 A 
ATOM     43  C   UNL     1       0.572   6.587  -9.646  0.00  0.00    -0.004 A 
ENDBRANCH  37  38
ENDBRANCH  26  37
ENDBRANCH  24  26
ENDBRANCH  23  24
ENDBRANCH   1  23
BRANCH   1  44
ATOM     44  C   UNL     1       3.555   5.964  -4.009  0.00  0.00    +0.048 C 
BRANCH  44  45
ATOM     45  C   UNL     1       4.109   6.682  -2.816  0.00  0.00    -0.020 A 
ATOM     46  C   UNL     1       3.871   8.033  -2.587  0.00  0.00    -0.004 A 
ATOM     47  C   UNL     1       3.752   8.542  -1.298  0.00  0.00    -0.000 A 
ATOM     48  C   UNL     1       3.444   7.659  -0.270  0.00  0.00    -0.000 A 
ATOM     49  C   UNL     1       3.908   6.357  -0.417  0.00  0.00    -0.000 A 
ATOM     50  C   UNL     1       4.409   5.971  -1.658  0.00  0.00    -0.004 A 
ENDBRANCH  44  45
ENDBRANCH   1  44
TORSDOF 18
ENDMDL
