MODEL 1
REMARK VINA RESULT:      -8.1      0.000      0.000
REMARK  Name = 
REMARK  2 active torsions:
REMARK  status: ('A' for Active; 'I' for Inactive)
REMARK    1  A    between atoms: C_2  and  C_3
REMARK    2  A    between atoms: C_22  and  C_23
REMARK                            x       y       z     vdW  Elec       q    Type
REMARK                         _______ _______ _______ _____ _____    ______ ____
ROOT
ATOM      1  C   UNL     1       2.095   5.597  -8.989  0.00  0.00    +0.180 C 
ATOM      2  C   UNL     1       1.805   5.394  -7.548  0.00  0.00    +0.037 C 
ATOM      3  C   UNL     1       3.149   6.169  -7.079  0.00  0.00    +0.003 C 
ATOM      4  C   UNL     1       2.565   6.395  -5.515  0.00  0.00    +0.001 C 
ATOM      5  C   UNL     1       3.410   5.048  -5.003  0.00  0.00    +0.004 C 
ATOM      6  C   UNL     1       2.203   4.083  -5.464  0.00  0.00    +0.000 C 
ATOM      7  C   UNL     1       2.882   5.025  -3.399  0.00  0.00    +0.019 C 
ATOM      8  C   UNL     1       2.913   6.573  -3.062  0.00  0.00    -0.043 C 
ATOM      9  C   UNL     1       2.801   6.706  -1.736  0.00  0.00    +0.010 C 
ATOM     10  C   UNL     1       3.562   5.939  -0.752  0.00  0.00    +0.101 C 
ATOM     11  C   UNL     1       4.297   4.773  -1.327  0.00  0.00    +0.050 C 
ATOM     12  N   UNL     1       4.000   6.441   0.369  0.00  0.00    -0.034 NA
ATOM     13  O   UNL     1       4.648   7.661   0.269  0.00  0.00    -0.143 OA
ATOM     14  C   UNL     1       3.537   7.602  -3.818  0.00  0.00    +0.022 C 
ATOM     15  C   UNL     1       4.404   4.840  -2.834  0.00  0.00    +0.010 C 
ATOM     16  C   UNL     1       3.815   7.367  -5.228  0.00  0.00    +0.004 C 
ATOM     17  C   UNL     1       2.532   7.564  -7.619  0.00  0.00    +0.004 C 
ATOM     18  C   UNL     1       2.070   4.088  -6.945  0.00  0.00    +0.003 C 
ATOM     19  C   UNL     1       2.195   7.122  -9.040  0.00  0.00    +0.043 C 
ATOM     20  O   UNL     1       1.100   5.195  -9.857  0.00  0.00    -0.212 OA
ENDROOT
BRANCH   1  22
ATOM     21  C   UNL     1       4.379   4.906  -9.897  0.00  0.00    -0.012 C 
ATOM     22  C   UNL     1       3.426   5.119  -9.399  0.00  0.00    -0.049 C 
ENDBRANCH   1  22
BRANCH   2  23
ATOM     23  C   UNL     1       0.648   6.175  -7.075  0.00  0.00    +0.003 C 
ATOM     24  C   UNL     1      -0.665   5.467  -7.070  0.00  0.00    +0.000 C 
ENDBRANCH   2  23
TORSDOF 2
ENDMDL
MODEL 2
REMARK VINA RESULT:      -7.8      4.468      7.184
REMARK  Name = 
REMARK  2 active torsions:
REMARK  status: ('A' for Active; 'I' for Inactive)
REMARK    1  A    between atoms: C_2  and  C_3
REMARK    2  A    between atoms: C_22  and  C_23
REMARK                            x       y       z     vdW  Elec       q    Type
REMARK                         _______ _______ _______ _____ _____    ______ ____
ROOT
ATOM      1  C   UNL     1       0.537   5.512  -7.326  0.00  0.00    +0.180 C 
ATOM      2  C   UNL     1       1.255   5.563  -8.623  0.00  0.00    +0.037 C 
ATOM      3  C   UNL     1       2.700   5.757  -7.916  0.00  0.00    +0.003 C 
ATOM      4  C   UNL     1       3.529   5.292  -9.308  0.00  0.00    +0.001 C 
ATOM      5  C   UNL     1       3.744   6.897  -9.717  0.00  0.00    +0.004 C 
ATOM      6  C   UNL     1       2.296   6.937 -10.425  0.00  0.00    +0.000 C 
ATOM      7  C   UNL     1       4.518   6.667 -11.201  0.00  0.00    +0.019 C 
ATOM      8  C   UNL     1       5.474   5.455 -10.844  0.00  0.00    -0.043 C 
ATOM      9  C   UNL     1       6.370   5.335 -11.829  0.00  0.00    +0.010 C 
ATOM     10  C   UNL     1       7.123   6.444 -12.413  0.00  0.00    +0.101 C 
ATOM     11  C   UNL     1       6.620   7.794 -12.019  0.00  0.00    +0.050 C 
ATOM     12  N   UNL     1       8.365   6.346 -12.798  0.00  0.00    -0.034 NA
ATOM     13  O   UNL     1       9.229   5.746 -11.897  0.00  0.00    -0.143 OA
ATOM     14  C   UNL     1       5.792   4.968  -9.546  0.00  0.00    +0.022 C 
ATOM     15  C   UNL     1       5.690   7.742 -10.827  0.00  0.00    +0.010 C 
ATOM     16  C   UNL     1       4.887   5.264  -8.444  0.00  0.00    +0.004 C 
ATOM     17  C   UNL     1       2.619   4.246  -7.339  0.00  0.00    +0.004 C 
ATOM     18  C   UNL     1       1.217   6.794  -9.412  0.00  0.00    +0.003 C 
ATOM     19  C   UNL     1       1.259   4.344  -6.653  0.00  0.00    +0.043 C 
ATOM     20  O   UNL     1      -0.807   5.210  -7.402  0.00  0.00    -0.212 OA
ENDROOT
BRANCH   1  22
ATOM     21  C   UNL     1       0.882   7.401  -5.643  0.00  0.00    -0.012 C 
ATOM     22  C   UNL     1       0.804   6.670  -6.456  0.00  0.00    -0.049 C 
ENDBRANCH   1  22
BRANCH   2  23
ATOM     23  C   UNL     1       1.269   4.267  -9.327  0.00  0.00    +0.003 C 
ATOM     24  C   UNL     1       0.316   4.127 -10.466  0.00  0.00    +0.000 C 
ENDBRANCH   2  23
TORSDOF 2
ENDMDL
MODEL 3
REMARK VINA RESULT:      -7.5      3.719      7.092
REMARK  Name = 
REMARK  2 active torsions:
REMARK  status: ('A' for Active; 'I' for Inactive)
REMARK    1  A    between atoms: C_2  and  C_3
REMARK    2  A    between atoms: C_22  and  C_23
REMARK                            x       y       z     vdW  Elec       q    Type
REMARK                         _______ _______ _______ _____ _____    ______ ____
ROOT
ATOM      1  C   UNL     1       1.374   6.096  -5.296  0.00  0.00    +0.180 C 
ATOM      2  C   UNL     1       1.561   6.226  -6.762  0.00  0.00    +0.037 C 
ATOM      3  C   UNL     1       3.115   5.769  -6.692  0.00  0.00    +0.003 C 
ATOM      4  C   UNL     1       3.166   5.415  -8.338  0.00  0.00    +0.001 C 
ATOM      5  C   UNL     1       3.834   6.915  -8.642  0.00  0.00    +0.004 C 
ATOM      6  C   UNL     1       2.369   7.587  -8.689  0.00  0.00    +0.000 C 
ATOM      7  C   UNL     1       3.897   6.816 -10.328  0.00  0.00    +0.019 C 
ATOM      8  C   UNL     1       4.364   5.313 -10.511  0.00  0.00    -0.043 C 
ATOM      9  C   UNL     1       4.746   5.154 -11.783  0.00  0.00    +0.010 C 
ATOM     10  C   UNL     1       5.621   6.070 -12.513  0.00  0.00    +0.101 C 
ATOM     11  C   UNL     1       5.852   7.372 -11.819  0.00  0.00    +0.050 C 
ATOM     12  N   UNL     1       6.513   5.676 -13.378  0.00  0.00    -0.034 NA
ATOM     13  O   UNL     1       7.326   4.632 -12.972  0.00  0.00    -0.143 OA
ATOM     14  C   UNL     1       4.892   4.451  -9.510  0.00  0.00    +0.022 C 
ATOM     15  C   UNL     1       5.446   7.334 -10.362  0.00  0.00    +0.010 C 
ATOM     16  C   UNL     1       4.611   4.745  -8.112  0.00  0.00    +0.004 C 
ATOM     17  C   UNL     1       2.656   4.272  -6.281  0.00  0.00    +0.004 C 
ATOM     18  C   UNL     1       1.739   7.556  -7.343  0.00  0.00    +0.003 C 
ATOM     19  C   UNL     1       1.766   4.632  -5.094  0.00  0.00    +0.043 C 
ATOM     20  O   UNL     1       0.081   6.267  -4.846  0.00  0.00    -0.212 OA
ENDROOT
BRANCH   1  22
ATOM     21  C   UNL     1       2.999   7.289  -3.731  0.00  0.00    -0.012 C 
ATOM     22  C   UNL     1       2.351   6.860  -4.503  0.00  0.00    -0.049 C 
ENDBRANCH   1  22
BRANCH   2  23
ATOM     23  C   UNL     1       0.827   5.204  -7.532  0.00  0.00    +0.003 C 
ATOM     24  C   UNL     1      -0.523   5.599  -8.027  0.00  0.00    +0.000 C 
ENDBRANCH   2  23
TORSDOF 2
ENDMDL
MODEL 4
REMARK VINA RESULT:      -7.5      2.542      6.944
REMARK  Name = 
REMARK  2 active torsions:
REMARK  status: ('A' for Active; 'I' for Inactive)
REMARK    1  A    between atoms: C_2  and  C_3
REMARK    2  A    between atoms: C_22  and  C_23
REMARK                            x       y       z     vdW  Elec       q    Type
REMARK                         _______ _______ _______ _____ _____    ______ ____
ROOT
ATOM      1  C   UNL     1       3.794   7.229  -0.408  0.00  0.00    +0.180 C 
ATOM      2  C   UNL     1       3.247   6.335  -1.458  0.00  0.00    +0.037 C 
ATOM      3  C   UNL     1       3.551   7.397  -2.644  0.00  0.00    +0.003 C 
ATOM      4  C   UNL     1       3.430   6.215  -3.839  0.00  0.00    +0.001 C 
ATOM      5  C   UNL     1       1.846   6.663  -4.124  0.00  0.00    +0.004 C 
ATOM      6  C   UNL     1       1.334   5.708  -2.930  0.00  0.00    +0.000 C 
ATOM      7  C   UNL     1       1.470   5.496  -5.286  0.00  0.00    +0.019 C 
ATOM      8  C   UNL     1       2.810   5.487  -6.130  0.00  0.00    -0.043 C 
ATOM      9  C   UNL     1       2.573   4.826  -7.268  0.00  0.00    +0.010 C 
ATOM     10  C   UNL     1       1.411   5.035  -8.130  0.00  0.00    +0.101 C 
ATOM     11  C   UNL     1       0.335   5.863  -7.507  0.00  0.00    +0.050 C 
ATOM     12  N   UNL     1       1.461   4.983  -9.432  0.00  0.00    -0.034 NA
ATOM     13  O   UNL     1       2.492   5.694 -10.023  0.00  0.00    -0.143 OA
ATOM     14  C   UNL     1       3.859   6.445  -6.085  0.00  0.00    +0.022 C 
ATOM     15  C   UNL     1       0.813   6.612  -6.283  0.00  0.00    +0.010 C 
ATOM     16  C   UNL     1       3.992   7.285  -4.902  0.00  0.00    +0.004 C 
ATOM     17  C   UNL     1       5.141   7.170  -2.438  0.00  0.00    +0.004 C 
ATOM     18  C   UNL     1       1.797   6.224  -1.615  0.00  0.00    +0.003 C 
ATOM     19  C   UNL     1       5.212   7.447  -0.939  0.00  0.00    +0.043 C 
ATOM     20  O   UNL     1       3.881   6.679   0.854  0.00  0.00    -0.212 OA
ENDROOT
BRANCH   1  22
ATOM     21  C   UNL     1       2.863   9.595  -0.182  0.00  0.00    -0.012 C 
ATOM     22  C   UNL     1       3.187   8.571  -0.396  0.00  0.00    -0.049 C 
ENDBRANCH   1  22
BRANCH   2  23
ATOM     23  C   UNL     1       4.082   5.144  -1.696  0.00  0.00    +0.003 C 
ATOM     24  C   UNL     1       3.669   3.899  -0.987  0.00  0.00    +0.000 C 
ENDBRANCH   2  23
TORSDOF 2
ENDMDL
MODEL 5
REMARK VINA RESULT:      -7.5      3.809      7.545
REMARK  Name = 
REMARK  2 active torsions:
REMARK  status: ('A' for Active; 'I' for Inactive)
REMARK    1  A    between atoms: C_2  and  C_3
REMARK    2  A    between atoms: C_22  and  C_23
REMARK                            x       y       z     vdW  Elec       q    Type
REMARK                         _______ _______ _______ _____ _____    ______ ____
ROOT
ATOM      1  C   UNL     1       2.569   6.169  -4.828  0.00  0.00    +0.180 C 
ATOM      2  C   UNL     1       1.866   6.474  -6.098  0.00  0.00    +0.037 C 
ATOM      3  C   UNL     1       2.657   5.320  -6.915  0.00  0.00    +0.003 C 
ATOM      4  C   UNL     1       1.520   5.313  -8.159  0.00  0.00    +0.001 C 
ATOM      5  C   UNL     1       2.494   6.329  -9.057  0.00  0.00    +0.004 C 
ATOM      6  C   UNL     1       1.878   7.620  -8.313  0.00  0.00    +0.000 C 
ATOM      7  C   UNL     1       1.467   6.541 -10.382  0.00  0.00    +0.019 C 
ATOM      8  C   UNL     1       0.909   5.068 -10.553  0.00  0.00    -0.043 C 
ATOM      9  C   UNL     1       0.302   4.995 -11.743  0.00  0.00    +0.010 C 
ATOM     10  C   UNL     1       0.861   5.495 -12.998  0.00  0.00    +0.101 C 
ATOM     11  C   UNL     1       2.066   6.360 -12.824  0.00  0.00    +0.050 C 
ATOM     12  N   UNL     1       0.703   4.896 -14.145  0.00  0.00    -0.034 NA
ATOM     13  O   UNL     1       0.944   3.533 -14.150  0.00  0.00    -0.143 OA
ATOM     14  C   UNL     1       1.419   3.883  -9.955  0.00  0.00    +0.022 C 
ATOM     15  C   UNL     1       2.673   6.241 -11.444  0.00  0.00    +0.010 C 
ATOM     16  C   UNL     1       2.233   3.998  -8.753  0.00  0.00    +0.004 C 
ATOM     17  C   UNL     1       1.880   4.184  -6.062  0.00  0.00    +0.004 C 
ATOM     18  C   UNL     1       2.281   7.637  -6.882  0.00  0.00    +0.003 C 
ATOM     19  C   UNL     1       2.217   4.691  -4.662  0.00  0.00    +0.043 C 
ATOM     20  O   UNL     1       2.115   6.853  -3.719  0.00  0.00    -0.212 OA
ENDROOT
BRANCH   1  22
ATOM     21  C   UNL     1       5.115   6.366  -4.839  0.00  0.00    -0.012 C 
ATOM     22  C   UNL     1       4.037   6.195  -4.943  0.00  0.00    -0.049 C 
ENDBRANCH   1  22
BRANCH   2  23
ATOM     23  C   UNL     1       0.438   6.107  -6.071  0.00  0.00    +0.003 C 
ATOM     24  C   UNL     1      -0.484   7.100  -5.447  0.00  0.00    +0.000 C 
ENDBRANCH   2  23
TORSDOF 2
ENDMDL
MODEL 6
REMARK VINA RESULT:      -7.4      3.307      4.789
REMARK  Name = 
REMARK  2 active torsions:
REMARK  status: ('A' for Active; 'I' for Inactive)
REMARK    1  A    between atoms: C_2  and  C_3
REMARK    2  A    between atoms: C_22  and  C_23
REMARK                            x       y       z     vdW  Elec       q    Type
REMARK                         _______ _______ _______ _____ _____    ______ ____
ROOT
ATOM      1  C   UNL     1       4.134   5.488  -8.187  0.00  0.00    +0.180 C 
ATOM      2  C   UNL     1       3.457   5.691  -6.882  0.00  0.00    +0.037 C 
ATOM      3  C   UNL     1       1.978   5.650  -7.544  0.00  0.00    +0.003 C 
ATOM      4  C   UNL     1       1.238   5.353  -6.060  0.00  0.00    +0.001 C 
ATOM      5  C   UNL     1       0.897   6.981  -5.903  0.00  0.00    +0.004 C 
ATOM      6  C   UNL     1       2.359   7.252  -5.278  0.00  0.00    +0.000 C 
ATOM      7  C   UNL     1       0.195   6.934  -4.367  0.00  0.00    +0.019 C 
ATOM      8  C   UNL     1      -0.663   5.607  -4.482  0.00  0.00    -0.043 C 
ATOM      9  C   UNL     1      -1.513   5.577  -3.450  0.00  0.00    +0.010 C 
ATOM     10  C   UNL     1      -2.341   6.702  -3.017  0.00  0.00    +0.101 C 
ATOM     11  C   UNL     1      -1.970   8.006  -3.645  0.00  0.00    +0.050 C 
ATOM     12  N   UNL     1      -3.556   6.569  -2.565  0.00  0.00    -0.034 NA
ATOM     13  O   UNL     1      -4.393   5.762  -3.318  0.00  0.00    -0.143 OA
ATOM     14  C   UNL     1      -0.979   4.891  -5.669  0.00  0.00    +0.022 C 
ATOM     15  C   UNL     1      -1.078   7.836  -4.854  0.00  0.00    +0.010 C 
ATOM     16  C   UNL     1      -0.139   5.075  -6.844  0.00  0.00    +0.004 C 
ATOM     17  C   UNL     1       2.172   4.077  -7.876  0.00  0.00    +0.004 C 
ATOM     18  C   UNL     1       3.413   7.033  -6.304  0.00  0.00    +0.003 C 
ATOM     19  C   UNL     1       3.495   4.171  -8.630  0.00  0.00    +0.043 C 
ATOM     20  O   UNL     1       5.501   5.311  -8.125  0.00  0.00    -0.212 OA
ENDROOT
BRANCH   1  22
ATOM     21  C   UNL     1       3.653   7.120 -10.090  0.00  0.00    -0.012 C 
ATOM     22  C   UNL     1       3.739   6.463  -9.217  0.00  0.00    -0.049 C 
ENDBRANCH   1  22
BRANCH   2  23
ATOM     23  C   UNL     1       3.579   4.531  -5.981  0.00  0.00    +0.003 C 
ATOM     24  C   UNL     1       4.517   4.686  -4.832  0.00  0.00    +0.000 C 
ENDBRANCH   2  23
TORSDOF 2
ENDMDL
MODEL 7
REMARK VINA RESULT:      -7.4      3.375      4.633
REMARK  Name = 
REMARK  2 active torsions:
REMARK  status: ('A' for Active; 'I' for Inactive)
REMARK    1  A    between atoms: C_2  and  C_3
REMARK    2  A    between atoms: C_22  and  C_23
REMARK                            x       y       z     vdW  Elec       q    Type
REMARK                         _______ _______ _______ _____ _____    ______ ____
ROOT
ATOM      1  C   UNL     1       1.427   5.891 -11.011  0.00  0.00    +0.180 C 
ATOM      2  C   UNL     1       1.660   5.891  -9.546  0.00  0.00    +0.037 C 
ATOM      3  C   UNL     1       0.076   5.827  -9.206  0.00  0.00    +0.003 C 
ATOM      4  C   UNL     1       0.357   5.306  -7.629  0.00  0.00    +0.001 C 
ATOM      5  C   UNL     1       0.201   6.876  -7.081  0.00  0.00    +0.004 C 
ATOM      6  C   UNL     1       1.752   7.171  -7.408  0.00  0.00    +0.000 C 
ATOM      7  C   UNL     1       0.547   6.600  -5.450  0.00  0.00    +0.019 C 
ATOM      8  C   UNL     1      -0.232   5.240  -5.217  0.00  0.00    -0.043 C 
ATOM      9  C   UNL     1      -0.304   5.030  -3.898  0.00  0.00    +0.010 C 
ATOM     10  C   UNL     1      -0.696   6.035  -2.912  0.00  0.00    +0.101 C 
ATOM     11  C   UNL     1      -0.750   7.427  -3.452  0.00  0.00    +0.050 C 
ATOM     12  N   UNL     1      -1.408   5.766  -1.854  0.00  0.00    -0.034 NA
ATOM     13  O   UNL     1      -2.540   4.999  -2.069  0.00  0.00    -0.143 OA
ATOM     14  C   UNL     1      -1.202   4.650  -6.073  0.00  0.00    +0.022 C 
ATOM     15  C   UNL     1      -0.753   7.463  -4.964  0.00  0.00    +0.010 C 
ATOM     16  C   UNL     1      -1.221   5.029  -7.478  0.00  0.00    +0.004 C 
ATOM     17  C   UNL     1       0.010   4.322  -9.799  0.00  0.00    +0.004 C 
ATOM     18  C   UNL     1       1.988   7.149  -8.876  0.00  0.00    +0.003 C 
ATOM     19  C   UNL     1       0.630   4.596 -11.167  0.00  0.00    +0.043 C 
ATOM     20  O   UNL     1       2.561   5.803 -11.792  0.00  0.00    -0.212 OA
ENDROOT
BRANCH   1  22
ATOM     21  C   UNL     1      -0.154   7.626 -12.017  0.00  0.00    -0.012 C 
ATOM     22  C   UNL     1       0.513   6.952 -11.466  0.00  0.00    -0.049 C 
ENDBRANCH   1  22
BRANCH   2  23
ATOM     23  C   UNL     1       2.274   4.643  -9.058  0.00  0.00    +0.003 C 
ATOM     24  C   UNL     1       3.763   4.632  -8.976  0.00  0.00    +0.000 C 
ENDBRANCH   2  23
TORSDOF 2
ENDMDL
MODEL 8
REMARK VINA RESULT:      -7.3      2.914      3.534
REMARK  Name = 
REMARK  2 active torsions:
REMARK  status: ('A' for Active; 'I' for Inactive)
REMARK    1  A    between atoms: C_2  and  C_3
REMARK    2  A    between atoms: C_22  and  C_23
REMARK                            x       y       z     vdW  Elec       q    Type
REMARK                         _______ _______ _______ _____ _____    ______ ____
ROOT
ATOM      1  C   UNL     1       4.084   5.486  -9.844  0.00  0.00    +0.180 C 
ATOM      2  C   UNL     1       2.876   5.118  -9.066  0.00  0.00    +0.037 C 
ATOM      3  C   UNL     1       3.151   6.249  -7.938  0.00  0.00    +0.003 C 
ATOM      4  C   UNL     1       1.563   6.187  -7.378  0.00  0.00    +0.001 C 
ATOM      5  C   UNL     1       2.032   5.149  -6.157  0.00  0.00    +0.004 C 
ATOM      6  C   UNL     1       1.882   3.881  -7.142  0.00  0.00    +0.000 C 
ATOM      7  C   UNL     1       0.510   4.867  -5.481  0.00  0.00    +0.019 C 
ATOM      8  C   UNL     1      -0.110   6.323  -5.549  0.00  0.00    -0.043 C 
ATOM      9  C   UNL     1      -1.208   6.338  -4.785  0.00  0.00    +0.010 C 
ATOM     10  C   UNL     1      -1.290   5.794  -3.430  0.00  0.00    +0.101 C 
ATOM     11  C   UNL     1      -0.118   4.955  -3.040  0.00  0.00    +0.050 C 
ATOM     12  N   UNL     1      -1.989   6.343  -2.476  0.00  0.00    -0.034 NA
ATOM     13  O   UNL     1      -1.823   7.708  -2.317  0.00  0.00    -0.143 OA
ATOM     14  C   UNL     1       0.582   7.539  -5.800  0.00  0.00    +0.022 C 
ATOM     15  C   UNL     1       1.063   5.140  -3.967  0.00  0.00    +0.010 C 
ATOM     16  C   UNL     1       1.869   7.487  -6.479  0.00  0.00    +0.004 C 
ATOM     17  C   UNL     1       2.831   7.407  -9.023  0.00  0.00    +0.004 C 
ATOM     18  C   UNL     1       2.911   3.930  -8.214  0.00  0.00    +0.003 C 
ATOM     19  C   UNL     1       3.803   6.964 -10.113  0.00  0.00    +0.043 C 
ATOM     20  O   UNL     1       4.228   4.841 -11.056  0.00  0.00    -0.212 OA
ENDROOT
BRANCH   1  22
ATOM     21  C   UNL     1       6.355   5.440  -8.678  0.00  0.00    -0.012 C 
ATOM     22  C   UNL     1       5.325   5.477  -9.051  0.00  0.00    -0.049 C 
ENDBRANCH   1  22
BRANCH   2  23
ATOM     23  C   UNL     1       1.618   5.465  -9.752  0.00  0.00    +0.003 C 
ATOM     24  C   UNL     1       0.920   4.347 -10.450  0.00  0.00    +0.000 C 
ENDBRANCH   2  23
TORSDOF 2
ENDMDL
MODEL 9
REMARK VINA RESULT:      -7.3      3.863      7.046
REMARK  Name = 
REMARK  2 active torsions:
REMARK  status: ('A' for Active; 'I' for Inactive)
REMARK    1  A    between atoms: C_2  and  C_3
REMARK    2  A    between atoms: C_22  and  C_23
REMARK                            x       y       z     vdW  Elec       q    Type
REMARK                         _______ _______ _______ _____ _____    ______ ____
ROOT
ATOM      1  C   UNL     1       0.847   5.452  -5.817  0.00  0.00    +0.180 C 
ATOM      2  C   UNL     1       2.069   5.155  -6.604  0.00  0.00    +0.037 C 
ATOM      3  C   UNL     1       1.682   6.213  -7.770  0.00  0.00    +0.003 C 
ATOM      4  C   UNL     1       3.261   6.261  -8.356  0.00  0.00    +0.001 C 
ATOM      5  C   UNL     1       2.862   5.139  -9.527  0.00  0.00    +0.004 C 
ATOM      6  C   UNL     1       3.134   3.929  -8.496  0.00  0.00    +0.000 C 
ATOM      7  C   UNL     1       4.392   4.957 -10.221  0.00  0.00    +0.019 C 
ATOM      8  C   UNL     1       4.888   6.462 -10.221  0.00  0.00    -0.043 C 
ATOM      9  C   UNL     1       5.969   6.537 -11.006  0.00  0.00    +0.010 C 
ATOM     10  C   UNL     1       6.075   5.948 -12.340  0.00  0.00    +0.101 C 
ATOM     11  C   UNL     1       4.971   4.998 -12.674  0.00  0.00    +0.050 C 
ATOM     12  N   UNL     1       6.710   6.513 -13.328  0.00  0.00    -0.034 NA
ATOM     13  O   UNL     1       6.427   7.853 -13.537  0.00  0.00    -0.143 OA
ATOM     14  C   UNL     1       4.100   7.625 -10.005  0.00  0.00    +0.022 C 
ATOM     15  C   UNL     1       3.794   5.122 -11.733  0.00  0.00    +0.010 C 
ATOM     16  C   UNL     1       2.833   7.493  -9.300  0.00  0.00    +0.004 C 
ATOM     17  C   UNL     1       1.921   7.437  -6.737  0.00  0.00    +0.004 C 
ATOM     18  C   UNL     1       2.121   3.935  -7.408  0.00  0.00    +0.003 C 
ATOM     19  C   UNL     1       1.007   6.959  -5.612  0.00  0.00    +0.043 C 
ATOM     20  O   UNL     1       0.777   4.848  -4.579  0.00  0.00    -0.212 OA
ENDROOT
BRANCH   1  22
ATOM     21  C   UNL     1      -1.426   5.147  -6.940  0.00  0.00    -0.012 C 
ATOM     22  C   UNL     1      -0.401   5.308  -6.585  0.00  0.00    -0.049 C 
ENDBRANCH   1  22
BRANCH   2  23
ATOM     23  C   UNL     1       3.304   5.633  -5.955  0.00  0.00    +0.003 C 
ATOM     24  C   UNL     1       3.918   4.716  -4.953  0.00  0.00    +0.000 C 
ENDBRANCH   2  23
TORSDOF 2
ENDMDL
