MODEL 1
REMARK VINA RESULT:      -9.6      0.000      0.000
REMARK  Name = 
REMARK  2 active torsions:
REMARK  status: ('A' for Active; 'I' for Inactive)
REMARK    1  A    between atoms: C_2  and  N_5
REMARK    2  A    between atoms: C_6  and  C_8
REMARK                            x       y       z     vdW  Elec       q    Type
REMARK                         _______ _______ _______ _____ _____    ______ ____
ROOT
ATOM      1  C   UNL     1       4.007   4.419  -9.261  0.00  0.00    +0.078 C 
ATOM      2  C   UNL     1       2.882   5.297  -8.496  0.00  0.00    +0.008 C 
ATOM      3  C   UNL     1       2.965   4.367  -7.173  0.00  0.00    +0.000 C 
ATOM      4  C   UNL     1       2.155   5.580  -6.329  0.00  0.00    +0.000 C 
ATOM      5  C   UNL     1       0.686   4.793  -6.599  0.00  0.00    +0.005 C 
ATOM      6  C   UNL     1       0.496   5.464  -8.065  0.00  0.00    +0.000 C 
ATOM      7  C   UNL     1      -0.154   5.957  -5.879  0.00  0.00    +0.037 C 
ATOM      8  C   UNL     1      -0.065   5.602  -4.288  0.00  0.00    +0.099 C 
ATOM      9  N   UNL     1      -0.540   7.044  -3.860  0.00  0.00    -0.203 NA
ATOM     10  C   UNL     1      -1.766   7.478  -4.452  0.00  0.00    +0.265 C 
ATOM     11  C   UNL     1      -2.352   6.639  -5.507  0.00  0.00    +0.055 C 
ATOM     12  O   UNL     1      -2.128   8.694  -4.375  0.00  0.00    -0.268 OA
ATOM     13  C   UNL     1       1.518   6.018  -4.140  0.00  0.00    +0.022 C 
ATOM     14  C   UNL     1       0.335   7.277  -6.151  0.00  0.00    +0.006 C 
ATOM     15  C   UNL     1      -1.590   5.730  -6.123  0.00  0.00    -0.020 C 
ATOM     16  C   UNL     1       2.296   4.921  -4.872  0.00  0.00    +0.002 C 
ATOM     17  C   UNL     1       4.445   4.943  -6.881  0.00  0.00    +0.001 C 
ATOM     18  C   UNL     1       3.426   6.618  -8.209  0.00  0.00    +0.000 C 
ATOM     19  C   UNL     1       1.558   5.045  -8.984  0.00  0.00    +0.000 C 
ATOM     20  C   UNL     1       5.147   4.845  -8.169  0.00  0.00    +0.009 C 
ENDROOT
BRANCH   1  22
ATOM     21  N   UNL     1       5.853   5.640 -10.524  0.00  0.00    -0.209 NA
ATOM     22  C   UNL     1       4.438   5.604 -10.264  0.00  0.00    +0.241 C 
ATOM     23  O   UNL     1       3.790   5.671 -11.353  0.00  0.00    -0.273 OA
BRANCH  21  25
ATOM     24  C   UNL     1       5.584   7.912 -11.079  0.00  0.00    +0.022 C 
ATOM     25  C   UNL     1       6.380   6.849 -11.149  0.00  0.00    +0.079 C 
ATOM     26  C   UNL     1       7.729   7.078 -10.475  0.00  0.00    +0.022 C 
ATOM     27  C   UNL     1       6.680   6.573 -12.616  0.00  0.00    +0.022 C 
ENDBRANCH  21  25
ENDBRANCH   1  22
TORSDOF 2
ENDMDL
MODEL 2
REMARK VINA RESULT:      -8.7      1.660      7.635
REMARK  Name = 
REMARK  2 active torsions:
REMARK  status: ('A' for Active; 'I' for Inactive)
REMARK    1  A    between atoms: C_2  and  N_5
REMARK    2  A    between atoms: C_6  and  C_8
REMARK                            x       y       z     vdW  Elec       q    Type
REMARK                         _______ _______ _______ _____ _____    ______ ____
ROOT
ATOM      1  C   UNL     1       0.296   4.530  -6.085  0.00  0.00    +0.078 C 
ATOM      2  C   UNL     1       1.472   5.321  -6.869  0.00  0.00    +0.008 C 
ATOM      3  C   UNL     1       1.197   4.499  -8.238  0.00  0.00    +0.000 C 
ATOM      4  C   UNL     1       2.096   5.665  -9.060  0.00  0.00    +0.000 C 
ATOM      5  C   UNL     1       3.473   4.694  -8.937  0.00  0.00    +0.005 C 
ATOM      6  C   UNL     1       3.830   5.237  -7.450  0.00  0.00    +0.000 C 
ATOM      7  C   UNL     1       4.403   5.798  -9.641  0.00  0.00    +0.037 C 
ATOM      8  C   UNL     1       4.176   5.566 -11.240  0.00  0.00    +0.099 C 
ATOM      9  N   UNL     1       4.796   6.968 -11.612  0.00  0.00    -0.203 NA
ATOM     10  C   UNL     1       6.098   7.214 -11.078  0.00  0.00    +0.265 C 
ATOM     11  C   UNL     1       6.641   6.242 -10.118  0.00  0.00    +0.055 C 
ATOM     12  O   UNL     1       6.600   8.381 -11.106  0.00  0.00    -0.268 OA
ATOM     13  C   UNL     1       2.650   6.172 -11.255  0.00  0.00    +0.022 C 
ATOM     14  C   UNL     1       4.095   7.145  -9.257  0.00  0.00    +0.006 C 
ATOM     15  C   UNL     1       5.813   5.388  -9.508  0.00  0.00    -0.020 C 
ATOM     16  C   UNL     1       1.789   5.127 -10.541  0.00  0.00    +0.002 C 
ATOM     17  C   UNL     1      -0.217   5.264  -8.394  0.00  0.00    +0.001 C 
ATOM     18  C   UNL     1       1.076   6.713  -7.038  0.00  0.00    +0.000 C 
ATOM     19  C   UNL     1       2.782   4.883  -6.488  0.00  0.00    +0.000 C 
ATOM     20  C   UNL     1      -0.847   5.160  -7.070  0.00  0.00    +0.009 C 
ENDROOT
BRANCH   1  22
ATOM     21  N   UNL     1      -1.223   5.632  -4.360  0.00  0.00    -0.209 NA
ATOM     22  C   UNL     1       0.073   5.687  -4.985  0.00  0.00    +0.241 C 
ATOM     23  O   UNL     1       0.980   5.796  -4.105  0.00  0.00    -0.273 OA
BRANCH  21  25
ATOM     24  C   UNL     1      -1.002   6.984  -2.445  0.00  0.00    +0.022 C 
ATOM     25  C   UNL     1      -1.640   6.805  -3.599  0.00  0.00    +0.079 C 
ATOM     26  C   UNL     1      -1.458   7.976  -4.560  0.00  0.00    +0.022 C 
ATOM     27  C   UNL     1      -3.132   6.719  -3.312  0.00  0.00    +0.022 C 
ENDBRANCH  21  25
ENDBRANCH   1  22
TORSDOF 2
ENDMDL
MODEL 3
REMARK VINA RESULT:      -7.9      3.171      7.635
REMARK  Name = 
REMARK  2 active torsions:
REMARK  status: ('A' for Active; 'I' for Inactive)
REMARK    1  A    between atoms: C_2  and  N_5
REMARK    2  A    between atoms: C_6  and  C_8
REMARK                            x       y       z     vdW  Elec       q    Type
REMARK                         _______ _______ _______ _____ _____    ______ ____
ROOT
ATOM      1  C   UNL     1       2.432   5.278  -2.035  0.00  0.00    +0.078 C 
ATOM      2  C   UNL     1       2.929   5.745  -3.504  0.00  0.00    +0.008 C 
ATOM      3  C   UNL     1       1.680   5.011  -4.229  0.00  0.00    +0.000 C 
ATOM      4  C   UNL     1       2.020   5.909  -5.614  0.00  0.00    +0.000 C 
ATOM      5  C   UNL     1       2.929   4.625  -6.228  0.00  0.00    +0.005 C 
ATOM      6  C   UNL     1       4.264   5.069  -5.419  0.00  0.00    +0.000 C 
ATOM      7  C   UNL     1       3.357   5.457  -7.533  0.00  0.00    +0.037 C 
ATOM      8  C   UNL     1       2.102   5.281  -8.562  0.00  0.00    +0.099 C 
ATOM      9  N   UNL     1       2.575   6.481  -9.469  0.00  0.00    -0.203 NA
ATOM     10  C   UNL     1       3.926   6.396  -9.930  0.00  0.00    +0.265 C 
ATOM     11  C   UNL     1       4.770   5.324  -9.383  0.00  0.00    +0.055 C 
ATOM     12  O   UNL     1       4.493   7.400 -10.463  0.00  0.00    -0.268 OA
ATOM     13  C   UNL     1       1.086   6.250  -7.711  0.00  0.00    +0.022 C 
ATOM     14  C   UNL     1       3.633   6.840  -7.274  0.00  0.00    +0.006 C 
ATOM     15  C   UNL     1       4.402   4.708  -8.255  0.00  0.00    -0.020 C 
ATOM     16  C   UNL     1       0.726   5.458  -6.451  0.00  0.00    +0.002 C 
ATOM     17  C   UNL     1       0.683   6.104  -3.582  0.00  0.00    +0.001 C 
ATOM     18  C   UNL     1       2.787   7.190  -3.615  0.00  0.00    +0.000 C 
ATOM     19  C   UNL     1       4.058   4.995  -3.969  0.00  0.00    +0.000 C 
ATOM     20  C   UNL     1       1.067   6.169  -2.164  0.00  0.00    +0.009 C 
ENDROOT
BRANCH   1  22
ATOM     21  N   UNL     1       2.397   7.089  -0.242  0.00  0.00    -0.209 NA
ATOM     22  C   UNL     1       3.202   6.459  -1.255  0.00  0.00    +0.241 C 
ATOM     23  O   UNL     1       4.342   6.161  -0.786  0.00  0.00    -0.273 OA
BRANCH  21  25
ATOM     24  C   UNL     1       3.608   9.083  -0.555  0.00  0.00    +0.022 C 
ATOM     25  C   UNL     1       2.878   8.360   0.290  0.00  0.00    +0.079 C 
ATOM     26  C   UNL     1       1.620   9.088   0.754  0.00  0.00    +0.022 C 
ATOM     27  C   UNL     1       3.706   8.105   1.541  0.00  0.00    +0.022 C 
ENDBRANCH  21  25
ENDBRANCH   1  22
TORSDOF 2
ENDMDL
MODEL 4
REMARK VINA RESULT:      -7.8      2.910      4.216
REMARK  Name = 
REMARK  2 active torsions:
REMARK  status: ('A' for Active; 'I' for Inactive)
REMARK    1  A    between atoms: C_2  and  N_5
REMARK    2  A    between atoms: C_6  and  C_8
REMARK                            x       y       z     vdW  Elec       q    Type
REMARK                         _______ _______ _______ _____ _____    ______ ____
ROOT
ATOM      1  C   UNL     1       3.296   4.572  -8.939  0.00  0.00    +0.078 C 
ATOM      2  C   UNL     1       2.837   5.085  -7.473  0.00  0.00    +0.008 C 
ATOM      3  C   UNL     1       4.367   5.372  -7.025  0.00  0.00    +0.000 C 
ATOM      4  C   UNL     1       3.769   6.291  -5.745  0.00  0.00    +0.000 C 
ATOM      5  C   UNL     1       3.885   4.950  -4.724  0.00  0.00    +0.005 C 
ATOM      6  C   UNL     1       2.445   4.363  -5.186  0.00  0.00    +0.000 C 
ATOM      7  C   UNL     1       3.244   5.746  -3.485  0.00  0.00    +0.037 C 
ATOM      8  C   UNL     1       4.495   6.565  -2.831  0.00  0.00    +0.099 C 
ATOM      9  N   UNL     1       3.545   7.519  -2.012  0.00  0.00    -0.203 NA
ATOM     10  C   UNL     1       2.585   6.855  -1.187  0.00  0.00    +0.265 C 
ATOM     11  C   UNL     1       2.462   5.396  -1.317  0.00  0.00    +0.055 C 
ATOM     12  O   UNL     1       1.620   7.499  -0.668  0.00  0.00    -0.268 OA
ATOM     13  C   UNL     1       4.614   7.646  -4.062  0.00  0.00    +0.022 C 
ATOM     14  C   UNL     1       2.175   6.628  -3.855  0.00  0.00    +0.006 C 
ATOM     15  C   UNL     1       2.954   4.789  -2.402  0.00  0.00    -0.020 C 
ATOM     16  C   UNL     1       5.184   6.858  -5.244  0.00  0.00    +0.002 C 
ATOM     17  C   UNL     1       4.427   6.598  -8.074  0.00  0.00    +0.001 C 
ATOM     18  C   UNL     1       2.118   6.344  -7.615  0.00  0.00    +0.000 C 
ATOM     19  C   UNL     1       2.445   4.011  -6.609  0.00  0.00    +0.000 C 
ATOM     20  C   UNL     1       3.880   6.050  -9.324  0.00  0.00    +0.009 C 
ENDROOT
BRANCH   1  22
ATOM     21  N   UNL     1       2.005   5.482 -10.938  0.00  0.00    -0.209 NA
ATOM     22  C   UNL     1       1.877   4.883  -9.636  0.00  0.00    +0.241 C 
ATOM     23  O   UNL     1       1.057   3.916  -9.677  0.00  0.00    -0.273 OA
BRANCH  21  25
ATOM     24  C   UNL     1       0.139   6.896 -10.684  0.00  0.00    +0.022 C 
ATOM     25  C   UNL     1       0.806   6.090 -11.507  0.00  0.00    +0.079 C 
ATOM     26  C   UNL     1       1.292   6.805 -12.765  0.00  0.00    +0.022 C 
ATOM     27  C   UNL     1      -0.142   4.997 -11.979  0.00  0.00    +0.022 C 
ENDBRANCH  21  25
ENDBRANCH   1  22
TORSDOF 2
ENDMDL
MODEL 5
REMARK VINA RESULT:      -7.4      2.093      7.794
REMARK  Name = 
REMARK  2 active torsions:
REMARK  status: ('A' for Active; 'I' for Inactive)
REMARK    1  A    between atoms: C_2  and  N_5
REMARK    2  A    between atoms: C_6  and  C_8
REMARK                            x       y       z     vdW  Elec       q    Type
REMARK                         _______ _______ _______ _____ _____    ______ ____
ROOT
ATOM      1  C   UNL     1      -0.412   4.836  -4.333  0.00  0.00    +0.078 C 
ATOM      2  C   UNL     1       0.683   5.435  -5.364  0.00  0.00    +0.008 C 
ATOM      3  C   UNL     1      -0.080   4.799  -6.643  0.00  0.00    +0.000 C 
ATOM      4  C   UNL     1       0.824   5.822  -7.631  0.00  0.00    +0.000 C 
ATOM      5  C   UNL     1       1.949   4.589  -7.886  0.00  0.00    +0.005 C 
ATOM      6  C   UNL     1       2.759   4.926  -6.521  0.00  0.00    +0.000 C 
ATOM      7  C   UNL     1       2.898   5.536  -8.769  0.00  0.00    +0.037 C 
ATOM      8  C   UNL     1       2.251   5.485 -10.266  0.00  0.00    +0.099 C 
ATOM      9  N   UNL     1       3.049   6.759 -10.741  0.00  0.00    -0.203 NA
ATOM     10  C   UNL     1       4.464   6.695 -10.545  0.00  0.00    +0.265 C 
ATOM     11  C   UNL     1       4.999   5.559  -9.779  0.00  0.00    +0.055 C 
ATOM     12  O   UNL     1       5.182   7.736 -10.664  0.00  0.00    -0.268 OA
ATOM     13  C   UNL     1       0.932   6.385  -9.880  0.00  0.00    +0.022 C 
ATOM     14  C   UNL     1       2.987   6.882  -8.281  0.00  0.00    +0.006 C 
ATOM     15  C   UNL     1       4.177   4.843  -9.006  0.00  0.00    -0.020 C 
ATOM     16  C   UNL     1       0.064   5.479  -9.002  0.00  0.00    +0.002 C 
ATOM     17  C   UNL     1      -1.292   5.842  -6.417  0.00  0.00    +0.001 C 
ATOM     18  C   UNL     1       0.567   6.887  -5.389  0.00  0.00    +0.000 C 
ATOM     19  C   UNL     1       1.922   4.714  -5.337  0.00  0.00    +0.000 C 
ATOM     20  C   UNL     1      -1.595   5.760  -4.981  0.00  0.00    +0.009 C 
ENDROOT
BRANCH   1  22
ATOM     21  N   UNL     1      -0.818   5.654  -1.954  0.00  0.00    -0.209 NA
ATOM     22  C   UNL     1      -0.112   5.921  -3.180  0.00  0.00    +0.241 C 
ATOM     23  O   UNL     1       1.113   6.149  -2.940  0.00  0.00    -0.273 OA
BRANCH  21  25
ATOM     24  C   UNL     1       0.307   7.078  -0.453  0.00  0.00    +0.022 C 
ATOM     25  C   UNL     1      -0.869   6.733  -0.973  0.00  0.00    +0.079 C 
ATOM     26  C   UNL     1      -1.552   7.888  -1.699  0.00  0.00    +0.022 C 
ATOM     27  C   UNL     1      -1.797   6.339   0.167  0.00  0.00    +0.022 C 
ENDBRANCH  21  25
ENDBRANCH   1  22
TORSDOF 2
ENDMDL
MODEL 6
REMARK VINA RESULT:      -7.1      3.887      4.888
REMARK  Name = 
REMARK  2 active torsions:
REMARK  status: ('A' for Active; 'I' for Inactive)
REMARK    1  A    between atoms: C_2  and  N_5
REMARK    2  A    between atoms: C_6  and  C_8
REMARK                            x       y       z     vdW  Elec       q    Type
REMARK                         _______ _______ _______ _____ _____    ______ ____
ROOT
ATOM      1  C   UNL     1       1.903   5.014 -13.901  0.00  0.00    +0.078 C 
ATOM      2  C   UNL     1       1.439   5.566 -12.450  0.00  0.00    +0.008 C 
ATOM      3  C   UNL     1       2.704   4.873 -11.712  0.00  0.00    +0.000 C 
ATOM      4  C   UNL     1       2.395   5.850 -10.374  0.00  0.00    +0.000 C 
ATOM      5  C   UNL     1       1.500   4.605  -9.666  0.00  0.00    +0.005 C 
ATOM      6  C   UNL     1       0.147   5.003 -10.470  0.00  0.00    +0.000 C 
ATOM      7  C   UNL     1       1.102   5.511  -8.402  0.00  0.00    +0.037 C 
ATOM      8  C   UNL     1       2.380   5.393  -7.394  0.00  0.00    +0.099 C 
ATOM      9  N   UNL     1       1.927   6.643  -6.547  0.00  0.00    -0.203 NA
ATOM     10  C   UNL     1       0.588   6.587  -6.051  0.00  0.00    +0.265 C 
ATOM     11  C   UNL     1      -0.269   5.486  -6.516  0.00  0.00    +0.055 C 
ATOM     12  O   UNL     1       0.032   7.620  -5.564  0.00  0.00    -0.268 OA
ATOM     13  C   UNL     1       3.376   6.311  -8.322  0.00  0.00    +0.022 C 
ATOM     14  C   UNL     1       0.820   6.877  -8.734  0.00  0.00    +0.006 C 
ATOM     15  C   UNL     1       0.073   4.806  -7.615  0.00  0.00    -0.020 C 
ATOM     16  C   UNL     1       3.707   5.446  -9.542  0.00  0.00    +0.002 C 
ATOM     17  C   UNL     1       3.685   5.926 -12.444  0.00  0.00    +0.001 C 
ATOM     18  C   UNL     1       1.583   7.015 -12.426  0.00  0.00    +0.000 C 
ATOM     19  C   UNL     1       0.320   4.845 -11.917  0.00  0.00    +0.000 C 
ATOM     20  C   UNL     1       3.270   5.910 -13.854  0.00  0.00    +0.009 C 
ENDROOT
BRANCH   1  22
ATOM     21  N   UNL     1       1.960   6.876 -15.640  0.00  0.00    -0.209 NA
ATOM     22  C   UNL     1       1.114   6.150 -14.729  0.00  0.00    +0.241 C 
ATOM     23  O   UNL     1       0.058   5.770 -15.320  0.00  0.00    -0.273 OA
BRANCH  21  25
ATOM     24  C   UNL     1       0.714   8.851 -15.338  0.00  0.00    +0.022 C 
ATOM     25  C   UNL     1       1.426   8.117 -16.190  0.00  0.00    +0.079 C 
ATOM     26  C   UNL     1       2.645   8.860 -16.730  0.00  0.00    +0.022 C 
ATOM     27  C   UNL     1       0.552   7.803 -17.396  0.00  0.00    +0.022 C 
ENDBRANCH  21  25
ENDBRANCH   1  22
TORSDOF 2
ENDMDL
MODEL 7
REMARK VINA RESULT:      -6.9      4.182      5.918
REMARK  Name = 
REMARK  2 active torsions:
REMARK  status: ('A' for Active; 'I' for Inactive)
REMARK    1  A    between atoms: C_2  and  N_5
REMARK    2  A    between atoms: C_6  and  C_8
REMARK                            x       y       z     vdW  Elec       q    Type
REMARK                         _______ _______ _______ _____ _____    ______ ____
ROOT
ATOM      1  C   UNL     1       2.336   4.794  -4.749  0.00  0.00    +0.078 C 
ATOM      2  C   UNL     1       2.392   5.989  -3.657  0.00  0.00    +0.008 C 
ATOM      3  C   UNL     1       3.348   5.129  -2.672  0.00  0.00    +0.000 C 
ATOM      4  C   UNL     1       3.704   6.558  -1.851  0.00  0.00    +0.000 C 
ATOM      5  C   UNL     1       2.495   6.215  -0.722  0.00  0.00    +0.005 C 
ATOM      6  C   UNL     1       1.326   6.851  -1.650  0.00  0.00    +0.000 C 
ATOM      7  C   UNL     1       2.730   7.599   0.057  0.00  0.00    +0.037 C 
ATOM      8  C   UNL     1       3.983   7.299   1.058  0.00  0.00    +0.099 C 
ATOM      9  N   UNL     1       4.247   8.833   1.315  0.00  0.00    -0.203 NA
ATOM     10  C   UNL     1       3.109   9.576   1.758  0.00  0.00    +0.265 C 
ATOM     11  C   UNL     1       1.805   8.898   1.758  0.00  0.00    +0.055 C 
ATOM     12  O   UNL     1       3.131  10.846   1.772  0.00  0.00    -0.268 OA
ATOM     13  C   UNL     1       5.108   7.249  -0.138  0.00  0.00    +0.022 C 
ATOM     14  C   UNL     1       3.001   8.711  -0.806  0.00  0.00    +0.006 C 
ATOM     15  C   UNL     1       1.643   7.784   1.037  0.00  0.00    -0.020 C 
ATOM     16  C   UNL     1       4.839   5.945  -0.895  0.00  0.00    +0.002 C 
ATOM     17  C   UNL     1       4.548   5.268  -3.743  0.00  0.00    +0.001 C 
ATOM     18  C   UNL     1       3.136   7.109  -4.218  0.00  0.00    +0.000 C 
ATOM     19  C   UNL     1       1.177   6.108  -2.905  0.00  0.00    +0.000 C 
ATOM     20  C   UNL     1       3.941   4.919  -5.035  0.00  0.00    +0.009 C 
ENDROOT
BRANCH   1  22
ATOM     21  N   UNL     1       2.661   5.408  -7.200  0.00  0.00    -0.209 NA
ATOM     22  C   UNL     1       1.977   5.764  -5.985  0.00  0.00    +0.241 C 
ATOM     23  O   UNL     1       0.741   5.937  -6.212  0.00  0.00    -0.273 OA
BRANCH  21  25
ATOM     24  C   UNL     1       2.459   7.653  -7.882  0.00  0.00    +0.022 C 
ATOM     25  C   UNL     1       2.658   6.397  -8.274  0.00  0.00    +0.079 C 
ATOM     26  C   UNL     1       3.996   6.207  -8.982  0.00  0.00    +0.022 C 
ATOM     27  C   UNL     1       1.585   6.038  -9.291  0.00  0.00    +0.022 C 
ENDBRANCH  21  25
ENDBRANCH   1  22
TORSDOF 2
ENDMDL
MODEL 8
REMARK VINA RESULT:      -6.7      3.329      4.799
REMARK  Name = 
REMARK  2 active torsions:
REMARK  status: ('A' for Active; 'I' for Inactive)
REMARK    1  A    between atoms: C_2  and  N_5
REMARK    2  A    between atoms: C_6  and  C_8
REMARK                            x       y       z     vdW  Elec       q    Type
REMARK                         _______ _______ _______ _____ _____    ______ ____
ROOT
ATOM      1  C   UNL     1       0.328   6.798 -10.548  0.00  0.00    +0.078 C 
ATOM      2  C   UNL     1       1.434   6.439  -9.421  0.00  0.00    +0.008 C 
ATOM      3  C   UNL     1       0.298   6.205  -8.291  0.00  0.00    +0.000 C 
ATOM      4  C   UNL     1       1.461   5.423  -7.354  0.00  0.00    +0.000 C 
ATOM      5  C   UNL     1       1.767   6.863  -6.526  0.00  0.00    +0.005 C 
ATOM      6  C   UNL     1       2.803   7.395  -7.656  0.00  0.00    +0.000 C 
ATOM      7  C   UNL     1       2.943   6.199  -5.657  0.00  0.00    +0.037 C 
ATOM      8  C   UNL     1       2.173   5.457  -4.424  0.00  0.00    +0.099 C 
ATOM      9  N   UNL     1       3.437   4.590  -4.053  0.00  0.00    -0.203 NA
ATOM     10  C   UNL     1       4.638   5.334  -3.834  0.00  0.00    +0.265 C 
ATOM     11  C   UNL     1       4.620   6.771  -4.142  0.00  0.00    +0.055 C 
ATOM     12  O   UNL     1       5.761   4.745  -3.763  0.00  0.00    -0.268 OA
ATOM     13  C   UNL     1       1.550   4.253  -5.352  0.00  0.00    +0.022 C 
ATOM     14  C   UNL     1       3.760   5.280  -6.395  0.00  0.00    +0.006 C 
ATOM     15  C   UNL     1       3.656   7.263  -4.926  0.00  0.00    -0.020 C 
ATOM     16  C   UNL     1       0.463   4.916  -6.203  0.00  0.00    +0.002 C 
ATOM     17  C   UNL     1      -0.183   4.877  -9.072  0.00  0.00    +0.001 C 
ATOM     18  C   UNL     1       2.063   5.170  -9.762  0.00  0.00    +0.000 C 
ATOM     19  C   UNL     1       2.132   7.597  -8.943  0.00  0.00    +0.000 C 
ATOM     20  C   UNL     1      -0.299   5.290 -10.478  0.00  0.00    +0.009 C 
ENDROOT
BRANCH   1  22
ATOM     21  N   UNL     1       0.545   5.967 -12.947  0.00  0.00    -0.209 NA
ATOM     22  C   UNL     1       1.278   6.412 -11.791  0.00  0.00    +0.241 C 
ATOM     23  O   UNL     1       2.135   7.285 -12.125  0.00  0.00    -0.273 OA
BRANCH  21  25
ATOM     24  C   UNL     1       2.557   4.975 -13.666  0.00  0.00    +0.022 C 
ATOM     25  C   UNL     1       1.308   5.297 -13.996  0.00  0.00    +0.079 C 
ATOM     26  C   UNL     1       0.467   4.081 -14.373  0.00  0.00    +0.022 C 
ATOM     27  C   UNL     1       1.354   6.182 -15.233  0.00  0.00    +0.022 C 
ENDBRANCH  21  25
ENDBRANCH   1  22
TORSDOF 2
ENDMDL
MODEL 9
REMARK VINA RESULT:      -6.7      3.224      6.239
REMARK  Name = 
REMARK  2 active torsions:
REMARK  status: ('A' for Active; 'I' for Inactive)
REMARK    1  A    between atoms: C_2  and  N_5
REMARK    2  A    between atoms: C_6  and  C_8
REMARK                            x       y       z     vdW  Elec       q    Type
REMARK                         _______ _______ _______ _____ _____    ______ ____
ROOT
ATOM      1  C   UNL     1       3.243   4.519  -5.231  0.00  0.00    +0.078 C 
ATOM      2  C   UNL     1       2.937   5.274  -6.631  0.00  0.00    +0.008 C 
ATOM      3  C   UNL     1       1.631   4.357  -6.912  0.00  0.00    +0.000 C 
ATOM      4  C   UNL     1       1.156   5.479  -8.077  0.00  0.00    +0.000 C 
ATOM      5  C   UNL     1       1.880   4.541  -9.281  0.00  0.00    +0.005 C 
ATOM      6  C   UNL     1       3.346   5.189  -9.025  0.00  0.00    +0.000 C 
ATOM      7  C   UNL     1       1.529   5.610 -10.426  0.00  0.00    +0.037 C 
ATOM      8  C   UNL     1      -0.010   5.266 -10.850  0.00  0.00    +0.099 C 
ATOM      9  N   UNL     1      -0.200   6.650 -11.582  0.00  0.00    -0.203 NA
ATOM     10  C   UNL     1       0.788   6.953 -12.570  0.00  0.00    +0.265 C 
ATOM     11  C   UNL     1       1.949   6.057 -12.675  0.00  0.00    +0.055 C 
ATOM     12  O   UNL     1       0.881   8.124 -13.055  0.00  0.00    -0.268 OA
ATOM     13  C   UNL     1      -0.670   5.846  -9.462  0.00  0.00    +0.022 C 
ATOM     14  C   UNL     1       1.666   6.975 -10.007  0.00  0.00    +0.006 C 
ATOM     15  C   UNL     1       2.237   5.233 -11.663  0.00  0.00    -0.020 C 
ATOM     16  C   UNL     1      -0.285   4.837  -8.376  0.00  0.00    +0.002 C 
ATOM     17  C   UNL     1       0.876   5.086  -5.685  0.00  0.00    +0.001 C 
ATOM     18  C   UNL     1       2.530   6.644  -6.351  0.00  0.00    +0.000 C 
ATOM     19  C   UNL     1       3.836   4.884  -7.677  0.00  0.00    +0.000 C 
ATOM     20  C   UNL     1       1.845   5.062  -4.580  0.00  0.00    +0.009 C 
ENDROOT
BRANCH   1  22
ATOM     21  N   UNL     1       3.712   6.048  -3.247  0.00  0.00    -0.209 NA
ATOM     22  C   UNL     1       4.083   5.743  -4.604  0.00  0.00    +0.241 C 
ATOM     23  O   UNL     1       5.345   5.659  -4.705  0.00  0.00    -0.273 OA
BRANCH  21  25
ATOM     24  C   UNL     1       4.791   8.114  -3.579  0.00  0.00    +0.022 C 
ATOM     25  C   UNL     1       4.173   7.322  -2.706  0.00  0.00    +0.079 C 
ATOM     26  C   UNL     1       2.925   7.966  -2.109  0.00  0.00    +0.022 C 
ATOM     27  C   UNL     1       5.118   7.067  -1.540  0.00  0.00    +0.022 C 
ENDBRANCH  21  25
ENDBRANCH   1  22
TORSDOF 2
ENDMDL
