MODEL 1
REMARK VINA RESULT:      -7.7      0.000      0.000
REMARK  Name = 
REMARK  7 active torsions:
REMARK  status: ('A' for Active; 'I' for Inactive)
REMARK    1  A    between atoms: O_2  and  C_3
REMARK    2  A    between atoms: C_7  and  C_8
REMARK    3  A    between atoms: C_8  and  S_9
REMARK    4  A    between atoms: S_9  and  C_11
REMARK    5  A    between atoms: C_16  and  O_17
REMARK    6  A    between atoms: O_17  and  C_18
REMARK    7  A    between atoms: C_24  and  O_25
REMARK                            x       y       z     vdW  Elec       q    Type
REMARK                         _______ _______ _______ _____ _____    ______ ____
ROOT
ATOM      1  S   UNL     1       2.411   6.754  -6.313  0.00  0.00    +0.107 S 
ATOM      2  O   UNL     1       3.507   7.409  -5.420  0.00  0.00    -0.248 OA
ENDROOT
BRANCH   1   3
ATOM      3  C   UNL     1       3.431   5.880  -7.528  0.00  0.00    +0.221 A 
ATOM      4  N   UNL     1       4.735   5.616  -7.450  0.00  0.00    -0.218 NA
ATOM      5  C   UNL     1       5.243   5.302  -8.668  0.00  0.00    +0.104 A 
ATOM      6  C   UNL     1       4.137   5.200  -9.502  0.00  0.00    +0.101 A 
ATOM      7  C   UNL     1       4.324   5.252 -10.877  0.00  0.00    +0.024 A 
ATOM      8  C   UNL     1       5.479   5.794 -11.429  0.00  0.00    +0.039 A 
ATOM      9  C   UNL     1       6.569   5.985 -10.589  0.00  0.00    +0.146 A 
ATOM     10  C   UNL     1       6.459   5.593  -9.274  0.00  0.00    +0.058 A 
ATOM     11  N   UNL     1       3.045   5.451  -8.738  0.00  0.00    -0.218 NA
BRANCH   9  12
ATOM     12  O   UNL     1       7.589   6.823 -11.050  0.00  0.00    -0.424 OA
BRANCH  12  13
ATOM     13  C   UNL     1       8.560   6.346 -11.959  0.00  0.00    +0.509 C 
ATOM     14  F   UNL     1       8.915   5.053 -11.612  0.00  0.00    -0.155 F 
ATOM     15  F   UNL     1       8.145   6.446 -13.263  0.00  0.00    -0.155 F 
ENDBRANCH  12  13
ENDBRANCH   9  12
ENDBRANCH   1   3
BRANCH   1  16
ATOM     16  C   UNL     1       1.919   5.347  -5.232  0.00  0.00    +0.148 C 
BRANCH  16  19
ATOM     17  C   UNL     1      -1.738   5.577  -4.737  0.00  0.00    +0.175 A 
ATOM     18  C   UNL     1      -0.381   5.653  -4.483  0.00  0.00    +0.187 A 
ATOM     19  C   UNL     1       0.457   5.175  -5.483  0.00  0.00    +0.110 A 
ATOM     20  N   UNL     1       0.048   5.256  -6.774  0.00  0.00    -0.244 NA
ATOM     21  C   UNL     1      -1.258   5.437  -7.074  0.00  0.00    +0.102 A 
ATOM     22  C   UNL     1      -2.173   5.464  -6.032  0.00  0.00    +0.061 A 
BRANCH  17  24
ATOM     23  C   UNL     1      -3.075   5.527  -3.234  0.00  0.00    +0.253 C 
ATOM     24  O   UNL     1      -2.603   5.623  -3.648  0.00  0.00    -0.468 OA
ENDBRANCH  17  24
BRANCH  18  25
ATOM     25  O   UNL     1       0.100   6.425  -3.421  0.00  0.00    -0.467 OA
ATOM     26  C   UNL     1       0.397   5.888  -2.157  0.00  0.00    +0.253 C 
ENDBRANCH  18  25
ENDBRANCH  16  19
ENDBRANCH   1  16
TORSDOF 7
ENDMDL
MODEL 2
REMARK VINA RESULT:      -7.6      1.564      2.376
REMARK  Name = 
REMARK  7 active torsions:
REMARK  status: ('A' for Active; 'I' for Inactive)
REMARK    1  A    between atoms: O_2  and  C_3
REMARK    2  A    between atoms: C_7  and  C_8
REMARK    3  A    between atoms: C_8  and  S_9
REMARK    4  A    between atoms: S_9  and  C_11
REMARK    5  A    between atoms: C_16  and  O_17
REMARK    6  A    between atoms: O_17  and  C_18
REMARK    7  A    between atoms: C_24  and  O_25
REMARK                            x       y       z     vdW  Elec       q    Type
REMARK                         _______ _______ _______ _____ _____    ______ ____
ROOT
ATOM      1  S   UNL     1       3.529   6.866  -5.266  0.00  0.00    +0.107 S 
ATOM      2  O   UNL     1       4.980   7.112  -4.755  0.00  0.00    -0.248 OA
ENDROOT
BRANCH   1   3
ATOM      3  C   UNL     1       3.851   6.279  -6.950  0.00  0.00    +0.221 A 
ATOM      4  N   UNL     1       4.778   5.404  -7.339  0.00  0.00    -0.218 NA
ATOM      5  C   UNL     1       4.995   5.484  -8.675  0.00  0.00    +0.104 A 
ATOM      6  C   UNL     1       4.009   6.341  -9.147  0.00  0.00    +0.101 A 
ATOM      7  C   UNL     1       4.164   6.922 -10.399  0.00  0.00    +0.024 A 
ATOM      8  C   UNL     1       5.412   7.004 -11.006  0.00  0.00    +0.039 A 
ATOM      9  C   UNL     1       6.436   6.219 -10.492  0.00  0.00    +0.146 A 
ATOM     10  C   UNL     1       6.150   5.378  -9.441  0.00  0.00    +0.058 A 
ATOM     11  N   UNL     1       3.265   6.713  -8.075  0.00  0.00    -0.218 NA
BRANCH   9  12
ATOM     12  O   UNL     1       7.741   6.545 -10.871  0.00  0.00    -0.424 OA
BRANCH  12  13
ATOM     13  C   UNL     1       8.300   6.020 -12.058  0.00  0.00    +0.509 C 
ATOM     14  F   UNL     1       9.678   5.969 -11.932  0.00  0.00    -0.155 F 
ATOM     15  F   UNL     1       7.756   4.806 -12.395  0.00  0.00    -0.155 F 
ENDBRANCH  12  13
ENDBRANCH   9  12
ENDBRANCH   1   3
BRANCH   1  16
ATOM     16  C   UNL     1       3.165   5.267  -4.431  0.00  0.00    +0.148 C 
BRANCH  16  19
ATOM     17  C   UNL     1      -0.353   5.446  -3.305  0.00  0.00    +0.175 A 
ATOM     18  C   UNL     1       0.746   5.262  -4.124  0.00  0.00    +0.187 A 
ATOM     19  C   UNL     1       1.983   5.556  -3.565  0.00  0.00    +0.110 A 
ATOM     20  N   UNL     1       2.153   5.391  -2.230  0.00  0.00    -0.244 NA
ATOM     21  C   UNL     1       1.086   5.311  -1.402  0.00  0.00    +0.102 A 
ATOM     22  C   UNL     1      -0.179   5.475  -1.946  0.00  0.00    +0.061 A 
BRANCH  17  24
ATOM     23  C   UNL     1      -2.217   5.627  -4.041  0.00  0.00    +0.253 C 
ATOM     24  O   UNL     1      -1.595   5.591  -3.914  0.00  0.00    -0.468 OA
ENDBRANCH  17  24
BRANCH  18  25
ATOM     25  O   UNL     1       0.625   4.554  -5.324  0.00  0.00    -0.467 OA
ATOM     26  C   UNL     1       0.298   5.166  -6.545  0.00  0.00    +0.253 C 
ENDBRANCH  18  25
ENDBRANCH  16  19
ENDBRANCH   1  16
TORSDOF 7
ENDMDL
MODEL 3
REMARK VINA RESULT:      -7.5      4.503      9.410
REMARK  Name = 
REMARK  7 active torsions:
REMARK  status: ('A' for Active; 'I' for Inactive)
REMARK    1  A    between atoms: O_2  and  C_3
REMARK    2  A    between atoms: C_7  and  C_8
REMARK    3  A    between atoms: C_8  and  S_9
REMARK    4  A    between atoms: S_9  and  C_11
REMARK    5  A    between atoms: C_16  and  O_17
REMARK    6  A    between atoms: O_17  and  C_18
REMARK    7  A    between atoms: C_24  and  O_25
REMARK                            x       y       z     vdW  Elec       q    Type
REMARK                         _______ _______ _______ _____ _____    ______ ____
ROOT
ATOM      1  S   UNL     1       2.659   6.480  -9.727  0.00  0.00    +0.107 S 
ATOM      2  O   UNL     1       1.622   6.432 -10.888  0.00  0.00    -0.248 OA
ENDROOT
BRANCH   1   3
ATOM      3  C   UNL     1       1.752   5.618  -8.417  0.00  0.00    +0.221 A 
ATOM      4  N   UNL     1       0.434   5.444  -8.324  0.00  0.00    -0.218 NA
ATOM      5  C   UNL     1       0.073   5.107  -7.061  0.00  0.00    +0.104 A 
ATOM      6  C   UNL     1       1.271   4.895  -6.391  0.00  0.00    +0.101 A 
ATOM      7  C   UNL     1       1.275   4.894  -5.002  0.00  0.00    +0.024 A 
ATOM      8  C   UNL     1       0.245   5.484  -4.278  0.00  0.00    +0.039 A 
ATOM      9  C   UNL     1      -0.931   5.786  -4.952  0.00  0.00    +0.146 A 
ATOM     10  C   UNL     1      -1.027   5.449  -6.283  0.00  0.00    +0.058 A 
ATOM     11  N   UNL     1       2.266   5.109  -7.288  0.00  0.00    -0.218 NA
BRANCH   9  12
ATOM     12  O   UNL     1      -1.818   6.666  -4.325  0.00  0.00    -0.424 OA
BRANCH  12  13
ATOM     13  C   UNL     1      -1.995   7.980  -4.812  0.00  0.00    +0.509 C 
ATOM     14  F   UNL     1      -3.135   8.028  -5.597  0.00  0.00    -0.155 F 
ATOM     15  F   UNL     1      -2.010   8.910  -3.804  0.00  0.00    -0.155 F 
ENDBRANCH  12  13
ENDBRANCH   9  12
ENDBRANCH   1   3
BRANCH   1  16
ATOM     16  C   UNL     1       3.800   5.139 -10.265  0.00  0.00    +0.148 C 
BRANCH  16  19
ATOM     17  C   UNL     1       6.148   6.326 -12.863  0.00  0.00    +0.175 A 
ATOM     18  C   UNL     1       5.139   5.607 -12.247  0.00  0.00    +0.187 A 
ATOM     19  C   UNL     1       4.950   5.854 -10.894  0.00  0.00    +0.110 A 
ATOM     20  N   UNL     1       5.239   7.087 -10.407  0.00  0.00    -0.244 NA
ATOM     21  C   UNL     1       6.029   7.936 -11.102  0.00  0.00    +0.102 A 
ATOM     22  C   UNL     1       6.594   7.486 -12.286  0.00  0.00    +0.061 A 
BRANCH  17  24
ATOM     23  C   UNL     1       6.968   5.743 -14.606  0.00  0.00    +0.253 C 
ATOM     24  O   UNL     1       6.662   5.826 -14.056  0.00  0.00    -0.468 OA
ENDBRANCH  17  24
BRANCH  18  25
ATOM     25  O   UNL     1       4.200   4.907 -13.011  0.00  0.00    -0.467 OA
ATOM     26  C   UNL     1       3.308   5.537 -13.895  0.00  0.00    +0.253 C 
ENDBRANCH  18  25
ENDBRANCH  16  19
ENDBRANCH   1  16
TORSDOF 7
ENDMDL
MODEL 4
REMARK VINA RESULT:      -7.3      2.446      3.807
REMARK  Name = 
REMARK  7 active torsions:
REMARK  status: ('A' for Active; 'I' for Inactive)
REMARK    1  A    between atoms: O_2  and  C_3
REMARK    2  A    between atoms: C_7  and  C_8
REMARK    3  A    between atoms: C_8  and  S_9
REMARK    4  A    between atoms: S_9  and  C_11
REMARK    5  A    between atoms: C_16  and  O_17
REMARK    6  A    between atoms: O_17  and  C_18
REMARK    7  A    between atoms: C_24  and  O_25
REMARK                            x       y       z     vdW  Elec       q    Type
REMARK                         _______ _______ _______ _____ _____    ______ ____
ROOT
ATOM      1  S   UNL     1       0.070   5.069  -5.986  0.00  0.00    +0.107 S 
ATOM      2  O   UNL     1      -1.059   6.012  -6.498  0.00  0.00    -0.248 OA
ENDROOT
BRANCH   1   3
ATOM      3  C   UNL     1       1.125   4.965  -7.455  0.00  0.00    +0.221 A 
ATOM      4  N   UNL     1       2.109   4.095  -7.686  0.00  0.00    -0.218 NA
ATOM      5  C   UNL     1       2.924   4.531  -8.678  0.00  0.00    +0.104 A 
ATOM      6  C   UNL     1       2.288   5.652  -9.196  0.00  0.00    +0.101 A 
ATOM      7  C   UNL     1       3.020   6.543  -9.971  0.00  0.00    +0.024 A 
ATOM      8  C   UNL     1       4.409   6.579  -9.912  0.00  0.00    +0.039 A 
ATOM      9  C   UNL     1       5.059   5.506  -9.316  0.00  0.00    +0.146 A 
ATOM     10  C   UNL     1       4.300   4.454  -8.856  0.00  0.00    +0.058 A 
ATOM     11  N   UNL     1       1.140   5.813  -8.494  0.00  0.00    -0.218 NA
BRANCH   9  12
ATOM     12  O   UNL     1       6.398   5.691  -8.958  0.00  0.00    -0.424 OA
BRANCH  12  13
ATOM     13  C   UNL     1       7.393   5.858  -9.947  0.00  0.00    +0.509 C 
ATOM     14  F   UNL     1       7.909   7.141  -9.865  0.00  0.00    -0.155 F 
ATOM     15  F   UNL     1       8.364   4.893  -9.876  0.00  0.00    -0.155 F 
ENDBRANCH  12  13
ENDBRANCH   9  12
ENDBRANCH   1   3
BRANCH   1  16
ATOM     16  C   UNL     1       1.044   6.259  -4.974  0.00  0.00    +0.148 C 
BRANCH  16  19
ATOM     17  C   UNL     1       2.517   5.204  -1.750  0.00  0.00    +0.175 A 
ATOM     18  C   UNL     1       2.408   5.737  -3.022  0.00  0.00    +0.187 A 
ATOM     19  C   UNL     1       1.172   5.600  -3.640  0.00  0.00    +0.110 A 
ATOM     20  N   UNL     1       0.056   5.564  -2.870  0.00  0.00    -0.244 NA
ATOM     21  C   UNL     1       0.138   5.292  -1.548  0.00  0.00    +0.102 A 
ATOM     22  C   UNL     1       1.381   4.979  -1.018  0.00  0.00    +0.061 A 
BRANCH  17  24
ATOM     23  C   UNL     1       4.301   4.671  -0.988  0.00  0.00    +0.253 C 
ATOM     24  O   UNL     1       3.794   4.925  -1.274  0.00  0.00    -0.468 OA
ENDBRANCH  17  24
BRANCH  18  25
ATOM     25  O   UNL     1       3.390   6.603  -3.515  0.00  0.00    -0.467 OA
ATOM     26  C   UNL     1       3.673   7.850  -2.934  0.00  0.00    +0.253 C 
ENDBRANCH  18  25
ENDBRANCH  16  19
ENDBRANCH   1  16
TORSDOF 7
ENDMDL
MODEL 5
REMARK VINA RESULT:      -7.3      4.549      8.132
REMARK  Name = 
REMARK  7 active torsions:
REMARK  status: ('A' for Active; 'I' for Inactive)
REMARK    1  A    between atoms: O_2  and  C_3
REMARK    2  A    between atoms: C_7  and  C_8
REMARK    3  A    between atoms: C_8  and  S_9
REMARK    4  A    between atoms: S_9  and  C_11
REMARK    5  A    between atoms: C_16  and  O_17
REMARK    6  A    between atoms: O_17  and  C_18
REMARK    7  A    between atoms: C_24  and  O_25
REMARK                            x       y       z     vdW  Elec       q    Type
REMARK                         _______ _______ _______ _____ _____    ______ ____
ROOT
ATOM      1  S   UNL     1       3.716   4.694  -8.872  0.00  0.00    +0.107 S 
ATOM      2  O   UNL     1       5.221   5.042  -8.678  0.00  0.00    -0.248 OA
ENDROOT
BRANCH   1   3
ATOM      3  C   UNL     1       3.151   4.627  -7.152  0.00  0.00    +0.221 A 
ATOM      4  N   UNL     1       1.996   4.142  -6.697  0.00  0.00    -0.218 NA
ATOM      5  C   UNL     1       1.738   4.590  -5.443  0.00  0.00    +0.104 A 
ATOM      6  C   UNL     1       2.898   5.247  -5.053  0.00  0.00    +0.101 A 
ATOM      7  C   UNL     1       2.843   6.128  -3.980  0.00  0.00    +0.024 A 
ATOM      8  C   UNL     1       1.638   6.674  -3.555  0.00  0.00    +0.039 A 
ATOM      9  C   UNL     1       0.464   6.084  -4.007  0.00  0.00    +0.146 A 
ATOM     10  C   UNL     1       0.560   4.973  -4.814  0.00  0.00    +0.058 A 
ATOM     11  N   UNL     1       3.773   5.147  -6.084  0.00  0.00    -0.218 NA
BRANCH   9  12
ATOM     12  O   UNL     1      -0.716   6.819  -3.862  0.00  0.00    -0.424 OA
BRANCH  12  13
ATOM     13  C   UNL     1      -1.198   7.625  -4.917  0.00  0.00    +0.509 C 
ATOM     14  F   UNL     1      -2.145   6.917  -5.638  0.00  0.00    -0.155 F 
ATOM     15  F   UNL     1      -1.670   8.835  -4.473  0.00  0.00    -0.155 F 
ENDBRANCH  12  13
ENDBRANCH   9  12
ENDBRANCH   1   3
BRANCH   1  16
ATOM     16  C   UNL     1       3.067   6.346  -9.360  0.00  0.00    +0.148 C 
BRANCH  16  19
ATOM     17  C   UNL     1       1.546   5.812 -12.688  0.00  0.00    +0.175 A 
ATOM     18  C   UNL     1       2.466   6.161 -11.715  0.00  0.00    +0.187 A 
ATOM     19  C   UNL     1       2.036   6.052 -10.399  0.00  0.00    +0.110 A 
ATOM     20  N   UNL     1       1.112   5.109 -10.088  0.00  0.00    -0.244 NA
ATOM     21  C   UNL     1       0.350   4.545 -11.053  0.00  0.00    +0.102 A 
ATOM     22  C   UNL     1       0.488   5.008 -12.353  0.00  0.00    +0.061 A 
BRANCH  17  24
ATOM     23  C   UNL     1       1.686   6.560 -14.551  0.00  0.00    +0.253 C 
ATOM     24  O   UNL     1       1.751   6.299 -13.975  0.00  0.00    -0.468 OA
ENDBRANCH  17  24
BRANCH  18  25
ATOM     25  O   UNL     1       3.815   6.328 -12.042  0.00  0.00    -0.467 OA
ATOM     26  C   UNL     1       4.620   5.284 -12.528  0.00  0.00    +0.253 C 
ENDBRANCH  18  25
ENDBRANCH  16  19
ENDBRANCH   1  16
TORSDOF 7
ENDMDL
MODEL 6
REMARK VINA RESULT:      -7.2      4.569      6.220
REMARK  Name = 
REMARK  7 active torsions:
REMARK  status: ('A' for Active; 'I' for Inactive)
REMARK    1  A    between atoms: O_2  and  C_3
REMARK    2  A    between atoms: C_7  and  C_8
REMARK    3  A    between atoms: C_8  and  S_9
REMARK    4  A    between atoms: S_9  and  C_11
REMARK    5  A    between atoms: C_16  and  O_17
REMARK    6  A    between atoms: O_17  and  C_18
REMARK    7  A    between atoms: C_24  and  O_25
REMARK                            x       y       z     vdW  Elec       q    Type
REMARK                         _______ _______ _______ _____ _____    ______ ____
ROOT
ATOM      1  S   UNL     1       2.623   5.558  -9.063  0.00  0.00    +0.107 S 
ATOM      2  O   UNL     1       2.949   4.197  -8.378  0.00  0.00    -0.248 OA
ENDROOT
BRANCH   1   3
ATOM      3  C   UNL     1       4.287   6.151  -9.466  0.00  0.00    +0.221 A 
ATOM      4  N   UNL     1       4.617   7.121 -10.318  0.00  0.00    -0.218 NA
ATOM      5  C   UNL     1       5.926   7.045 -10.662  0.00  0.00    +0.104 A 
ATOM      6  C   UNL     1       6.459   6.070  -9.827  0.00  0.00    +0.101 A 
ATOM      7  C   UNL     1       7.677   5.491 -10.161  0.00  0.00    +0.024 A 
ATOM      8  C   UNL     1       8.170   5.544 -11.460  0.00  0.00    +0.039 A 
ATOM      9  C   UNL     1       7.588   6.452 -12.336  0.00  0.00    +0.146 A 
ATOM     10  C   UNL     1       6.590   7.272 -11.861  0.00  0.00    +0.058 A 
ATOM     11  N   UNL     1       5.447   5.632  -9.038  0.00  0.00    -0.218 NA
BRANCH   9  12
ATOM     12  O   UNL     1       7.843   6.275 -13.699  0.00  0.00    -0.424 OA
BRANCH  12  13
ATOM     13  C   UNL     1       6.790   5.998 -14.600  0.00  0.00    +0.509 C 
ATOM     14  F   UNL     1       5.884   5.143 -13.995  0.00  0.00    -0.155 F 
ATOM     15  F   UNL     1       6.200   7.141 -15.077  0.00  0.00    -0.155 F 
ENDBRANCH  12  13
ENDBRANCH   9  12
ENDBRANCH   1   3
BRANCH   1  16
ATOM     16  C   UNL     1       2.084   4.960 -10.718  0.00  0.00    +0.148 C 
BRANCH  16  19
ATOM     17  C   UNL     1       0.757   7.216 -13.330  0.00  0.00    +0.175 A 
ATOM     18  C   UNL     1       1.444   6.174 -12.733  0.00  0.00    +0.187 A 
ATOM     19  C   UNL     1       1.416   6.140 -11.345  0.00  0.00    +0.110 A 
ATOM     20  N   UNL     1       0.332   6.637 -10.699  0.00  0.00    -0.244 NA
ATOM     21  C   UNL     1      -0.523   7.475 -11.329  0.00  0.00    +0.102 A 
ATOM     22  C   UNL     1      -0.221   7.867 -12.625  0.00  0.00    +0.061 A 
BRANCH  17  24
ATOM     23  C   UNL     1       1.126   7.799 -15.221  0.00  0.00    +0.253 C 
ATOM     24  O   UNL     1       1.100   7.550 -14.637  0.00  0.00    -0.468 OA
ENDBRANCH  17  24
BRANCH  18  25
ATOM     25  O   UNL     1       1.879   5.084 -13.493  0.00  0.00    -0.467 OA
ATOM     26  C   UNL     1       1.003   4.135 -14.043  0.00  0.00    +0.253 C 
ENDBRANCH  18  25
ENDBRANCH  16  19
ENDBRANCH   1  16
TORSDOF 7
ENDMDL
MODEL 7
REMARK VINA RESULT:      -7.2      2.377      3.480
REMARK  Name = 
REMARK  7 active torsions:
REMARK  status: ('A' for Active; 'I' for Inactive)
REMARK    1  A    between atoms: O_2  and  C_3
REMARK    2  A    between atoms: C_7  and  C_8
REMARK    3  A    between atoms: C_8  and  S_9
REMARK    4  A    between atoms: S_9  and  C_11
REMARK    5  A    between atoms: C_16  and  O_17
REMARK    6  A    between atoms: O_17  and  C_18
REMARK    7  A    between atoms: C_24  and  O_25
REMARK                            x       y       z     vdW  Elec       q    Type
REMARK                         _______ _______ _______ _____ _____    ______ ____
ROOT
ATOM      1  S   UNL     1       4.345   5.201  -8.283  0.00  0.00    +0.107 S 
ATOM      2  O   UNL     1       3.694   4.149  -9.230  0.00  0.00    -0.248 OA
ENDROOT
BRANCH   1   3
ATOM      3  C   UNL     1       5.542   5.977  -9.400  0.00  0.00    +0.221 A 
ATOM      4  N   UNL     1       5.288   6.821 -10.400  0.00  0.00    -0.218 NA
ATOM      5  C   UNL     1       6.341   6.901 -11.251  0.00  0.00    +0.104 A 
ATOM      6  C   UNL     1       7.359   6.191 -10.628  0.00  0.00    +0.101 A 
ATOM      7  C   UNL     1       8.446   5.769 -11.384  0.00  0.00    +0.024 A 
ATOM      8  C   UNL     1       8.367   5.671 -12.769  0.00  0.00    +0.039 A 
ATOM      9  C   UNL     1       7.303   6.300 -13.403  0.00  0.00    +0.146 A 
ATOM     10  C   UNL     1       6.414   7.017 -12.634  0.00  0.00    +0.058 A 
ATOM     11  N   UNL     1       6.862   5.741  -9.450  0.00  0.00    -0.218 NA
BRANCH   9  12
ATOM     12  O   UNL     1       7.038   5.928 -14.724  0.00  0.00    -0.424 OA
BRANCH  12  13
ATOM     13  C   UNL     1       6.731   6.901 -15.701  0.00  0.00    +0.509 C 
ATOM     14  F   UNL     1       7.678   6.851 -16.710  0.00  0.00    -0.155 F 
ATOM     15  F   UNL     1       5.450   6.778 -16.174  0.00  0.00    -0.155 F 
ENDBRANCH  12  13
ENDBRANCH   9  12
ENDBRANCH   1   3
BRANCH   1  16
ATOM     16  C   UNL     1       3.027   6.486  -8.281  0.00  0.00    +0.148 C 
BRANCH  16  19
ATOM     17  C   UNL     1       0.625   5.540  -5.634  0.00  0.00    +0.175 A 
ATOM     18  C   UNL     1       1.742   6.072  -6.251  0.00  0.00    +0.187 A 
ATOM     19  C   UNL     1       1.864   5.829  -7.613  0.00  0.00    +0.110 A 
ATOM     20  N   UNL     1       0.738   5.686  -8.355  0.00  0.00    -0.244 NA
ATOM     21  C   UNL     1      -0.448   5.411  -7.765  0.00  0.00    +0.102 A 
ATOM     22  C   UNL     1      -0.466   5.206  -6.394  0.00  0.00    +0.061 A 
BRANCH  17  24
ATOM     23  C   UNL     1       0.532   5.348  -3.633  0.00  0.00    +0.253 C 
ATOM     24  O   UNL     1       0.667   5.373  -4.253  0.00  0.00    -0.468 OA
ENDBRANCH  17  24
BRANCH  18  25
ATOM     25  O   UNL     1       2.527   7.027  -5.596  0.00  0.00    -0.467 OA
ATOM     26  C   UNL     1       3.693   6.702  -4.883  0.00  0.00    +0.253 C 
ENDBRANCH  18  25
ENDBRANCH  16  19
ENDBRANCH   1  16
TORSDOF 7
ENDMDL
MODEL 8
REMARK VINA RESULT:      -7.2      3.314      3.776
REMARK  Name = 
REMARK  7 active torsions:
REMARK  status: ('A' for Active; 'I' for Inactive)
REMARK    1  A    between atoms: O_2  and  C_3
REMARK    2  A    between atoms: C_7  and  C_8
REMARK    3  A    between atoms: C_8  and  S_9
REMARK    4  A    between atoms: S_9  and  C_11
REMARK    5  A    between atoms: C_16  and  O_17
REMARK    6  A    between atoms: O_17  and  C_18
REMARK    7  A    between atoms: C_24  and  O_25
REMARK                            x       y       z     vdW  Elec       q    Type
REMARK                         _______ _______ _______ _____ _____    ______ ____
ROOT
ATOM      1  S   UNL     1       2.324   6.302  -4.025  0.00  0.00    +0.107 S 
ATOM      2  O   UNL     1       3.316   5.386  -3.250  0.00  0.00    -0.248 OA
ENDROOT
BRANCH   1   3
ATOM      3  C   UNL     1       3.147   6.420  -5.635  0.00  0.00    +0.221 A 
ATOM      4  N   UNL     1       2.874   7.272  -6.623  0.00  0.00    -0.218 NA
ATOM      5  C   UNL     1       3.402   6.843  -7.797  0.00  0.00    +0.104 A 
ATOM      6  C   UNL     1       4.191   5.751  -7.457  0.00  0.00    +0.101 A 
ATOM      7  C   UNL     1       4.577   4.864  -8.453  0.00  0.00    +0.024 A 
ATOM      8  C   UNL     1       3.894   4.793  -9.662  0.00  0.00    +0.039 A 
ATOM      9  C   UNL     1       3.031   5.835  -9.979  0.00  0.00    +0.146 A 
ATOM     10  C   UNL     1       2.932   6.892  -9.103  0.00  0.00    +0.058 A 
ATOM     11  N   UNL     1       4.094   5.599  -6.113  0.00  0.00    -0.218 NA
BRANCH   9  12
ATOM     12  O   UNL     1       2.110   5.608 -11.006  0.00  0.00    -0.424 OA
BRANCH  12  13
ATOM     13  C   UNL     1       0.758   5.320 -10.712  0.00  0.00    +0.509 C 
ATOM     14  F   UNL     1       0.211   4.582 -11.749  0.00  0.00    -0.155 F 
ATOM     15  F   UNL     1       0.611   4.708  -9.494  0.00  0.00    -0.155 F 
ENDBRANCH  12  13
ENDBRANCH   9  12
ENDBRANCH   1   3
BRANCH   1  16
ATOM     16  C   UNL     1       1.007   5.080  -4.425  0.00  0.00    +0.148 C 
BRANCH  16  19
ATOM     17  C   UNL     1      -2.279   6.542  -3.565  0.00  0.00    +0.175 A 
ATOM     18  C   UNL     1      -1.158   5.733  -3.515  0.00  0.00    +0.187 A 
ATOM     19  C   UNL     1      -0.239   5.895  -4.543  0.00  0.00    +0.110 A 
ATOM     20  N   UNL     1      -0.114   7.114  -5.124  0.00  0.00    -0.244 NA
ATOM     21  C   UNL     1      -1.087   8.045  -4.989  0.00  0.00    +0.102 A 
ATOM     22  C   UNL     1      -2.241   7.694  -4.307  0.00  0.00    +0.061 A 
BRANCH  17  24
ATOM     23  C   UNL     1      -3.974   6.091  -2.579  0.00  0.00    +0.253 C 
ATOM     24  O   UNL     1      -3.400   6.138  -2.846  0.00  0.00    -0.468 OA
ENDBRANCH  17  24
BRANCH  18  25
ATOM     25  O   UNL     1      -0.850   5.020  -2.351  0.00  0.00    -0.467 OA
ATOM     26  C   UNL     1      -0.430   5.640  -1.162  0.00  0.00    +0.253 C 
ENDBRANCH  18  25
ENDBRANCH  16  19
ENDBRANCH   1  16
TORSDOF 7
ENDMDL
MODEL 9
REMARK VINA RESULT:      -7.1      2.433      3.718
REMARK  Name = 
REMARK  7 active torsions:
REMARK  status: ('A' for Active; 'I' for Inactive)
REMARK    1  A    between atoms: O_2  and  C_3
REMARK    2  A    between atoms: C_7  and  C_8
REMARK    3  A    between atoms: C_8  and  S_9
REMARK    4  A    between atoms: S_9  and  C_11
REMARK    5  A    between atoms: C_16  and  O_17
REMARK    6  A    between atoms: O_17  and  C_18
REMARK    7  A    between atoms: C_24  and  O_25
REMARK                            x       y       z     vdW  Elec       q    Type
REMARK                         _______ _______ _______ _____ _____    ______ ____
ROOT
ATOM      1  S   UNL     1       3.871   5.208  -8.169  0.00  0.00    +0.107 S 
ATOM      2  O   UNL     1       3.149   4.257  -9.170  0.00  0.00    -0.248 OA
ENDROOT
BRANCH   1   3
ATOM      3  C   UNL     1       5.151   5.922  -9.234  0.00  0.00    +0.221 A 
ATOM      4  N   UNL     1       4.985   6.803 -10.220  0.00  0.00    -0.218 NA
ATOM      5  C   UNL     1       6.065   6.828 -11.040  0.00  0.00    +0.104 A 
ATOM      6  C   UNL     1       7.014   6.035 -10.406  0.00  0.00    +0.101 A 
ATOM      7  C   UNL     1       8.090   5.555 -11.142  0.00  0.00    +0.024 A 
ATOM      8  C   UNL     1       8.045   5.492 -12.530  0.00  0.00    +0.039 A 
ATOM      9  C   UNL     1       7.046   6.208 -13.178  0.00  0.00    +0.146 A 
ATOM     10  C   UNL     1       6.187   6.968 -12.417  0.00  0.00    +0.058 A 
ATOM     11  N   UNL     1       6.452   5.595  -9.253  0.00  0.00    -0.218 NA
BRANCH   9  12
ATOM     12  O   UNL     1       6.794   5.884 -14.514  0.00  0.00    -0.424 OA
BRANCH  12  13
ATOM     13  C   UNL     1       7.128   6.784 -15.551  0.00  0.00    +0.509 C 
ATOM     14  F   UNL     1       7.163   6.102 -16.756  0.00  0.00    -0.155 F 
ATOM     15  F   UNL     1       6.292   7.871 -15.584  0.00  0.00    -0.155 F 
ENDBRANCH  12  13
ENDBRANCH   9  12
ENDBRANCH   1   3
BRANCH   1  16
ATOM     16  C   UNL     1       2.669   6.601  -8.131  0.00  0.00    +0.148 C 
BRANCH  16  19
ATOM     17  C   UNL     1       1.393   6.517  -4.661  0.00  0.00    +0.175 A 
ATOM     18  C   UNL     1       1.488   6.285  -6.021  0.00  0.00    +0.187 A 
ATOM     19  C   UNL     1       2.524   6.932  -6.682  0.00  0.00    +0.110 A 
ATOM     20  N   UNL     1       3.668   7.199  -6.003  0.00  0.00    -0.244 NA
ATOM     21  C   UNL     1       3.686   7.190  -4.650  0.00  0.00    +0.102 A 
ATOM     22  C   UNL     1       2.491   6.973  -3.980  0.00  0.00    +0.061 A 
BRANCH  17  24
ATOM     23  C   UNL     1      -0.353   6.290  -3.687  0.00  0.00    +0.253 C 
ATOM     24  O   UNL     1       0.169   6.267  -4.048  0.00  0.00    -0.468 OA
ENDBRANCH  17  24
BRANCH  18  25
ATOM     25  O   UNL     1       0.767   5.244  -6.616  0.00  0.00    -0.467 OA
ATOM     26  C   UNL     1      -0.467   5.437  -7.259  0.00  0.00    +0.253 C 
ENDBRANCH  18  25
ENDBRANCH  16  19
ENDBRANCH   1  16
TORSDOF 7
ENDMDL
