MODEL 1
REMARK VINA RESULT:      -6.6      0.000      0.000
REMARK  Name = 
REMARK  6 active torsions:
REMARK  status: ('A' for Active; 'I' for Inactive)
REMARK    1  A    between atoms: N_2  and  C_4
REMARK    2  A    between atoms: C_4  and  C_5
REMARK    3  A    between atoms: C_5  and  O_6
REMARK    4  A    between atoms: O_6  and  C_7
REMARK    5  A    between atoms: C_7  and  C_8
REMARK    6  A    between atoms: C_7  and  C_15
REMARK                            x       y       z     vdW  Elec       q    Type
REMARK                         _______ _______ _______ _____ _____    ______ ____
ROOT
ATOM      1  C   UNL     1       4.034   5.297 -10.613  0.00  0.00    +0.177 C 
ENDROOT
BRANCH   1   2
ATOM      2  C   UNL     1       3.273   5.539  -9.164  0.00  0.00    +0.010 A 
ATOM      3  C   UNL     1       2.861   4.375  -8.576  0.00  0.00    -0.001 A 
ATOM      4  C   UNL     1       1.854   4.406  -7.615  0.00  0.00    +0.011 A 
ATOM      5  C   UNL     1       1.041   5.527  -7.639  0.00  0.00    +0.058 A 
ATOM      6 CL   UNL     1      -0.705   5.456  -7.439  0.00  0.00    -0.082 Cl
ATOM      7  C   UNL     1       1.701   6.715  -7.931  0.00  0.00    +0.011 A 
ATOM      8  C   UNL     1       2.722   6.706  -8.881  0.00  0.00    -0.001 A 
ENDBRANCH   1   2
BRANCH   1   9
ATOM      9  C   UNL     1       5.326   6.288 -10.268  0.00  0.00    +0.090 A 
ATOM     10  N   UNL     1       6.435   5.552  -9.994  0.00  0.00    -0.245 NA
ATOM     11  C   UNL     1       7.535   6.293  -9.709  0.00  0.00    +0.099 A 
ATOM     12  C   UNL     1       7.677   7.464 -10.444  0.00  0.00    +0.021 A 
ATOM     13  C   UNL     1       6.671   7.923 -11.288  0.00  0.00    +0.003 A 
ATOM     14  C   UNL     1       5.496   7.226 -11.284  0.00  0.00    +0.018 A 
ENDBRANCH   1   9
BRANCH   1  15
ATOM     15  O   UNL     1       3.272   6.483 -11.278  0.00  0.00    -0.344 OA
BRANCH  15  16
ATOM     16  C   UNL     1       2.640   5.875 -12.378  0.00  0.00    +0.160 C 
BRANCH  16  17
ATOM     17  C   UNL     1       1.352   6.667 -12.571  0.00  0.00    +0.105 C 
BRANCH  17  19
ATOM     18  C   UNL     1      -0.017   5.316 -11.256  0.00  0.00    +0.090 C 
ATOM     19  N   UNL     1       0.506   6.636 -11.408  0.00  0.00    -0.268 NA
ATOM     20  C   UNL     1      -0.632   7.504 -11.550  0.00  0.00    +0.090 C 
ENDBRANCH  17  19
ENDBRANCH  16  17
ENDBRANCH  15  16
ENDBRANCH   1  15
TORSDOF 6
ENDMDL
MODEL 2
REMARK VINA RESULT:      -6.5      2.874      5.040
REMARK  Name = 
REMARK  6 active torsions:
REMARK  status: ('A' for Active; 'I' for Inactive)
REMARK    1  A    between atoms: N_2  and  C_4
REMARK    2  A    between atoms: C_4  and  C_5
REMARK    3  A    between atoms: C_5  and  O_6
REMARK    4  A    between atoms: O_6  and  C_7
REMARK    5  A    between atoms: C_7  and  C_8
REMARK    6  A    between atoms: C_7  and  C_15
REMARK                            x       y       z     vdW  Elec       q    Type
REMARK                         _______ _______ _______ _____ _____    ______ ____
ROOT
ATOM      1  C   UNL     1       3.668   6.477 -10.226  0.00  0.00    +0.177 C 
ENDROOT
BRANCH   1   2
ATOM      2  C   UNL     1       5.302   6.706 -10.106  0.00  0.00    +0.010 A 
ATOM      3  C   UNL     1       5.773   7.654 -10.971  0.00  0.00    -0.001 A 
ATOM      4  C   UNL     1       7.123   7.664 -11.315  0.00  0.00    +0.011 A 
ATOM      5  C   UNL     1       7.798   6.471 -11.116  0.00  0.00    +0.058 A 
ATOM      6 CL   UNL     1       8.954   5.814 -12.268  0.00  0.00    -0.082 Cl
ATOM      7  C   UNL     1       7.421   5.776  -9.973  0.00  0.00    +0.011 A 
ATOM      8  C   UNL     1       6.077   5.762  -9.602  0.00  0.00    -0.001 A 
ENDBRANCH   1   2
BRANCH   1   9
ATOM      9  C   UNL     1       3.539   5.595  -8.819  0.00  0.00    +0.090 A 
ATOM     10  N   UNL     1       3.069   6.372  -7.808  0.00  0.00    -0.245 NA
ATOM     11  C   UNL     1       2.930   5.721  -6.627  0.00  0.00    +0.099 A 
ATOM     12  C   UNL     1       2.491   4.404  -6.715  0.00  0.00    +0.021 A 
ATOM     13  C   UNL     1       2.370   3.757  -7.940  0.00  0.00    +0.003 A 
ATOM     14  C   UNL     1       2.799   4.437  -9.045  0.00  0.00    +0.018 A 
ENDBRANCH   1   9
BRANCH   1  15
ATOM     15  O   UNL     1       3.852   5.170 -11.054  0.00  0.00    -0.344 OA
BRANCH  15  16
ATOM     16  C   UNL     1       3.520   5.573 -12.360  0.00  0.00    +0.160 C 
BRANCH  16  17
ATOM     17  C   UNL     1       2.205   6.329 -12.211  0.00  0.00    +0.105 C 
BRANCH  17  19
ATOM     18  C   UNL     1       0.421   4.852 -11.957  0.00  0.00    +0.090 C 
ATOM     19  N   UNL     1       1.116   5.681 -12.891  0.00  0.00    -0.268 NA
ATOM     20  C   UNL     1       1.580   4.808 -13.935  0.00  0.00    +0.090 C 
ENDBRANCH  17  19
ENDBRANCH  16  17
ENDBRANCH  15  16
ENDBRANCH   1  15
TORSDOF 6
ENDMDL
MODEL 3
REMARK VINA RESULT:      -6.5      3.269      5.144
REMARK  Name = 
REMARK  6 active torsions:
REMARK  status: ('A' for Active; 'I' for Inactive)
REMARK    1  A    between atoms: N_2  and  C_4
REMARK    2  A    between atoms: C_4  and  C_5
REMARK    3  A    between atoms: C_5  and  O_6
REMARK    4  A    between atoms: O_6  and  C_7
REMARK    5  A    between atoms: C_7  and  C_8
REMARK    6  A    between atoms: C_7  and  C_15
REMARK                            x       y       z     vdW  Elec       q    Type
REMARK                         _______ _______ _______ _____ _____    ______ ____
ROOT
ATOM      1  C   UNL     1       1.633   5.495  -7.046  0.00  0.00    +0.177 C 
ENDROOT
BRANCH   1   2
ATOM      2  C   UNL     1       0.108   6.011  -6.664  0.00  0.00    +0.010 A 
ATOM      3  C   UNL     1       0.079   6.822  -5.563  0.00  0.00    -0.001 A 
ATOM      4  C   UNL     1      -1.110   6.983  -4.856  0.00  0.00    +0.011 A 
ATOM      5  C   UNL     1      -2.053   5.986  -5.041  0.00  0.00    +0.058 A 
ATOM      6 CL   UNL     1      -3.004   5.304  -3.727  0.00  0.00    -0.082 Cl
ATOM      7  C   UNL     1      -2.127   5.492  -6.338  0.00  0.00    +0.011 A 
ATOM      8  C   UNL     1      -0.951   5.334  -7.070  0.00  0.00    -0.001 A 
ENDBRANCH   1   2
BRANCH   1   9
ATOM      9  C   UNL     1       2.329   6.031  -5.631  0.00  0.00    +0.090 A 
ATOM     10  N   UNL     1       2.693   4.982  -4.849  0.00  0.00    -0.245 NA
ATOM     11  C   UNL     1       3.275   5.340  -3.677  0.00  0.00    +0.099 A 
ATOM     12  C   UNL     1       4.112   6.449  -3.737  0.00  0.00    +0.021 A 
ATOM     13  C   UNL     1       4.204   7.232  -4.883  0.00  0.00    +0.003 A 
ATOM     14  C   UNL     1       3.361   6.923  -5.913  0.00  0.00    +0.018 A 
ENDBRANCH   1   9
BRANCH   1  15
ATOM     15  O   UNL     1       1.975   6.842  -7.751  0.00  0.00    -0.344 OA
BRANCH  15  16
ATOM     16  C   UNL     1       1.897   6.513  -9.117  0.00  0.00    +0.160 C 
BRANCH  16  17
ATOM     17  C   UNL     1       2.585   5.159  -9.230  0.00  0.00    +0.105 C 
BRANCH  17  19
ATOM     18  C   UNL     1       4.899   5.211  -8.956  0.00  0.00    +0.090 C 
ATOM     19  N   UNL     1       3.846   5.237  -9.920  0.00  0.00    -0.268 NA
ATOM     20  C   UNL     1       3.988   6.475 -10.636  0.00  0.00    +0.090 C 
ENDBRANCH  17  19
ENDBRANCH  16  17
ENDBRANCH  15  16
ENDBRANCH   1  15
TORSDOF 6
ENDMDL
MODEL 4
REMARK VINA RESULT:      -6.5      4.141      6.838
REMARK  Name = 
REMARK  6 active torsions:
REMARK  status: ('A' for Active; 'I' for Inactive)
REMARK    1  A    between atoms: N_2  and  C_4
REMARK    2  A    between atoms: C_4  and  C_5
REMARK    3  A    between atoms: C_5  and  O_6
REMARK    4  A    between atoms: O_6  and  C_7
REMARK    5  A    between atoms: C_7  and  C_8
REMARK    6  A    between atoms: C_7  and  C_15
REMARK                            x       y       z     vdW  Elec       q    Type
REMARK                         _______ _______ _______ _____ _____    ______ ____
ROOT
ATOM      1  C   UNL     1       1.281   6.371  -5.646  0.00  0.00    +0.177 C 
ENDROOT
BRANCH   1   2
ATOM      2  C   UNL     1      -0.358   6.584  -5.592  0.00  0.00    +0.010 A 
ATOM      3  C   UNL     1      -0.728   7.717  -4.921  0.00  0.00    -0.001 A 
ATOM      4  C   UNL     1      -2.018   7.825  -4.408  0.00  0.00    +0.011 A 
ATOM      5  C   UNL     1      -2.689   6.627  -4.222  0.00  0.00    +0.058 A 
ATOM      6 CL   UNL     1      -3.663   6.278  -2.800  0.00  0.00    -0.082 Cl
ATOM      7  C   UNL     1      -2.456   5.675  -5.208  0.00  0.00    +0.011 A 
ATOM      8  C   UNL     1      -1.175   5.557  -5.746  0.00  0.00    -0.001 A 
ENDBRANCH   1   2
BRANCH   1   9
ATOM      9  C   UNL     1       1.269   5.490  -7.059  0.00  0.00    +0.090 A 
ATOM     10  N   UNL     1       1.327   6.313  -8.138  0.00  0.00    -0.245 NA
ATOM     11  C   UNL     1       1.327   5.665  -9.330  0.00  0.00    +0.099 A 
ATOM     12  C   UNL     1       2.038   4.471  -9.364  0.00  0.00    +0.021 A 
ATOM     13  C   UNL     1       2.564   3.903  -8.208  0.00  0.00    +0.003 A 
ATOM     14  C   UNL     1       2.265   4.516  -7.025  0.00  0.00    +0.018 A 
ENDBRANCH   1   9
BRANCH   1  15
ATOM     15  O   UNL     1       1.199   5.063  -4.803  0.00  0.00    -0.344 OA
BRANCH  15  16
ATOM     16  C   UNL     1       1.680   5.468  -3.544  0.00  0.00    +0.160 C 
BRANCH  16  17
ATOM     17  C   UNL     1       2.903   6.324  -3.852  0.00  0.00    +0.105 C 
BRANCH  17  19
ATOM     18  C   UNL     1       4.727   4.920  -4.213  0.00  0.00    +0.090 C 
ATOM     19  N   UNL     1       4.107   5.795  -3.270  0.00  0.00    -0.268 NA
ATOM     20  C   UNL     1       3.834   4.999  -2.104  0.00  0.00    +0.090 C 
ENDBRANCH  17  19
ENDBRANCH  16  17
ENDBRANCH  15  16
ENDBRANCH   1  15
TORSDOF 6
ENDMDL
MODEL 5
REMARK VINA RESULT:      -6.4      2.971      5.274
REMARK  Name = 
REMARK  6 active torsions:
REMARK  status: ('A' for Active; 'I' for Inactive)
REMARK    1  A    between atoms: N_2  and  C_4
REMARK    2  A    between atoms: C_4  and  C_5
REMARK    3  A    between atoms: C_5  and  O_6
REMARK    4  A    between atoms: O_6  and  C_7
REMARK    5  A    between atoms: C_7  and  C_8
REMARK    6  A    between atoms: C_7  and  C_15
REMARK                            x       y       z     vdW  Elec       q    Type
REMARK                         _______ _______ _______ _____ _____    ______ ____
ROOT
ATOM      1  C   UNL     1       3.776   5.646  -9.974  0.00  0.00    +0.177 C 
ENDROOT
BRANCH   1   2
ATOM      2  C   UNL     1       5.327   6.215  -9.898  0.00  0.00    +0.010 A 
ATOM      3  C   UNL     1       5.582   7.194 -10.817  0.00  0.00    -0.001 A 
ATOM      4  C   UNL     1       6.897   7.466 -11.188  0.00  0.00    +0.011 A 
ATOM      5  C   UNL     1       7.808   6.452 -10.946  0.00  0.00    +0.058 A 
ATOM      6 CL   UNL     1       9.064   5.991 -12.088  0.00  0.00    -0.082 Cl
ATOM      7  C   UNL     1       7.595   5.753  -9.763  0.00  0.00    +0.011 A 
ATOM      8  C   UNL     1       6.287   5.479  -9.365  0.00  0.00    -0.001 A 
ENDBRANCH   1   2
BRANCH   1   9
ATOM      9  C   UNL     1       3.557   6.028 -11.580  0.00  0.00    +0.090 A 
ATOM     10  N   UNL     1       4.137   5.094 -12.378  0.00  0.00    -0.245 NA
ATOM     11  C   UNL     1       3.996   5.333 -13.705  0.00  0.00    +0.099 A 
ATOM     12  C   UNL     1       2.774   5.873 -14.091  0.00  0.00    +0.021 A 
ATOM     13  C   UNL     1       1.835   6.293 -13.155  0.00  0.00    +0.003 A 
ATOM     14  C   UNL     1       2.207   6.247 -11.841  0.00  0.00    +0.018 A 
ENDBRANCH   1   9
BRANCH   1  15
ATOM     15  O   UNL     1       3.187   7.023  -9.543  0.00  0.00    -0.344 OA
BRANCH  15  16
ATOM     16  C   UNL     1       2.904   6.833  -8.178  0.00  0.00    +0.160 C 
BRANCH  16  17
ATOM     17  C   UNL     1       2.133   5.520  -8.120  0.00  0.00    +0.105 C 
BRANCH  17  19
ATOM     18  C   UNL     1       2.069   3.875  -6.472  0.00  0.00    +0.090 C 
ATOM     19  N   UNL     1       1.673   5.209  -6.793  0.00  0.00    -0.268 NA
ATOM     20  C   UNL     1       0.239   5.235  -6.703  0.00  0.00    +0.090 C 
ENDBRANCH  17  19
ENDBRANCH  16  17
ENDBRANCH  15  16
ENDBRANCH   1  15
TORSDOF 6
ENDMDL
MODEL 6
REMARK VINA RESULT:      -6.4      1.873      2.375
REMARK  Name = 
REMARK  6 active torsions:
REMARK  status: ('A' for Active; 'I' for Inactive)
REMARK    1  A    between atoms: N_2  and  C_4
REMARK    2  A    between atoms: C_4  and  C_5
REMARK    3  A    between atoms: C_5  and  O_6
REMARK    4  A    between atoms: O_6  and  C_7
REMARK    5  A    between atoms: C_7  and  C_8
REMARK    6  A    between atoms: C_7  and  C_15
REMARK                            x       y       z     vdW  Elec       q    Type
REMARK                         _______ _______ _______ _____ _____    ______ ____
ROOT
ATOM      1  C   UNL     1       3.880   5.321 -10.580  0.00  0.00    +0.177 C 
ENDROOT
BRANCH   1   2
ATOM      2  C   UNL     1       3.122   5.613  -9.139  0.00  0.00    +0.010 A 
ATOM      3  C   UNL     1       2.859   6.939  -8.933  0.00  0.00    -0.001 A 
ATOM      4  C   UNL     1       2.640   7.406  -7.640  0.00  0.00    +0.011 A 
ATOM      5  C   UNL     1       3.134   6.604  -6.624  0.00  0.00    +0.058 A 
ATOM      6 CL   UNL     1       3.960   7.242  -5.208  0.00  0.00    -0.082 Cl
ATOM      7  C   UNL     1       3.012   5.239  -6.854  0.00  0.00    +0.011 A 
ATOM      8  C   UNL     1       3.214   4.749  -8.144  0.00  0.00    -0.001 A 
ENDBRANCH   1   2
BRANCH   1   9
ATOM      9  C   UNL     1       5.212   6.260 -10.238  0.00  0.00    +0.090 A 
ATOM     10  N   UNL     1       6.278   5.481  -9.917  0.00  0.00    -0.245 NA
ATOM     11  C   UNL     1       7.407   6.176  -9.630  0.00  0.00    +0.099 A 
ATOM     12  C   UNL     1       7.621   7.315 -10.399  0.00  0.00    +0.021 A 
ATOM     13  C   UNL     1       6.656   7.793 -11.279  0.00  0.00    +0.003 A 
ATOM     14  C   UNL     1       5.448   7.154 -11.280  0.00  0.00    +0.018 A 
ENDBRANCH   1   9
BRANCH   1  15
ATOM     15  O   UNL     1       3.175   6.531 -11.264  0.00  0.00    -0.344 OA
BRANCH  15  16
ATOM     16  C   UNL     1       2.195   5.915 -12.063  0.00  0.00    +0.160 C 
BRANCH  16  17
ATOM     17  C   UNL     1       2.831   5.808 -13.444  0.00  0.00    +0.105 C 
BRANCH  17  19
ATOM     18  C   UNL     1       1.066   6.530 -14.783  0.00  0.00    +0.090 C 
ATOM     19  N   UNL     1       1.889   5.410 -14.456  0.00  0.00    -0.268 NA
ATOM     20  C   UNL     1       1.000   4.383 -13.985  0.00  0.00    +0.090 C 
ENDBRANCH  17  19
ENDBRANCH  16  17
ENDBRANCH  15  16
ENDBRANCH   1  15
TORSDOF 6
ENDMDL
MODEL 7
REMARK VINA RESULT:      -6.3      4.620      6.756
REMARK  Name = 
REMARK  6 active torsions:
REMARK  status: ('A' for Active; 'I' for Inactive)
REMARK    1  A    between atoms: N_2  and  C_4
REMARK    2  A    between atoms: C_4  and  C_5
REMARK    3  A    between atoms: C_5  and  O_6
REMARK    4  A    between atoms: O_6  and  C_7
REMARK    5  A    between atoms: C_7  and  C_8
REMARK    6  A    between atoms: C_7  and  C_15
REMARK                            x       y       z     vdW  Elec       q    Type
REMARK                         _______ _______ _______ _____ _____    ______ ____
ROOT
ATOM      1  C   UNL     1       0.893   6.848  -5.595  0.00  0.00    +0.177 C 
ENDROOT
BRANCH   1   2
ATOM      2  C   UNL     1       1.058   6.259  -7.132  0.00  0.00    +0.010 A 
ATOM      3  C   UNL     1       1.927   6.989  -7.893  0.00  0.00    -0.001 A 
ATOM      4  C   UNL     1       1.856   6.916  -9.282  0.00  0.00    +0.011 A 
ATOM      5  C   UNL     1       0.650   6.468  -9.796  0.00  0.00    +0.058 A 
ATOM      6 CL   UNL     1      -0.128   7.191 -11.197  0.00  0.00    -0.082 Cl
ATOM      7  C   UNL     1       0.047   5.457  -9.057  0.00  0.00    +0.011 A 
ATOM      8  C   UNL     1       0.115   5.502  -7.665  0.00  0.00    -0.001 A 
ENDBRANCH   1   2
BRANCH   1   9
ATOM      9  C   UNL     1       2.452   6.488  -5.131  0.00  0.00    +0.090 A 
ATOM     10  N   UNL     1       2.773   7.140  -3.983  0.00  0.00    -0.245 NA
ATOM     11  C   UNL     1       4.030   6.891  -3.538  0.00  0.00    +0.099 A 
ATOM     12  C   UNL     1       4.482   5.588  -3.713  0.00  0.00    +0.021 A 
ATOM     13  C   UNL     1       3.755   4.657  -4.449  0.00  0.00    +0.003 A 
ATOM     14  C   UNL     1       2.629   5.108  -5.077  0.00  0.00    +0.018 A 
ENDBRANCH   1   9
BRANCH   1  15
ATOM     15  O   UNL     1       0.392   5.474  -5.058  0.00  0.00    -0.344 OA
BRANCH  15  16
ATOM     16  C   UNL     1      -0.811   5.807  -4.409  0.00  0.00    +0.160 C 
BRANCH  16  17
ATOM     17  C   UNL     1      -0.627   5.320  -2.976  0.00  0.00    +0.105 C 
BRANCH  17  19
ATOM     18  C   UNL     1      -2.938   5.239  -3.263  0.00  0.00    +0.090 C 
ATOM     19  N   UNL     1      -1.875   4.988  -2.343  0.00  0.00    -0.268 NA
ATOM     20  C   UNL     1      -2.132   5.818  -1.197  0.00  0.00    +0.090 C 
ENDBRANCH  17  19
ENDBRANCH  16  17
ENDBRANCH  15  16
ENDBRANCH   1  15
TORSDOF 6
ENDMDL
MODEL 8
REMARK VINA RESULT:      -6.3      3.266      5.621
REMARK  Name = 
REMARK  6 active torsions:
REMARK  status: ('A' for Active; 'I' for Inactive)
REMARK    1  A    between atoms: N_2  and  C_4
REMARK    2  A    between atoms: C_4  and  C_5
REMARK    3  A    between atoms: C_5  and  O_6
REMARK    4  A    between atoms: O_6  and  C_7
REMARK    5  A    between atoms: C_7  and  C_8
REMARK    6  A    between atoms: C_7  and  C_15
REMARK                            x       y       z     vdW  Elec       q    Type
REMARK                         _______ _______ _______ _____ _____    ______ ____
ROOT
ATOM      1  C   UNL     1       3.768   6.481 -10.256  0.00  0.00    +0.177 C 
ENDROOT
BRANCH   1   2
ATOM      2  C   UNL     1       5.397   6.696 -10.063  0.00  0.00    +0.010 A 
ATOM      3  C   UNL     1       5.914   7.644 -10.903  0.00  0.00    -0.001 A 
ATOM      4  C   UNL     1       7.278   7.644 -11.186  0.00  0.00    +0.011 A 
ATOM      5  C   UNL     1       7.934   6.445 -10.963  0.00  0.00    +0.058 A 
ATOM      6 CL   UNL     1       9.134   5.783 -12.065  0.00  0.00    -0.082 Cl
ATOM      7  C   UNL     1       7.501   5.748  -9.840  0.00  0.00    +0.011 A 
ATOM      8  C   UNL     1       6.142   5.744  -9.529  0.00  0.00    -0.001 A 
ENDBRANCH   1   2
BRANCH   1   9
ATOM      9  C   UNL     1       3.580   5.549  -8.890  0.00  0.00    +0.090 A 
ATOM     10  N   UNL     1       3.121   6.301  -7.856  0.00  0.00    -0.245 NA
ATOM     11  C   UNL     1       2.936   5.607  -6.705  0.00  0.00    +0.099 A 
ATOM     12  C   UNL     1       2.448   4.314  -6.856  0.00  0.00    +0.021 A 
ATOM     13  C   UNL     1       2.324   3.723  -8.109  0.00  0.00    +0.003 A 
ATOM     14  C   UNL     1       2.799   4.431  -9.177  0.00  0.00    +0.018 A 
ENDBRANCH   1   9
BRANCH   1  15
ATOM     15  O   UNL     1       3.980   5.205 -11.126  0.00  0.00    -0.344 OA
BRANCH  15  16
ATOM     16  C   UNL     1       3.537   5.612 -12.398  0.00  0.00    +0.160 C 
BRANCH  16  17
ATOM     17  C   UNL     1       4.615   5.126 -13.358  0.00  0.00    +0.105 C 
BRANCH  17  19
ATOM     18  C   UNL     1       4.549   6.573 -15.183  0.00  0.00    +0.090 C 
ATOM     19  N   UNL     1       5.293   6.208 -14.020  0.00  0.00    -0.268 NA
ATOM     20  C   UNL     1       6.597   5.820 -14.484  0.00  0.00    +0.090 C 
ENDBRANCH  17  19
ENDBRANCH  16  17
ENDBRANCH  15  16
ENDBRANCH   1  15
TORSDOF 6
ENDMDL
MODEL 9
REMARK VINA RESULT:      -6.3      2.290      4.039
REMARK  Name = 
REMARK  6 active torsions:
REMARK  status: ('A' for Active; 'I' for Inactive)
REMARK    1  A    between atoms: N_2  and  C_4
REMARK    2  A    between atoms: C_4  and  C_5
REMARK    3  A    between atoms: C_5  and  O_6
REMARK    4  A    between atoms: O_6  and  C_7
REMARK    5  A    between atoms: C_7  and  C_8
REMARK    6  A    between atoms: C_7  and  C_15
REMARK                            x       y       z     vdW  Elec       q    Type
REMARK                         _______ _______ _______ _____ _____    ______ ____
ROOT
ATOM      1  C   UNL     1       3.471   6.246  -9.997  0.00  0.00    +0.177 C 
ENDROOT
BRANCH   1   2
ATOM      2  C   UNL     1       2.845   6.282 -11.528  0.00  0.00    +0.010 A 
ATOM      3  C   UNL     1       1.493   6.489 -11.547  0.00  0.00    -0.001 A 
ATOM      4  C   UNL     1       0.754   6.119 -12.668  0.00  0.00    +0.011 A 
ATOM      5  C   UNL     1       1.350   5.179 -13.492  0.00  0.00    +0.058 A 
ATOM      6 CL   UNL     1       0.474   3.834 -14.210  0.00  0.00    -0.082 Cl
ATOM      7  C   UNL     1       2.726   5.324 -13.635  0.00  0.00    +0.011 A 
ATOM      8  C   UNL     1       3.485   5.705 -12.529  0.00  0.00    -0.001 A 
ENDBRANCH   1   2
BRANCH   1   9
ATOM      9  C   UNL     1       5.060   6.348 -10.486  0.00  0.00    +0.090 A 
ATOM     10  N   UNL     1       5.395   7.635 -10.761  0.00  0.00    -0.245 NA
ATOM     11  C   UNL     1       6.681   7.800 -11.161  0.00  0.00    +0.099 A 
ATOM     12  C   UNL     1       7.615   6.989 -10.527  0.00  0.00    +0.021 A 
ATOM     13  C   UNL     1       7.228   5.965  -9.668  0.00  0.00    +0.003 A 
ATOM     14  C   UNL     1       5.888   5.725  -9.555  0.00  0.00    +0.018 A 
ENDBRANCH   1   9
BRANCH   1  15
ATOM     15  O   UNL     1       3.546   4.690 -10.000  0.00  0.00    -0.344 OA
BRANCH  15  16
ATOM     16  C   UNL     1       2.524   4.322  -9.106  0.00  0.00    +0.160 C 
BRANCH  16  17
ATOM     17  C   UNL     1       2.827   5.097  -7.829  0.00  0.00    +0.105 C 
BRANCH  17  19
ATOM     18  C   UNL     1       1.423   4.259  -6.170  0.00  0.00    +0.090 C 
ATOM     19  N   UNL     1       1.647   5.361  -7.051  0.00  0.00    -0.268 NA
ATOM     20  C   UNL     1       0.473   5.460  -7.875  0.00  0.00    +0.090 C 
ENDBRANCH  17  19
ENDBRANCH  16  17
ENDBRANCH  15  16
ENDBRANCH   1  15
TORSDOF 6
ENDMDL
