MODEL 1
REMARK VINA RESULT:      -3.6      0.000      0.000
REMARK  Name = 
REMARK  6 active torsions:
REMARK  status: ('A' for Active; 'I' for Inactive)
REMARK    1  A    between atoms: C_2  and  C_3
REMARK    2  A    between atoms: C_3  and  N_4
REMARK    3  A    between atoms: N_4  and  C_5
REMARK    4  A    between atoms: N_4  and  C_8
REMARK    5  A    between atoms: C_5  and  C_6
REMARK    6  A    between atoms: C_8  and  C_9
REMARK                            x       y       z     vdW  Elec       q    Type
REMARK                         _______ _______ _______ _____ _____    ______ ____
ROOT
ATOM      1  N   UNL     1      -0.751   5.648  -3.869  0.00  0.00    -0.266 NA
ENDROOT
BRANCH   1   2
ATOM      2  C   UNL     1      -0.407   5.425  -5.252  0.00  0.00    +0.108 C 
BRANCH   2   4
ATOM      3  O   UNL     1       1.209   3.793  -5.987  0.00  0.00    -0.219 OA
ATOM      4  C   UNL     1       1.036   5.085  -5.470  0.00  0.00    +0.199 C 
ENDBRANCH   2   4
ENDBRANCH   1   2
BRANCH   1   5
ATOM      5  C   UNL     1      -1.837   6.586  -3.697  0.00  0.00    +0.108 C 
BRANCH   5   6
ATOM      6  C   UNL     1      -3.071   5.946  -3.114  0.00  0.00    +0.199 C 
ATOM      7  O   UNL     1      -2.857   4.649  -2.672  0.00  0.00    -0.219 OA
ENDBRANCH   5   6
ENDBRANCH   1   5
BRANCH   1   8
ATOM      8  C   UNL     1       0.422   6.123  -3.159  0.00  0.00    +0.108 C 
BRANCH   8   9
ATOM      9  C   UNL     1       0.398   5.790  -1.691  0.00  0.00    +0.199 C 
ATOM     10  O   UNL     1       0.322   4.408  -1.463  0.00  0.00    -0.219 OA
ENDBRANCH   8   9
ENDBRANCH   1   8
TORSDOF 6
ENDMDL
MODEL 2
REMARK VINA RESULT:      -3.6      1.646      1.681
REMARK  Name = 
REMARK  6 active torsions:
REMARK  status: ('A' for Active; 'I' for Inactive)
REMARK    1  A    between atoms: C_2  and  C_3
REMARK    2  A    between atoms: C_3  and  N_4
REMARK    3  A    between atoms: N_4  and  C_5
REMARK    4  A    between atoms: N_4  and  C_8
REMARK    5  A    between atoms: C_5  and  C_6
REMARK    6  A    between atoms: C_8  and  C_9
REMARK                            x       y       z     vdW  Elec       q    Type
REMARK                         _______ _______ _______ _____ _____    ______ ____
ROOT
ATOM      1  N   UNL     1      -0.932   6.088  -3.852  0.00  0.00    -0.266 NA
ENDROOT
BRANCH   1   2
ATOM      2  C   UNL     1      -0.803   6.486  -5.232  0.00  0.00    +0.108 C 
BRANCH   2   4
ATOM      3  O   UNL     1      -2.728   5.763  -6.492  0.00  0.00    -0.219 OA
ATOM      4  C   UNL     1      -1.380   5.503  -6.204  0.00  0.00    +0.199 C 
ENDBRANCH   2   4
ENDBRANCH   1   2
BRANCH   1   5
ATOM      5  C   UNL     1      -1.949   6.825  -3.140  0.00  0.00    +0.108 C 
BRANCH   5   6
ATOM      6  C   UNL     1      -3.166   5.989  -2.834  0.00  0.00    +0.199 C 
ATOM      7  O   UNL     1      -2.907   4.627  -2.832  0.00  0.00    -0.219 OA
ENDBRANCH   5   6
ENDBRANCH   1   5
BRANCH   1   8
ATOM      8  C   UNL     1       0.349   6.255  -3.189  0.00  0.00    +0.108 C 
BRANCH   8   9
ATOM      9  C   UNL     1       0.317   5.855  -1.738  0.00  0.00    +0.199 C 
ATOM     10  O   UNL     1       0.233   4.464  -1.575  0.00  0.00    -0.219 OA
ENDBRANCH   8   9
ENDBRANCH   1   8
TORSDOF 6
ENDMDL
MODEL 3
REMARK VINA RESULT:      -3.5      7.809     10.142
REMARK  Name = 
REMARK  6 active torsions:
REMARK  status: ('A' for Active; 'I' for Inactive)
REMARK    1  A    between atoms: C_2  and  C_3
REMARK    2  A    between atoms: C_3  and  N_4
REMARK    3  A    between atoms: N_4  and  C_5
REMARK    4  A    between atoms: N_4  and  C_8
REMARK    5  A    between atoms: C_5  and  C_6
REMARK    6  A    between atoms: C_8  and  C_9
REMARK                            x       y       z     vdW  Elec       q    Type
REMARK                         _______ _______ _______ _____ _____    ______ ____
ROOT
ATOM      1  N   UNL     1       5.702   6.270 -10.714  0.00  0.00    -0.266 NA
ENDROOT
BRANCH   1   2
ATOM      2  C   UNL     1       4.715   5.389 -11.289  0.00  0.00    +0.108 C 
BRANCH   2   4
ATOM      3  O   UNL     1       4.676   4.546 -13.548  0.00  0.00    -0.219 OA
ATOM      4  C   UNL     1       4.428   5.661 -12.734  0.00  0.00    +0.199 C 
ENDBRANCH   2   4
ENDBRANCH   1   2
BRANCH   1   5
ATOM      5  C   UNL     1       6.850   6.472 -11.568  0.00  0.00    +0.108 C 
BRANCH   5   6
ATOM      6  C   UNL     1       7.830   5.328 -11.504  0.00  0.00    +0.199 C 
ATOM      7  O   UNL     1       7.894   4.597 -12.681  0.00  0.00    -0.219 OA
ENDBRANCH   5   6
ENDBRANCH   1   5
BRANCH   1   8
ATOM      8  C   UNL     1       6.132   5.731  -9.437  0.00  0.00    +0.108 C 
BRANCH   8   9
ATOM      9  C   UNL     1       5.020   5.058  -8.677  0.00  0.00    +0.199 C 
ATOM     10  O   UNL     1       4.889   5.560  -7.374  0.00  0.00    -0.219 OA
ENDBRANCH   8   9
ENDBRANCH   1   8
TORSDOF 6
ENDMDL
MODEL 4
REMARK VINA RESULT:      -3.5      0.897      3.825
REMARK  Name = 
REMARK  6 active torsions:
REMARK  status: ('A' for Active; 'I' for Inactive)
REMARK    1  A    between atoms: C_2  and  C_3
REMARK    2  A    between atoms: C_3  and  N_4
REMARK    3  A    between atoms: N_4  and  C_5
REMARK    4  A    between atoms: N_4  and  C_8
REMARK    5  A    between atoms: C_5  and  C_6
REMARK    6  A    between atoms: C_8  and  C_9
REMARK                            x       y       z     vdW  Elec       q    Type
REMARK                         _______ _______ _______ _____ _____    ______ ____
ROOT
ATOM      1  N   UNL     1      -0.130   5.610  -3.672  0.00  0.00    -0.266 NA
ENDROOT
BRANCH   1   2
ATOM      2  C   UNL     1      -1.376   6.332  -3.591  0.00  0.00    +0.108 C 
BRANCH   2   4
ATOM      3  O   UNL     1      -2.714   4.714  -2.405  0.00  0.00    -0.219 OA
ATOM      4  C   UNL     1      -2.589   5.452  -3.591  0.00  0.00    +0.199 C 
ENDBRANCH   2   4
ENDBRANCH   1   2
BRANCH   1   5
ATOM      5  C   UNL     1       0.767   5.900  -2.577  0.00  0.00    +0.108 C 
BRANCH   5   6
ATOM      6  C   UNL     1       0.662   4.894  -1.459  0.00  0.00    +0.199 C 
ATOM      7  O   UNL     1       1.793   4.848  -0.657  0.00  0.00    -0.219 OA
ENDBRANCH   5   6
ENDBRANCH   1   5
BRANCH   1   8
ATOM      8  C   UNL     1       0.519   5.924  -4.931  0.00  0.00    +0.108 C 
BRANCH   8   9
ATOM      9  C   UNL     1       0.288   4.878  -5.989  0.00  0.00    +0.199 C 
ATOM     10  O   UNL     1       1.226   3.837  -5.917  0.00  0.00    -0.219 OA
ENDBRANCH   8   9
ENDBRANCH   1   8
TORSDOF 6
ENDMDL
MODEL 5
REMARK VINA RESULT:      -3.5      1.439      2.608
REMARK  Name = 
REMARK  6 active torsions:
REMARK  status: ('A' for Active; 'I' for Inactive)
REMARK    1  A    between atoms: C_2  and  C_3
REMARK    2  A    between atoms: C_3  and  N_4
REMARK    3  A    between atoms: N_4  and  C_5
REMARK    4  A    between atoms: N_4  and  C_8
REMARK    5  A    between atoms: C_5  and  C_6
REMARK    6  A    between atoms: C_8  and  C_9
REMARK                            x       y       z     vdW  Elec       q    Type
REMARK                         _______ _______ _______ _____ _____    ______ ____
ROOT
ATOM      1  N   UNL     1      -0.319   5.472  -4.605  0.00  0.00    -0.266 NA
ENDROOT
BRANCH   1   2
ATOM      2  C   UNL     1      -1.274   6.236  -5.369  0.00  0.00    +0.108 C 
BRANCH   2   4
ATOM      3  O   UNL     1      -1.023   5.369  -7.605  0.00  0.00    -0.219 OA
ATOM      4  C   UNL     1      -1.887   5.477  -6.506  0.00  0.00    +0.199 C 
ENDBRANCH   2   4
ENDBRANCH   1   2
BRANCH   1   5
ATOM      5  C   UNL     1      -0.531   5.559  -3.178  0.00  0.00    +0.108 C 
BRANCH   5   6
ATOM      6  C   UNL     1      -1.969   5.839  -2.821  0.00  0.00    +0.199 C 
ATOM      7  O   UNL     1      -2.660   4.710  -2.408  0.00  0.00    -0.219 OA
ENDBRANCH   5   6
ENDBRANCH   1   5
BRANCH   1   8
ATOM      8  C   UNL     1       1.021   5.927  -4.928  0.00  0.00    +0.108 C 
BRANCH   8   9
ATOM      9  C   UNL     1       1.964   4.800  -5.253  0.00  0.00    +0.199 C 
ATOM     10  O   UNL     1       1.338   3.781  -5.987  0.00  0.00    -0.219 OA
ENDBRANCH   8   9
ENDBRANCH   1   8
TORSDOF 6
ENDMDL
MODEL 6
REMARK VINA RESULT:      -3.5      1.263      3.199
REMARK  Name = 
REMARK  6 active torsions:
REMARK  status: ('A' for Active; 'I' for Inactive)
REMARK    1  A    between atoms: C_2  and  C_3
REMARK    2  A    between atoms: C_3  and  N_4
REMARK    3  A    between atoms: N_4  and  C_5
REMARK    4  A    between atoms: N_4  and  C_8
REMARK    5  A    between atoms: C_5  and  C_6
REMARK    6  A    between atoms: C_8  and  C_9
REMARK                            x       y       z     vdW  Elec       q    Type
REMARK                         _______ _______ _______ _____ _____    ______ ____
ROOT
ATOM      1  N   UNL     1      -0.526   6.673  -4.001  0.00  0.00    -0.266 NA
ENDROOT
BRANCH   1   2
ATOM      2  C   UNL     1      -1.618   6.763  -3.062  0.00  0.00    +0.108 C 
BRANCH   2   4
ATOM      3  O   UNL     1      -2.816   4.814  -2.302  0.00  0.00    -0.219 OA
ATOM      4  C   UNL     1      -2.718   5.778  -3.316  0.00  0.00    +0.199 C 
ENDBRANCH   2   4
ENDBRANCH   1   2
BRANCH   1   5
ATOM      5  C   UNL     1      -0.960   6.658  -5.379  0.00  0.00    +0.108 C 
BRANCH   5   6
ATOM      6  C   UNL     1      -0.421   5.477  -6.145  0.00  0.00    +0.199 C 
ATOM      7  O   UNL     1      -1.331   4.950  -7.049  0.00  0.00    -0.219 OA
ENDBRANCH   5   6
ENDBRANCH   1   5
BRANCH   1   8
ATOM      8  C   UNL     1       0.244   5.476  -3.718  0.00  0.00    +0.108 C 
BRANCH   8   9
ATOM      9  C   UNL     1       0.884   5.495  -2.356  0.00  0.00    +0.199 C 
ATOM     10  O   UNL     1       0.429   4.448  -1.541  0.00  0.00    -0.219 OA
ENDBRANCH   8   9
ENDBRANCH   1   8
TORSDOF 6
ENDMDL
MODEL 7
REMARK VINA RESULT:      -3.5      1.189      3.440
REMARK  Name = 
REMARK  6 active torsions:
REMARK  status: ('A' for Active; 'I' for Inactive)
REMARK    1  A    between atoms: C_2  and  C_3
REMARK    2  A    between atoms: C_3  and  N_4
REMARK    3  A    between atoms: N_4  and  C_5
REMARK    4  A    between atoms: N_4  and  C_8
REMARK    5  A    between atoms: C_5  and  C_6
REMARK    6  A    between atoms: C_8  and  C_9
REMARK                            x       y       z     vdW  Elec       q    Type
REMARK                         _______ _______ _______ _____ _____    ______ ____
ROOT
ATOM      1  N   UNL     1      -0.302   5.802  -4.131  0.00  0.00    -0.266 NA
ENDROOT
BRANCH   1   2
ATOM      2  C   UNL     1       0.779   6.110  -3.227  0.00  0.00    +0.108 C 
BRANCH   2   4
ATOM      3  O   UNL     1       0.407   4.464  -1.505  0.00  0.00    -0.219 OA
ATOM      4  C   UNL     1       0.463   5.836  -1.789  0.00  0.00    +0.199 C 
ENDBRANCH   2   4
ENDBRANCH   1   2
BRANCH   1   5
ATOM      5  C   UNL     1      -0.054   6.241  -5.485  0.00  0.00    +0.108 C 
BRANCH   5   6
ATOM      6  C   UNL     1      -0.174   5.123  -6.489  0.00  0.00    +0.199 C 
ATOM      7  O   UNL     1      -1.459   4.971  -6.988  0.00  0.00    -0.219 OA
ENDBRANCH   5   6
ENDBRANCH   1   5
BRANCH   1   8
ATOM      8  C   UNL     1      -1.523   6.412  -3.636  0.00  0.00    +0.108 C 
BRANCH   8   9
ATOM      9  C   UNL     1      -2.705   5.481  -3.678  0.00  0.00    +0.199 C 
ATOM     10  O   UNL     1      -2.823   4.722  -2.503  0.00  0.00    -0.219 OA
ENDBRANCH   8   9
ENDBRANCH   1   8
TORSDOF 6
ENDMDL
MODEL 8
REMARK VINA RESULT:      -3.4      8.129     10.380
REMARK  Name = 
REMARK  6 active torsions:
REMARK  status: ('A' for Active; 'I' for Inactive)
REMARK    1  A    between atoms: C_2  and  C_3
REMARK    2  A    between atoms: C_3  and  N_4
REMARK    3  A    between atoms: N_4  and  C_5
REMARK    4  A    between atoms: N_4  and  C_8
REMARK    5  A    between atoms: C_5  and  C_6
REMARK    6  A    between atoms: C_8  and  C_9
REMARK                            x       y       z     vdW  Elec       q    Type
REMARK                         _______ _______ _______ _____ _____    ______ ____
ROOT
ATOM      1  N   UNL     1       5.492   5.512 -11.723  0.00  0.00    -0.266 NA
ENDROOT
BRANCH   1   2
ATOM      2  C   UNL     1       4.268   5.684 -12.467  0.00  0.00    +0.108 C 
BRANCH   2   4
ATOM      3  O   UNL     1       2.976   4.824 -14.312  0.00  0.00    -0.219 OA
ATOM      4  C   UNL     1       4.270   5.005 -13.803  0.00  0.00    +0.199 C 
ENDBRANCH   2   4
ENDBRANCH   1   2
BRANCH   1   5
ATOM      5  C   UNL     1       5.300   5.559 -10.293  0.00  0.00    +0.108 C 
BRANCH   5   6
ATOM      6  C   UNL     1       3.913   5.137  -9.879  0.00  0.00    +0.199 C 
ATOM      7  O   UNL     1       3.903   4.027  -9.049  0.00  0.00    -0.219 OA
ENDBRANCH   5   6
ENDBRANCH   1   5
BRANCH   1   8
ATOM      8  C   UNL     1       6.438   6.538 -12.123  0.00  0.00    +0.108 C 
BRANCH   8   9
ATOM      9  C   UNL     1       7.722   5.974 -12.670  0.00  0.00    +0.199 C 
ATOM     10  O   UNL     1       7.712   4.571 -12.706  0.00  0.00    -0.219 OA
ENDBRANCH   8   9
ENDBRANCH   1   8
TORSDOF 6
ENDMDL
MODEL 9
REMARK VINA RESULT:      -3.4      1.009      2.857
REMARK  Name = 
REMARK  6 active torsions:
REMARK  status: ('A' for Active; 'I' for Inactive)
REMARK    1  A    between atoms: C_2  and  C_3
REMARK    2  A    between atoms: C_3  and  N_4
REMARK    3  A    between atoms: N_4  and  C_5
REMARK    4  A    between atoms: N_4  and  C_8
REMARK    5  A    between atoms: C_5  and  C_6
REMARK    6  A    between atoms: C_8  and  C_9
REMARK                            x       y       z     vdW  Elec       q    Type
REMARK                         _______ _______ _______ _____ _____    ______ ____
ROOT
ATOM      1  N   UNL     1       0.213   6.225  -3.578  0.00  0.00    -0.266 NA
ENDROOT
BRANCH   1   2
ATOM      2  C   UNL     1       0.070   5.367  -4.728  0.00  0.00    +0.108 C 
BRANCH   2   4
ATOM      3  O   UNL     1       1.266   3.717  -6.017  0.00  0.00    -0.219 OA
ATOM      4  C   UNL     1       1.374   4.933  -5.326  0.00  0.00    +0.199 C 
ENDBRANCH   2   4
ENDBRANCH   1   2
BRANCH   1   5
ATOM      5  C   UNL     1       1.310   5.846  -2.717  0.00  0.00    +0.108 C 
BRANCH   5   6
ATOM      6  C   UNL     1       0.864   5.017  -1.540  0.00  0.00    +0.199 C 
ATOM      7  O   UNL     1       1.612   5.246  -0.395  0.00  0.00    -0.219 OA
ENDBRANCH   5   6
ENDBRANCH   1   5
BRANCH   1   8
ATOM      8  C   UNL     1      -1.027   6.216  -2.822  0.00  0.00    +0.108 C 
BRANCH   8   9
ATOM      9  C   UNL     1      -2.157   5.541  -3.554  0.00  0.00    +0.199 C 
ATOM     10  O   UNL     1      -2.827   4.608  -2.748  0.00  0.00    -0.219 OA
ENDBRANCH   8   9
ENDBRANCH   1   8
TORSDOF 6
ENDMDL
