MODEL 1
REMARK VINA RESULT:      -5.3      0.000      0.000
REMARK  Name = 
REMARK  1 active torsions:
REMARK  status: ('A' for Active; 'I' for Inactive)
REMARK    1  A    between atoms: C_2  and  C_4
REMARK                            x       y       z     vdW  Elec       q    Type
REMARK                         _______ _______ _______ _____ _____    ______ ____
ROOT
ATOM      1  C   UNL     1       7.483   6.270 -11.136  0.00  0.00    +0.095 A 
ATOM      2  C   UNL     1       7.234   5.747  -9.871  0.00  0.00    +0.200 A 
ATOM      3  O   UNL     1       8.139   4.809  -9.400  0.00  0.00    -0.286 OA
ATOM      4  C   UNL     1       6.044   5.970  -9.200  0.00  0.00    +0.042 A 
ATOM      5  C   UNL     1       4.943   6.388  -9.940  0.00  0.00    +0.003 A 
ATOM      6  C   UNL     1       5.233   7.176 -11.045  0.00  0.00    +0.000 A 
ATOM      7  C   UNL     1       6.498   7.135 -11.601  0.00  0.00    +0.008 A 
ENDROOT
BRANCH   1   9
ATOM      8  N   UNL     1       7.723   4.811 -13.142  0.00  0.00    -0.084 NA
ATOM      9  C   UNL     1       8.341   5.561 -12.094  0.00  0.00    +0.287 C 
ATOM     10  O   UNL     1       9.460   6.058 -12.332  0.00  0.00    -0.267 OA
ENDBRANCH   1   9
TORSDOF 1
ENDMDL
MODEL 2
REMARK VINA RESULT:      -5.1      2.393      3.129
REMARK  Name = 
REMARK  1 active torsions:
REMARK  status: ('A' for Active; 'I' for Inactive)
REMARK    1  A    between atoms: C_2  and  C_4
REMARK                            x       y       z     vdW  Elec       q    Type
REMARK                         _______ _______ _______ _____ _____    ______ ____
ROOT
ATOM      1  C   UNL     1       6.476   6.619 -12.932  0.00  0.00    +0.095 A 
ATOM      2  C   UNL     1       7.541   5.812 -12.541  0.00  0.00    +0.200 A 
ATOM      3  O   UNL     1       7.712   4.629 -13.243  0.00  0.00    -0.286 OA
ATOM      4  C   UNL     1       8.263   6.050 -11.384  0.00  0.00    +0.042 A 
ATOM      5  C   UNL     1       7.687   6.856 -10.408  0.00  0.00    +0.003 A 
ATOM      6  C   UNL     1       6.852   7.859 -10.880  0.00  0.00    +0.000 A 
ATOM      7  C   UNL     1       6.292   7.745 -12.139  0.00  0.00    +0.008 A 
ENDROOT
BRANCH   1   9
ATOM      8  N   UNL     1       4.217   5.570 -12.965  0.00  0.00    -0.084 NA
ATOM      9  C   UNL     1       5.345   6.066 -13.688  0.00  0.00    +0.287 C 
ATOM     10  O   UNL     1       5.132   6.540 -14.822  0.00  0.00    -0.267 OA
ENDBRANCH   1   9
TORSDOF 1
ENDMDL
MODEL 3
REMARK VINA RESULT:      -4.9      2.840      3.901
REMARK  Name = 
REMARK  1 active torsions:
REMARK  status: ('A' for Active; 'I' for Inactive)
REMARK    1  A    between atoms: C_2  and  C_4
REMARK                            x       y       z     vdW  Elec       q    Type
REMARK                         _______ _______ _______ _____ _____    ______ ____
ROOT
ATOM      1  C   UNL     1       5.617   6.176 -11.644  0.00  0.00    +0.095 A 
ATOM      2  C   UNL     1       6.284   5.508 -12.666  0.00  0.00    +0.200 A 
ATOM      3  O   UNL     1       5.511   4.697 -13.483  0.00  0.00    -0.286 OA
ATOM      4  C   UNL     1       7.665   5.468 -12.745  0.00  0.00    +0.042 A 
ATOM      5  C   UNL     1       8.394   5.760 -11.597  0.00  0.00    +0.003 A 
ATOM      6  C   UNL     1       7.811   6.680 -10.738  0.00  0.00    +0.000 A 
ATOM      7  C   UNL     1       6.448   6.901 -10.797  0.00  0.00    +0.008 A 
ENDROOT
BRANCH   1   9
ATOM      8  N   UNL     1       4.265   4.925  -9.965  0.00  0.00    -0.084 NA
ATOM      9  C   UNL     1       4.312   5.708 -11.159  0.00  0.00    +0.287 C 
ATOM     10  O   UNL     1       3.322   6.425 -11.410  0.00  0.00    -0.267 OA
ENDBRANCH   1   9
TORSDOF 1
ENDMDL
MODEL 4
REMARK VINA RESULT:      -4.9     11.530     12.506
REMARK  Name = 
REMARK  1 active torsions:
REMARK  status: ('A' for Active; 'I' for Inactive)
REMARK    1  A    between atoms: C_2  and  C_4
REMARK                            x       y       z     vdW  Elec       q    Type
REMARK                         _______ _______ _______ _____ _____    ______ ____
ROOT
ATOM      1  C   UNL     1      -2.256   6.947  -2.648  0.00  0.00    +0.095 A 
ATOM      2  C   UNL     1      -2.591   5.770  -3.311  0.00  0.00    +0.200 A 
ATOM      3  O   UNL     1      -2.723   4.634  -2.529  0.00  0.00    -0.286 OA
ATOM      4  C   UNL     1      -2.584   5.672  -4.692  0.00  0.00    +0.042 A 
ATOM      5  C   UNL     1      -1.868   6.623  -5.411  0.00  0.00    +0.003 A 
ATOM      6  C   UNL     1      -1.816   7.887  -4.842  0.00  0.00    +0.000 A 
ATOM      7  C   UNL     1      -2.045   8.035  -3.487  0.00  0.00    +0.008 A 
ENDROOT
BRANCH   1   9
ATOM      8  N   UNL     1      -0.252   6.529  -1.228  0.00  0.00    -0.084 NA
ATOM      9  C   UNL     1      -1.625   6.914  -1.323  0.00  0.00    +0.287 C 
ATOM     10  O   UNL     1      -2.051   7.719  -0.470  0.00  0.00    -0.267 OA
ENDBRANCH   1   9
TORSDOF 1
ENDMDL
MODEL 5
REMARK VINA RESULT:      -4.8      6.650      7.966
REMARK  Name = 
REMARK  1 active torsions:
REMARK  status: ('A' for Active; 'I' for Inactive)
REMARK    1  A    between atoms: C_2  and  C_4
REMARK                            x       y       z     vdW  Elec       q    Type
REMARK                         _______ _______ _______ _____ _____    ______ ____
ROOT
ATOM      1  C   UNL     1       1.216   6.372  -6.351  0.00  0.00    +0.095 A 
ATOM      2  C   UNL     1       0.576   5.439  -7.161  0.00  0.00    +0.200 A 
ATOM      3  O   UNL     1       1.278   4.998  -8.272  0.00  0.00    -0.286 OA
ATOM      4  C   UNL     1      -0.763   5.122  -7.008  0.00  0.00    +0.042 A 
ATOM      5  C   UNL     1      -1.569   6.012  -6.307  0.00  0.00    +0.003 A 
ATOM      6  C   UNL     1      -0.939   6.713  -5.289  0.00  0.00    +0.000 A 
ATOM      7  C   UNL     1       0.436   6.851  -5.305  0.00  0.00    +0.008 A 
ENDROOT
BRANCH   1   9
ATOM      8  N   UNL     1       2.043   8.194  -7.837  0.00  0.00    -0.084 NA
ATOM      9  C   UNL     1       2.326   7.185  -6.865  0.00  0.00    +0.287 C 
ATOM     10  O   UNL     1       3.285   7.390  -6.094  0.00  0.00    -0.267 OA
ENDBRANCH   1   9
TORSDOF 1
ENDMDL
MODEL 6
REMARK VINA RESULT:      -4.8      2.435      3.449
REMARK  Name = 
REMARK  1 active torsions:
REMARK  status: ('A' for Active; 'I' for Inactive)
REMARK    1  A    between atoms: C_2  and  C_4
REMARK                            x       y       z     vdW  Elec       q    Type
REMARK                         _______ _______ _______ _____ _____    ______ ____
ROOT
ATOM      1  C   UNL     1       5.202   6.381 -11.193  0.00  0.00    +0.095 A 
ATOM      2  C   UNL     1       6.379   7.095 -11.392  0.00  0.00    +0.200 A 
ATOM      3  O   UNL     1       6.549   7.674 -12.640  0.00  0.00    -0.286 OA
ATOM      4  C   UNL     1       7.428   7.058 -10.489  0.00  0.00    +0.042 A 
ATOM      5  C   UNL     1       7.470   6.008  -9.578  0.00  0.00    +0.003 A 
ATOM      6  C   UNL     1       6.236   5.520  -9.172  0.00  0.00    +0.000 A 
ATOM      7  C   UNL     1       5.121   5.743  -9.960  0.00  0.00    +0.008 A 
ENDROOT
BRANCH   1   9
ATOM      8  N   UNL     1       4.974   4.808 -13.112  0.00  0.00    -0.084 NA
ATOM      9  C   UNL     1       4.425   5.870 -12.330  0.00  0.00    +0.287 C 
ATOM     10  O   UNL     1       3.182   5.930 -12.242  0.00  0.00    -0.267 OA
ENDBRANCH   1   9
TORSDOF 1
ENDMDL
MODEL 7
REMARK VINA RESULT:      -4.8      7.539      8.873
REMARK  Name = 
REMARK  1 active torsions:
REMARK  status: ('A' for Active; 'I' for Inactive)
REMARK    1  A    between atoms: C_2  and  C_4
REMARK                            x       y       z     vdW  Elec       q    Type
REMARK                         _______ _______ _______ _____ _____    ______ ____
ROOT
ATOM      1  C   UNL     1       0.023   5.797  -6.617  0.00  0.00    +0.095 A 
ATOM      2  C   UNL     1      -0.020   6.677  -5.539  0.00  0.00    +0.200 A 
ATOM      3  O   UNL     1       1.198   7.038  -4.985  0.00  0.00    -0.286 OA
ATOM      4  C   UNL     1      -1.204   7.011  -4.905  0.00  0.00    +0.042 A 
ATOM      5  C   UNL     1      -2.301   6.175  -5.085  0.00  0.00    +0.003 A 
ATOM      6  C   UNL     1      -2.371   5.541  -6.316  0.00  0.00    +0.000 A 
ATOM      7  C   UNL     1      -1.225   5.394  -7.076  0.00  0.00    +0.008 A 
ENDROOT
BRANCH   1   9
ATOM      8  N   UNL     1       1.378   3.789  -6.030  0.00  0.00    -0.084 NA
ATOM      9  C   UNL     1       1.196   4.945  -6.851  0.00  0.00    +0.287 C 
ATOM     10  O   UNL     1       1.636   4.890  -8.017  0.00  0.00    -0.267 OA
ENDBRANCH   1   9
TORSDOF 1
ENDMDL
MODEL 8
REMARK VINA RESULT:      -4.8      9.838     11.136
REMARK  Name = 
REMARK  1 active torsions:
REMARK  status: ('A' for Active; 'I' for Inactive)
REMARK    1  A    between atoms: C_2  and  C_4
REMARK                            x       y       z     vdW  Elec       q    Type
REMARK                         _______ _______ _______ _____ _____    ______ ____
ROOT
ATOM      1  C   UNL     1      -1.362   5.989  -4.508  0.00  0.00    +0.095 A 
ATOM      2  C   UNL     1      -1.439   5.698  -5.866  0.00  0.00    +0.200 A 
ATOM      3  O   UNL     1      -2.703   5.725  -6.435  0.00  0.00    -0.286 OA
ATOM      4  C   UNL     1      -0.362   5.195  -6.577  0.00  0.00    +0.042 A 
ATOM      5  C   UNL     1       0.678   4.612  -5.861  0.00  0.00    +0.003 A 
ATOM      6  C   UNL     1       0.914   5.152  -4.605  0.00  0.00    +0.000 A 
ATOM      7  C   UNL     1      -0.088   5.858  -3.966  0.00  0.00    +0.008 A 
ENDROOT
BRANCH   1   9
ATOM      8  N   UNL     1      -2.610   4.761  -2.735  0.00  0.00    -0.084 NA
ATOM      9  C   UNL     1      -2.540   5.865  -3.640  0.00  0.00    +0.287 C 
ATOM     10  O   UNL     1      -3.106   6.922  -3.294  0.00  0.00    -0.267 OA
ENDBRANCH   1   9
TORSDOF 1
ENDMDL
MODEL 9
REMARK VINA RESULT:      -4.6      8.987     10.331
REMARK  Name = 
REMARK  1 active torsions:
REMARK  status: ('A' for Active; 'I' for Inactive)
REMARK    1  A    between atoms: C_2  and  C_4
REMARK                            x       y       z     vdW  Elec       q    Type
REMARK                         _______ _______ _______ _____ _____    ______ ____
ROOT
ATOM      1  C   UNL     1      -0.185   5.706  -4.202  0.00  0.00    +0.095 A 
ATOM      2  C   UNL     1      -0.766   5.364  -2.984  0.00  0.00    +0.200 A 
ATOM      3  O   UNL     1       0.064   4.763  -2.049  0.00  0.00    -0.286 OA
ATOM      4  C   UNL     1      -2.134   5.409  -2.778  0.00  0.00    +0.042 A 
ATOM      5  C   UNL     1      -2.963   5.420  -3.895  0.00  0.00    +0.003 A 
ATOM      6  C   UNL     1      -2.445   6.052  -5.016  0.00  0.00    +0.000 A 
ATOM      7  C   UNL     1      -1.078   6.218  -5.136  0.00  0.00    +0.008 A 
ENDROOT
BRANCH   1   9
ATOM      8  N   UNL     1       1.001   4.171  -5.766  0.00  0.00    -0.084 NA
ATOM      9  C   UNL     1       1.057   5.067  -4.654  0.00  0.00    +0.287 C 
ATOM     10  O   UNL     1       2.117   5.704  -4.488  0.00  0.00    -0.267 OA
ENDBRANCH   1   9
TORSDOF 1
ENDMDL
