MODEL 1
REMARK VINA RESULT:      -5.6      0.000      0.000
REMARK  Name = 
REMARK  2 active torsions:
REMARK  status: ('A' for Active; 'I' for Inactive)
REMARK    1  A    between atoms: C_2  and  C_4
REMARK    2  A    between atoms: C_4  and  C_5
REMARK                            x       y       z     vdW  Elec       q    Type
REMARK                         _______ _______ _______ _____ _____    ______ ____
ROOT
ATOM      1  C   UNL     1      -2.012   6.724  -5.178  0.00  0.00    -0.021 A 
ATOM      2  C   UNL     1      -0.651   6.968  -4.977  0.00  0.00    -0.001 A 
ATOM      3  C   UNL     1       0.292   6.567  -5.881  0.00  0.00    +0.042 A 
ATOM      4  C   UNL     1      -0.041   5.705  -6.890  0.00  0.00    +0.196 A 
ATOM      5  O   UNL     1       0.676   5.714  -8.092  0.00  0.00    -0.287 OA
ATOM      6  C   UNL     1      -1.334   5.241  -6.959  0.00  0.00    +0.042 A 
ATOM      7  C   UNL     1      -2.243   5.636  -6.022  0.00  0.00    -0.001 A 
ENDROOT
BRANCH   1   8
ATOM      8  C   UNL     1      -2.832   6.712  -3.925  0.00  0.00    +0.045 C 
BRANCH   8  10
ATOM      9  C   UNL     1      -2.370   6.949  -1.624  0.00  0.00    +0.021 C 
ATOM     10  C   UNL     1      -1.767   6.056  -2.861  0.00  0.00    +0.096 C 
ATOM     11  N   UNL     1      -2.733   4.854  -2.547  0.00  0.00    -0.133 NA
ENDBRANCH   8  10
ENDBRANCH   1   8
TORSDOF 2
ENDMDL
MODEL 2
REMARK VINA RESULT:      -5.5      8.142     10.322
REMARK  Name = 
REMARK  2 active torsions:
REMARK  status: ('A' for Active; 'I' for Inactive)
REMARK    1  A    between atoms: C_2  and  C_4
REMARK    2  A    between atoms: C_4  and  C_5
REMARK                            x       y       z     vdW  Elec       q    Type
REMARK                         _______ _______ _______ _____ _____    ______ ____
ROOT
ATOM      1  C   UNL     1       6.545   6.804 -10.514  0.00  0.00    -0.021 A 
ATOM      2  C   UNL     1       5.208   7.066 -10.828  0.00  0.00    -0.001 A 
ATOM      3  C   UNL     1       4.192   6.729  -9.978  0.00  0.00    +0.042 A 
ATOM      4  C   UNL     1       4.430   5.912  -8.907  0.00  0.00    +0.196 A 
ATOM      5  O   UNL     1       3.627   5.994  -7.763  0.00  0.00    -0.287 OA
ATOM      6  C   UNL     1       5.703   5.425  -8.720  0.00  0.00    +0.042 A 
ATOM      7  C   UNL     1       6.687   5.755  -9.604  0.00  0.00    -0.001 A 
ENDROOT
BRANCH   1   8
ATOM      8  C   UNL     1       7.454   6.714 -11.700  0.00  0.00    +0.045 C 
BRANCH   8  10
ATOM      9  C   UNL     1       7.054   6.511 -14.017  0.00  0.00    +0.021 C 
ATOM     10  C   UNL     1       6.605   5.694 -12.668  0.00  0.00    +0.096 C 
ATOM     11  N   UNL     1       7.821   4.703 -12.787  0.00  0.00    -0.133 NA
ENDBRANCH   8  10
ENDBRANCH   1   8
TORSDOF 2
ENDMDL
MODEL 3
REMARK VINA RESULT:      -5.2      3.232      4.736
REMARK  Name = 
REMARK  2 active torsions:
REMARK  status: ('A' for Active; 'I' for Inactive)
REMARK    1  A    between atoms: C_2  and  C_4
REMARK    2  A    between atoms: C_4  and  C_5
REMARK                            x       y       z     vdW  Elec       q    Type
REMARK                         _______ _______ _______ _____ _____    ______ ____
ROOT
ATOM      1  C   UNL     1       0.090   5.778  -6.592  0.00  0.00    -0.021 A 
ATOM      2  C   UNL     1       0.059   6.609  -5.469  0.00  0.00    -0.001 A 
ATOM      3  C   UNL     1      -1.013   6.632  -4.622  0.00  0.00    +0.042 A 
ATOM      4  C   UNL     1      -2.186   6.025  -4.977  0.00  0.00    +0.196 A 
ATOM      5  O   UNL     1      -3.061   5.549  -3.993  0.00  0.00    -0.287 OA
ATOM      6  C   UNL     1      -2.265   5.412  -6.206  0.00  0.00    +0.042 A 
ATOM      7  C   UNL     1      -1.187   5.434  -7.040  0.00  0.00    -0.001 A 
ENDROOT
BRANCH   1   8
ATOM      8  C   UNL     1       1.017   6.234  -7.676  0.00  0.00    +0.045 C 
BRANCH   8  10
ATOM      9  C   UNL     1       3.367   6.298  -7.468  0.00  0.00    +0.021 C 
ATOM     10  C   UNL     1       2.103   7.110  -6.810  0.00  0.00    +0.096 C 
ATOM     11  N   UNL     1       2.167   8.230  -7.913  0.00  0.00    -0.133 NA
ENDBRANCH   8  10
ENDBRANCH   1   8
TORSDOF 2
ENDMDL
MODEL 4
REMARK VINA RESULT:      -5.1      6.340      7.998
REMARK  Name = 
REMARK  2 active torsions:
REMARK  status: ('A' for Active; 'I' for Inactive)
REMARK    1  A    between atoms: C_2  and  C_4
REMARK    2  A    between atoms: C_4  and  C_5
REMARK                            x       y       z     vdW  Elec       q    Type
REMARK                         _______ _______ _______ _____ _____    ______ ____
ROOT
ATOM      1  C   UNL     1       4.620   6.001  -9.391  0.00  0.00    -0.021 A 
ATOM      2  C   UNL     1       4.678   7.064 -10.297  0.00  0.00    -0.001 A 
ATOM      3  C   UNL     1       5.801   7.320 -11.033  0.00  0.00    +0.042 A 
ATOM      4  C   UNL     1       6.980   6.695 -10.733  0.00  0.00    +0.196 A 
ATOM      5  O   UNL     1       7.943   6.487 -11.727  0.00  0.00    -0.287 OA
ATOM      6  C   UNL     1       7.012   5.825  -9.668  0.00  0.00    +0.042 A 
ATOM      7  C   UNL     1       5.882   5.616  -8.934  0.00  0.00    -0.001 A 
ENDROOT
BRANCH   1   8
ATOM      8  C   UNL     1       3.599   6.164  -8.308  0.00  0.00    +0.045 C 
BRANCH   8  10
ATOM      9  C   UNL     1       1.257   6.017  -8.552  0.00  0.00    +0.021 C 
ATOM     10  C   UNL     1       2.438   7.015  -9.098  0.00  0.00    +0.096 C 
ATOM     11  N   UNL     1       2.253   8.000  -7.886  0.00  0.00    -0.133 NA
ENDBRANCH   8  10
ENDBRANCH   1   8
TORSDOF 2
ENDMDL
MODEL 5
REMARK VINA RESULT:      -5.0      6.682      8.236
REMARK  Name = 
REMARK  2 active torsions:
REMARK  status: ('A' for Active; 'I' for Inactive)
REMARK    1  A    between atoms: C_2  and  C_4
REMARK    2  A    between atoms: C_4  and  C_5
REMARK                            x       y       z     vdW  Elec       q    Type
REMARK                         _______ _______ _______ _____ _____    ______ ____
ROOT
ATOM      1  C   UNL     1       4.853   6.138  -9.812  0.00  0.00    -0.021 A 
ATOM      2  C   UNL     1       5.154   7.186 -10.688  0.00  0.00    -0.001 A 
ATOM      3  C   UNL     1       6.403   7.339 -11.223  0.00  0.00    +0.042 A 
ATOM      4  C   UNL     1       7.456   6.617 -10.734  0.00  0.00    +0.196 A 
ATOM      5  O   UNL     1       8.551   6.319 -11.554  0.00  0.00    -0.287 OA
ATOM      6  C   UNL     1       7.234   5.755  -9.684  0.00  0.00    +0.042 A 
ATOM      7  C   UNL     1       5.983   5.650  -9.153  0.00  0.00    -0.001 A 
ENDROOT
BRANCH   1   8
ATOM      8  C   UNL     1       3.683   6.397  -8.915  0.00  0.00    +0.045 C 
BRANCH   8  10
ATOM      9  C   UNL     1       3.399   6.662  -6.588  0.00  0.00    +0.021 C 
ATOM     10  C   UNL     1       4.133   5.571  -7.569  0.00  0.00    +0.096 C 
ATOM     11  N   UNL     1       2.849   4.665  -7.626  0.00  0.00    -0.133 NA
ENDBRANCH   8  10
ENDBRANCH   1   8
TORSDOF 2
ENDMDL
MODEL 6
REMARK VINA RESULT:      -4.9      8.314     10.019
REMARK  Name = 
REMARK  2 active torsions:
REMARK  status: ('A' for Active; 'I' for Inactive)
REMARK    1  A    between atoms: C_2  and  C_4
REMARK    2  A    between atoms: C_4  and  C_5
REMARK                            x       y       z     vdW  Elec       q    Type
REMARK                         _______ _______ _______ _____ _____    ______ ____
ROOT
ATOM      1  C   UNL     1       6.108   7.056 -10.893  0.00  0.00    -0.021 A 
ATOM      2  C   UNL     1       6.827   6.106 -10.162  0.00  0.00    -0.001 A 
ATOM      3  C   UNL     1       8.008   5.593 -10.618  0.00  0.00    +0.042 A 
ATOM      4  C   UNL     1       8.404   5.812 -11.909  0.00  0.00    +0.196 A 
ATOM      5  O   UNL     1       9.763   5.809 -12.242  0.00  0.00    -0.287 OA
ATOM      6  C   UNL     1       7.579   6.538 -12.737  0.00  0.00    +0.042 A 
ATOM      7  C   UNL     1       6.391   7.009 -12.259  0.00  0.00    -0.001 A 
ENDROOT
BRANCH   1   8
ATOM      8  C   UNL     1       4.647   7.110 -10.571  0.00  0.00    +0.045 C 
BRANCH   8  10
ATOM      9  C   UNL     1       3.293   5.533  -9.454  0.00  0.00    +0.021 C 
ATOM     10  C   UNL     1       4.216   5.543 -10.810  0.00  0.00    +0.096 C 
ATOM     11  N   UNL     1       2.995   5.956 -11.713  0.00  0.00    -0.133 NA
ENDBRANCH   8  10
ENDBRANCH   1   8
TORSDOF 2
ENDMDL
MODEL 7
REMARK VINA RESULT:      -4.7      3.254      5.094
REMARK  Name = 
REMARK  2 active torsions:
REMARK  status: ('A' for Active; 'I' for Inactive)
REMARK    1  A    between atoms: C_2  and  C_4
REMARK    2  A    between atoms: C_4  and  C_5
REMARK                            x       y       z     vdW  Elec       q    Type
REMARK                         _______ _______ _______ _____ _____    ______ ____
ROOT
ATOM      1  C   UNL     1       0.380   5.694  -6.693  0.00  0.00    -0.021 A 
ATOM      2  C   UNL     1      -0.890   5.152  -6.908  0.00  0.00    -0.001 A 
ATOM      3  C   UNL     1      -2.015   5.728  -6.387  0.00  0.00    +0.042 A 
ATOM      4  C   UNL     1      -1.912   6.711  -5.442  0.00  0.00    +0.196 A 
ATOM      5  O   UNL     1      -2.923   7.669  -5.306  0.00  0.00    -0.287 OA
ATOM      6  C   UNL     1      -0.659   7.089  -5.018  0.00  0.00    +0.042 A 
ATOM      7  C   UNL     1       0.442   6.472  -5.536  0.00  0.00    -0.001 A 
ENDROOT
BRANCH   1   8
ATOM      8  C   UNL     1       1.504   4.715  -6.835  0.00  0.00    +0.045 C 
BRANCH   8  10
ATOM      9  C   UNL     1       3.522   5.622  -7.654  0.00  0.00    +0.021 C 
ATOM     10  C   UNL     1       2.099   5.133  -8.307  0.00  0.00    +0.096 C 
ATOM     11  N   UNL     1       2.645   3.680  -8.563  0.00  0.00    -0.133 NA
ENDBRANCH   8  10
ENDBRANCH   1   8
TORSDOF 2
ENDMDL
MODEL 8
REMARK VINA RESULT:      -4.7      6.013      7.879
REMARK  Name = 
REMARK  2 active torsions:
REMARK  status: ('A' for Active; 'I' for Inactive)
REMARK    1  A    between atoms: C_2  and  C_4
REMARK    2  A    between atoms: C_4  and  C_5
REMARK                            x       y       z     vdW  Elec       q    Type
REMARK                         _______ _______ _______ _____ _____    ______ ____
ROOT
ATOM      1  C   UNL     1       4.789   4.904  -8.465  0.00  0.00    -0.021 A 
ATOM      2  C   UNL     1       4.348   5.759  -7.452  0.00  0.00    -0.001 A 
ATOM      3  C   UNL     1       3.212   5.501  -6.737  0.00  0.00    +0.042 A 
ATOM      4  C   UNL     1       2.343   4.528  -7.150  0.00  0.00    +0.196 A 
ATOM      5  O   UNL     1       1.528   3.870  -6.222  0.00  0.00    -0.287 OA
ATOM      6  C   UNL     1       2.629   3.836  -8.304  0.00  0.00    +0.042 A 
ATOM      7  C   UNL     1       3.755   4.140  -9.011  0.00  0.00    -0.001 A 
ENDROOT
BRANCH   1   8
ATOM      8  C   UNL     1       5.675   5.553  -9.483  0.00  0.00    +0.045 C 
BRANCH   8  10
ATOM      9  C   UNL     1       5.382   7.500 -10.782  0.00  0.00    +0.021 C 
ATOM     10  C   UNL     1       4.564   6.095 -10.564  0.00  0.00    +0.096 C 
ATOM     11  N   UNL     1       5.307   5.402 -11.764  0.00  0.00    -0.133 NA
ENDBRANCH   8  10
ENDBRANCH   1   8
TORSDOF 2
ENDMDL
MODEL 9
REMARK VINA RESULT:      -4.6      7.351      9.548
REMARK  Name = 
REMARK  2 active torsions:
REMARK  status: ('A' for Active; 'I' for Inactive)
REMARK    1  A    between atoms: C_2  and  C_4
REMARK    2  A    between atoms: C_4  and  C_5
REMARK                            x       y       z     vdW  Elec       q    Type
REMARK                         _______ _______ _______ _____ _____    ______ ____
ROOT
ATOM      1  C   UNL     1       5.363   5.799 -10.219  0.00  0.00    -0.021 A 
ATOM      2  C   UNL     1       4.080   5.280 -10.418  0.00  0.00    -0.001 A 
ATOM      3  C   UNL     1       3.247   5.004  -9.370  0.00  0.00    +0.042 A 
ATOM      4  C   UNL     1       3.726   5.000  -8.089  0.00  0.00    +0.196 A 
ATOM      5  O   UNL     1       2.874   5.278  -7.014  0.00  0.00    -0.287 OA
ATOM      6  C   UNL     1       5.062   5.258  -7.885  0.00  0.00    +0.042 A 
ATOM      7  C   UNL     1       5.873   5.498  -8.955  0.00  0.00    -0.001 A 
ENDROOT
BRANCH   1   8
ATOM      8  C   UNL     1       6.317   5.539 -11.343  0.00  0.00    +0.045 C 
BRANCH   8  10
ATOM      9  C   UNL     1       8.377   6.166 -12.308  0.00  0.00    +0.021 C 
ATOM     10  C   UNL     1       7.560   6.532 -10.934  0.00  0.00    +0.096 C 
ATOM     11  N   UNL     1       6.864   7.774 -11.604  0.00  0.00    -0.133 NA
ENDBRANCH   8  10
ENDBRANCH   1   8
TORSDOF 2
ENDMDL
