MODEL 1
REMARK VINA RESULT:      -9.6      0.000      0.000
REMARK  Name = 
REMARK  3 active torsions:
REMARK  status: ('A' for Active; 'I' for Inactive)
REMARK    1  A    between atoms: C_6  and  N_7
REMARK    2  A    between atoms: C_9  and  C_10
REMARK    3  A    between atoms: C_10  and  C_11
REMARK                            x       y       z     vdW  Elec       q    Type
REMARK                         _______ _______ _______ _____ _____    ______ ____
ROOT
ATOM      1  N   UNL     1       2.159   5.258  -7.792  0.00  0.00    -0.219 N 
ATOM      2  C   UNL     1       0.972   5.545  -8.325  0.00  0.00    +0.276 A 
ATOM      3  O   UNL     1      -0.102   5.447  -7.656  0.00  0.00    -0.266 OA
ATOM      4  C   UNL     1       0.940   6.000  -9.632  0.00  0.00    +0.059 A 
ATOM      5  C   UNL     1       2.140   6.072 -10.329  0.00  0.00    +0.020 A 
ATOM      6  C   UNL     1       2.126   6.557 -11.626  0.00  0.00    +0.001 A 
ATOM      7  C   UNL     1       0.892   6.639 -12.257  0.00  0.00    +0.000 A 
ATOM      8  C   UNL     1      -0.265   6.836 -11.522  0.00  0.00    +0.000 A 
ATOM      9  C   UNL     1       3.318   6.125  -9.604  0.00  0.00    +0.083 A 
ATOM     10  C   UNL     1      -0.238   6.463 -10.198  0.00  0.00    +0.005 A 
ATOM     11  N   UNL     1       3.299   5.650  -8.354  0.00  0.00    -0.171 NA
ENDROOT
BRANCH   1  16
ATOM     12  C   UNL     1       3.259   7.513  -3.383  0.00  0.00    +0.090 C 
ATOM     13  N   UNL     1       3.442   7.019  -4.052  0.00  0.00    -0.271 NA
ATOM     14  C   UNL     1       3.738   7.258  -5.428  0.00  0.00    +0.074 C 
ATOM     15  C   UNL     1       2.570   6.960  -6.291  0.00  0.00    +0.042 C 
ATOM     16  C   UNL     1       2.256   5.353  -6.224  0.00  0.00    +0.110 C 
ATOM     17  C   UNL     1       3.843   4.937  -6.236  0.00  0.00    +0.026 C 
ATOM     18  C   UNL     1       4.247   4.810  -4.796  0.00  0.00    +0.019 C 
ATOM     19  C   UNL     1       3.399   5.594  -3.847  0.00  0.00    +0.072 C 
ENDBRANCH   1  16
BRANCH   9  20
ATOM     20  C   UNL     1       4.512   6.870 -10.073  0.00  0.00    +0.074 C 
BRANCH  20  21
ATOM     21  C   UNL     1       5.565   5.866 -10.415  0.00  0.00    -0.016 A 
ATOM     22  C   UNL     1       5.683   5.390 -11.714  0.00  0.00    -0.003 A 
ATOM     23  C   UNL     1       6.943   5.199 -12.267  0.00  0.00    +0.011 A 
ATOM     24  C   UNL     1       8.103   5.429 -11.543  0.00  0.00    +0.058 A 
ATOM     25 CL   UNL     1       9.553   6.058 -12.307  0.00  0.00    -0.082 Cl
ATOM     26  C   UNL     1       7.941   5.436 -10.163  0.00  0.00    +0.011 A 
ATOM     27  C   UNL     1       6.703   5.769  -9.628  0.00  0.00    -0.003 A 
ENDBRANCH  20  21
ENDBRANCH   9  20
TORSDOF 3
ENDMDL
MODEL 2
REMARK VINA RESULT:      -9.2      3.538      6.251
REMARK  Name = 
REMARK  3 active torsions:
REMARK  status: ('A' for Active; 'I' for Inactive)
REMARK    1  A    between atoms: C_6  and  N_7
REMARK    2  A    between atoms: C_9  and  C_10
REMARK    3  A    between atoms: C_10  and  C_11
REMARK                            x       y       z     vdW  Elec       q    Type
REMARK                         _______ _______ _______ _____ _____    ______ ____
ROOT
ATOM      1  N   UNL     1       1.409   5.930  -6.835  0.00  0.00    -0.219 N 
ATOM      2  C   UNL     1       1.777   6.300  -8.060  0.00  0.00    +0.276 A 
ATOM      3  O   UNL     1       0.964   6.850  -8.865  0.00  0.00    -0.266 OA
ATOM      4  C   UNL     1       3.098   6.107  -8.427  0.00  0.00    +0.059 A 
ATOM      5  C   UNL     1       3.944   5.484  -7.519  0.00  0.00    +0.020 A 
ATOM      6  C   UNL     1       5.276   5.315  -7.861  0.00  0.00    +0.001 A 
ATOM      7  C   UNL     1       5.611   5.484  -9.198  0.00  0.00    +0.000 A 
ATOM      8  C   UNL     1       4.880   6.336 -10.007  0.00  0.00    +0.000 A 
ATOM      9  C   UNL     1       3.589   5.488  -6.181  0.00  0.00    +0.083 A 
ATOM     10  C   UNL     1       3.586   6.607  -9.625  0.00  0.00    +0.005 A 
ATOM     11  N   UNL     1       2.296   5.654  -5.884  0.00  0.00    -0.171 NA
ENDROOT
BRANCH   1  16
ATOM     12  C   UNL     1      -1.964   7.060  -3.217  0.00  0.00    +0.090 C 
ATOM     13  N   UNL     1      -1.692   6.620  -3.894  0.00  0.00    -0.271 NA
ATOM     14  C   UNL     1      -0.721   5.597  -4.107  0.00  0.00    +0.074 C 
ATOM     15  C   UNL     1       0.515   6.143  -4.720  0.00  0.00    +0.042 C 
ATOM     16  C   UNL     1       0.166   6.681  -6.228  0.00  0.00    +0.110 C 
ATOM     17  C   UNL     1      -0.833   5.423  -6.558  0.00  0.00    +0.026 C 
ATOM     18  C   UNL     1      -2.213   5.885  -6.190  0.00  0.00    +0.019 C 
ATOM     19  C   UNL     1      -2.245   6.981  -5.174  0.00  0.00    +0.072 C 
ENDBRANCH   1  16
BRANCH   9  20
ATOM     20  C   UNL     1       4.592   5.533  -5.088  0.00  0.00    +0.074 C 
BRANCH  20  21
ATOM     21  C   UNL     1       3.907   6.061  -3.868  0.00  0.00    -0.016 A 
ATOM     22  C   UNL     1       3.584   5.207  -2.823  0.00  0.00    -0.003 A 
ATOM     23  C   UNL     1       3.755   5.630  -1.510  0.00  0.00    +0.011 A 
ATOM     24  C   UNL     1       4.199   6.907  -1.204  0.00  0.00    +0.058 A 
ATOM     25 CL   UNL     1       5.225   7.213   0.187  0.00  0.00    -0.082 Cl
ATOM     26  C   UNL     1       4.051   7.839  -2.223  0.00  0.00    +0.011 A 
ATOM     27  C   UNL     1       4.026   7.403  -3.542  0.00  0.00    -0.003 A 
ENDBRANCH  20  21
ENDBRANCH   9  20
TORSDOF 3
ENDMDL
MODEL 3
REMARK VINA RESULT:      -9.2      2.996      5.830
REMARK  Name = 
REMARK  3 active torsions:
REMARK  status: ('A' for Active; 'I' for Inactive)
REMARK    1  A    between atoms: C_6  and  N_7
REMARK    2  A    between atoms: C_9  and  C_10
REMARK    3  A    between atoms: C_10  and  C_11
REMARK                            x       y       z     vdW  Elec       q    Type
REMARK                         _______ _______ _______ _____ _____    ______ ____
ROOT
ATOM      1  N   UNL     1       3.098   5.877  -8.945  0.00  0.00    -0.219 N 
ATOM      2  C   UNL     1       2.693   6.283  -7.743  0.00  0.00    +0.276 A 
ATOM      3  O   UNL     1       3.481   6.857  -6.931  0.00  0.00    -0.266 OA
ATOM      4  C   UNL     1       1.362   6.100  -7.411  0.00  0.00    +0.059 A 
ATOM      5  C   UNL     1       0.543   5.449  -8.325  0.00  0.00    +0.020 A 
ATOM      6  C   UNL     1      -0.798   5.289  -8.019  0.00  0.00    +0.001 A 
ATOM      7  C   UNL     1      -1.174   5.498  -6.699  0.00  0.00    +0.000 A 
ATOM      8  C   UNL     1      -0.467   6.375  -5.893  0.00  0.00    +0.000 A 
ATOM      9  C   UNL     1       0.939   5.413  -9.651  0.00  0.00    +0.083 A 
ATOM     10  C   UNL     1       0.837   6.635  -6.244  0.00  0.00    +0.005 A 
ATOM     11  N   UNL     1       2.240   5.572  -9.914  0.00  0.00    -0.171 NA
ENDROOT
BRANCH   1  16
ATOM     12  C   UNL     1       6.544   6.943 -12.513  0.00  0.00    +0.090 C 
ATOM     13  N   UNL     1       6.256   6.512 -11.837  0.00  0.00    -0.271 NA
ATOM     14  C   UNL     1       5.271   5.500 -11.633  0.00  0.00    +0.074 C 
ATOM     15  C   UNL     1       4.031   6.064 -11.046  0.00  0.00    +0.042 C 
ATOM     16  C   UNL     1       4.359   6.610  -9.537  0.00  0.00    +0.110 C 
ATOM     17  C   UNL     1       5.340   5.346  -9.179  0.00  0.00    +0.026 C 
ATOM     18  C   UNL     1       6.730   5.790  -9.527  0.00  0.00    +0.019 C 
ATOM     19  C   UNL     1       6.791   6.878 -10.551  0.00  0.00    +0.072 C 
ENDBRANCH   1  16
BRANCH   9  20
ATOM     20  C   UNL     1      -0.031   5.425 -10.775  0.00  0.00    +0.074 C 
BRANCH  20  21
ATOM     21  C   UNL     1       0.692   5.911 -11.990  0.00  0.00    -0.016 A 
ATOM     22  C   UNL     1       1.044   5.023 -12.997  0.00  0.00    -0.003 A 
ATOM     23  C   UNL     1       0.915   5.403 -14.327  0.00  0.00    +0.011 A 
ATOM     24  C   UNL     1       0.483   6.670 -14.688  0.00  0.00    +0.058 A 
ATOM     25 CL   UNL     1      -0.499   6.932 -16.119  0.00  0.00    -0.082 Cl
ATOM     26  C   UNL     1       0.603   7.635 -13.697  0.00  0.00    +0.011 A 
ATOM     27  C   UNL     1       0.587   7.242 -12.363  0.00  0.00    -0.003 A 
ENDBRANCH  20  21
ENDBRANCH   9  20
TORSDOF 3
ENDMDL
MODEL 4
REMARK VINA RESULT:      -9.2      2.770      4.299
REMARK  Name = 
REMARK  3 active torsions:
REMARK  status: ('A' for Active; 'I' for Inactive)
REMARK    1  A    between atoms: C_6  and  N_7
REMARK    2  A    between atoms: C_9  and  C_10
REMARK    3  A    between atoms: C_10  and  C_11
REMARK                            x       y       z     vdW  Elec       q    Type
REMARK                         _______ _______ _______ _____ _____    ______ ____
ROOT
ATOM      1  N   UNL     1       1.257   5.240  -4.374  0.00  0.00    -0.219 N 
ATOM      2  C   UNL     1       0.223   5.959  -3.939  0.00  0.00    +0.276 A 
ATOM      3  O   UNL     1       0.234   6.527  -2.804  0.00  0.00    -0.266 OA
ATOM      4  C   UNL     1      -0.864   6.107  -4.783  0.00  0.00    +0.059 A 
ATOM      5  C   UNL     1      -0.837   5.450  -6.006  0.00  0.00    +0.020 A 
ATOM      6  C   UNL     1      -1.904   5.618  -6.874  0.00  0.00    +0.001 A 
ATOM      7  C   UNL     1      -3.066   6.166  -6.347  0.00  0.00    +0.000 A 
ATOM      8  C   UNL     1      -3.013   7.039  -5.274  0.00  0.00    +0.000 A 
ATOM      9  C   UNL     1       0.390   5.064  -6.517  0.00  0.00    +0.083 A 
ATOM     10  C   UNL     1      -1.906   6.965  -4.461  0.00  0.00    +0.005 A 
ATOM     11  N   UNL     1       1.400   4.910  -5.654  0.00  0.00    -0.171 NA
ENDROOT
BRANCH   1  16
ATOM     12  C   UNL     1       5.686   7.691  -4.032  0.00  0.00    +0.090 C 
ATOM     13  N   UNL     1       5.188   7.051  -4.292  0.00  0.00    -0.271 NA
ATOM     14  C   UNL     1       4.170   6.905  -5.282  0.00  0.00    +0.074 C 
ATOM     15  C   UNL     1       2.819   6.911  -4.672  0.00  0.00    +0.042 C 
ATOM     16  C   UNL     1       2.654   5.579  -3.733  0.00  0.00    +0.110 C 
ATOM     17  C   UNL     1       3.444   4.607  -4.792  0.00  0.00    +0.026 C 
ATOM     18  C   UNL     1       4.881   4.605  -4.358  0.00  0.00    +0.019 C 
ATOM     19  C   UNL     1       5.288   5.809  -3.571  0.00  0.00    +0.072 C 
ENDBRANCH   1  16
BRANCH   9  20
ATOM     20  C   UNL     1       0.673   5.026  -7.973  0.00  0.00    +0.074 C 
BRANCH  20  21
ATOM     21  C   UNL     1       2.125   5.335  -8.158  0.00  0.00    -0.016 A 
ATOM     22  C   UNL     1       3.026   4.317  -8.437  0.00  0.00    -0.003 A 
ATOM     23  C   UNL     1       4.040   4.529  -9.364  0.00  0.00    +0.011 A 
ATOM     24  C   UNL     1       4.211   5.751  -9.995  0.00  0.00    +0.058 A 
ATOM     25 CL   UNL     1       4.774   5.858 -11.654  0.00  0.00    -0.082 Cl
ATOM     26  C   UNL     1       3.617   6.831  -9.353  0.00  0.00    +0.011 A 
ATOM     27  C   UNL     1       2.512   6.610  -8.540  0.00  0.00    -0.003 A 
ENDBRANCH  20  21
ENDBRANCH   9  20
TORSDOF 3
ENDMDL
MODEL 5
REMARK VINA RESULT:      -9.0      3.719      7.288
REMARK  Name = 
REMARK  3 active torsions:
REMARK  status: ('A' for Active; 'I' for Inactive)
REMARK    1  A    between atoms: C_6  and  N_7
REMARK    2  A    between atoms: C_9  and  C_10
REMARK    3  A    between atoms: C_10  and  C_11
REMARK                            x       y       z     vdW  Elec       q    Type
REMARK                         _______ _______ _______ _____ _____    ______ ____
ROOT
ATOM      1  N   UNL     1       0.319   6.754  -4.995  0.00  0.00    -0.219 N 
ATOM      2  C   UNL     1      -1.006   6.855  -4.902  0.00  0.00    +0.276 A 
ATOM      3  O   UNL     1      -1.732   7.075  -5.920  0.00  0.00    -0.266 OA
ATOM      4  C   UNL     1      -1.585   6.672  -3.659  0.00  0.00    +0.059 A 
ATOM      5  C   UNL     1      -0.747   6.454  -2.572  0.00  0.00    +0.020 A 
ATOM      6  C   UNL     1      -1.316   6.235  -1.329  0.00  0.00    +0.001 A 
ATOM      7  C   UNL     1      -2.658   6.561  -1.181  0.00  0.00    +0.000 A 
ATOM      8  C   UNL     1      -3.521   6.506  -2.262  0.00  0.00    +0.000 A 
ATOM      9  C   UNL     1       0.535   5.993  -2.815  0.00  0.00    +0.083 A 
ATOM     10  C   UNL     1      -2.964   6.610  -3.515  0.00  0.00    +0.005 A 
ATOM     11  N   UNL     1       1.056   6.219  -4.025  0.00  0.00    -0.171 NA
ENDROOT
BRANCH   1  16
ATOM     12  C   UNL     1       2.498   3.635  -8.351  0.00  0.00    +0.090 C 
ATOM     13  N   UNL     1       2.513   4.243  -7.755  0.00  0.00    -0.271 NA
ATOM     14  C   UNL     1       2.345   4.268  -6.338  0.00  0.00    +0.074 C 
ATOM     15  C   UNL     1       1.002   4.775  -5.963  0.00  0.00    +0.042 C 
ATOM     16  C   UNL     1       0.886   6.349  -6.406  0.00  0.00    +0.110 C 
ATOM     17  C   UNL     1       2.425   6.697  -5.956  0.00  0.00    +0.026 C 
ATOM     18  C   UNL     1       3.265   6.522  -7.187  0.00  0.00    +0.019 C 
ATOM     19  C   UNL     1       2.678   5.600  -8.207  0.00  0.00    +0.072 C 
ENDBRANCH   1  16
BRANCH   9  20
ATOM     20  C   UNL     1       1.251   5.091  -1.879  0.00  0.00    +0.074 C 
BRANCH  20  21
ATOM     21  C   UNL     1       2.668   5.562  -1.793  0.00  0.00    -0.016 A 
ATOM     22  C   UNL     1       3.661   4.927  -2.525  0.00  0.00    -0.003 A 
ATOM     23  C   UNL     1       4.654   5.681  -3.140  0.00  0.00    +0.011 A 
ATOM     24  C   UNL     1       4.712   7.060  -3.008  0.00  0.00    +0.058 A 
ATOM     25 CL   UNL     1       5.268   8.085  -4.320  0.00  0.00    -0.082 Cl
ATOM     26  C   UNL     1       4.017   7.575  -1.921  0.00  0.00    +0.011 A 
ATOM     27  C   UNL     1       2.935   6.867  -1.412  0.00  0.00    -0.003 A 
ENDBRANCH  20  21
ENDBRANCH   9  20
TORSDOF 3
ENDMDL
MODEL 6
REMARK VINA RESULT:      -9.0      2.956      6.258
REMARK  Name = 
REMARK  3 active torsions:
REMARK  status: ('A' for Active; 'I' for Inactive)
REMARK    1  A    between atoms: C_6  and  N_7
REMARK    2  A    between atoms: C_9  and  C_10
REMARK    3  A    between atoms: C_10  and  C_11
REMARK                            x       y       z     vdW  Elec       q    Type
REMARK                         _______ _______ _______ _____ _____    ______ ____
ROOT
ATOM      1  N   UNL     1       3.360   5.914  -8.690  0.00  0.00    -0.219 N 
ATOM      2  C   UNL     1       2.058   5.885  -8.968  0.00  0.00    +0.276 A 
ATOM      3  O   UNL     1       1.625   6.002 -10.155  0.00  0.00    -0.266 OA
ATOM      4  C   UNL     1       1.175   5.680  -7.921  0.00  0.00    +0.059 A 
ATOM      5  C   UNL     1       1.696   5.577  -6.638  0.00  0.00    +0.020 A 
ATOM      6  C   UNL     1       0.826   5.338  -5.586  0.00  0.00    +0.001 A 
ATOM      7  C   UNL     1      -0.527   5.532  -5.828  0.00  0.00    +0.000 A 
ATOM      8  C   UNL     1      -1.049   5.361  -7.099  0.00  0.00    +0.000 A 
ATOM      9  C   UNL     1       3.031   5.241  -6.495  0.00  0.00    +0.083 A 
ATOM     10  C   UNL     1      -0.178   5.484  -8.156  0.00  0.00    +0.005 A 
ATOM     11  N   UNL     1       3.844   5.483  -7.528  0.00  0.00    -0.171 NA
ENDROOT
BRANCH   1  16
ATOM     12  C   UNL     1       7.879   5.103 -10.847  0.00  0.00    +0.090 C 
ATOM     13  N   UNL     1       7.210   5.587 -10.641  0.00  0.00    -0.271 NA
ATOM     14  C   UNL     1       6.743   6.200  -9.440  0.00  0.00    +0.074 C 
ATOM     15  C   UNL     1       5.612   5.442  -8.852  0.00  0.00    +0.042 C 
ATOM     16  C   UNL     1       4.329   5.528  -9.868  0.00  0.00    +0.110 C 
ATOM     17  C   UNL     1       4.599   7.101 -10.244  0.00  0.00    +0.026 C 
ATOM     18  C   UNL     1       5.445   7.090 -11.483  0.00  0.00    +0.019 C 
ATOM     19  C   UNL     1       6.240   5.839 -11.676  0.00  0.00    +0.072 C 
ENDBRANCH   1  16
BRANCH   9  20
ATOM     20  C   UNL     1       3.536   4.442  -5.352  0.00  0.00    +0.074 C 
BRANCH  20  21
ATOM     21  C   UNL     1       4.397   5.338  -4.520  0.00  0.00    -0.016 A 
ATOM     22  C   UNL     1       4.770   6.588  -4.995  0.00  0.00    -0.003 A 
ATOM     23  C   UNL     1       4.786   7.677  -4.131  0.00  0.00    +0.011 A 
ATOM     24  C   UNL     1       4.483   7.548  -2.784  0.00  0.00    +0.058 A 
ATOM     25 CL   UNL     1       3.652   8.819  -1.904  0.00  0.00    -0.082 Cl
ATOM     26  C   UNL     1       4.586   6.257  -2.281  0.00  0.00    +0.011 A 
ATOM     27  C   UNL     1       4.424   5.178  -3.143  0.00  0.00    -0.003 A 
ENDBRANCH  20  21
ENDBRANCH   9  20
TORSDOF 3
ENDMDL
MODEL 7
REMARK VINA RESULT:      -8.9      3.936      5.784
REMARK  Name = 
REMARK  3 active torsions:
REMARK  status: ('A' for Active; 'I' for Inactive)
REMARK    1  A    between atoms: C_6  and  N_7
REMARK    2  A    between atoms: C_9  and  C_10
REMARK    3  A    between atoms: C_10  and  C_11
REMARK                            x       y       z     vdW  Elec       q    Type
REMARK                         _______ _______ _______ _____ _____    ______ ____
ROOT
ATOM      1  N   UNL     1      -0.202   5.980  -5.370  0.00  0.00    -0.219 N 
ATOM      2  C   UNL     1      -0.739   5.655  -6.546  0.00  0.00    +0.276 A 
ATOM      3  O   UNL     1      -1.990   5.495  -6.687  0.00  0.00    -0.266 OA
ATOM      4  C   UNL     1       0.107   5.534  -7.634  0.00  0.00    +0.059 A 
ATOM      5  C   UNL     1       1.470   5.699  -7.424  0.00  0.00    +0.020 A 
ATOM      6  C   UNL     1       2.324   5.614  -8.512  0.00  0.00    +0.001 A 
ATOM      7  C   UNL     1       1.812   5.058  -9.676  0.00  0.00    +0.000 A 
ATOM      8  C   UNL     1       0.462   5.154  -9.970  0.00  0.00    +0.000 A 
ATOM      9  C   UNL     1       1.882   6.392  -6.299  0.00  0.00    +0.083 A 
ATOM     10  C   UNL     1      -0.397   5.351  -8.913  0.00  0.00    +0.005 A 
ATOM     11  N   UNL     1       1.035   6.457  -5.267  0.00  0.00    -0.171 NA
ENDROOT
BRANCH   1  16
ATOM     12  C   UNL     1      -1.672   7.556  -0.777  0.00  0.00    +0.090 C 
ATOM     13  N   UNL     1      -1.651   6.998  -1.421  0.00  0.00    -0.271 NA
ATOM     14  C   UNL     1      -0.682   6.082  -1.929  0.00  0.00    +0.074 C 
ATOM     15  C   UNL     1      -0.036   6.605  -3.157  0.00  0.00    +0.042 C 
ATOM     16  C   UNL     1      -1.157   6.700  -4.348  0.00  0.00    +0.110 C 
ATOM     17  C   UNL     1      -1.875   5.286  -3.928  0.00  0.00    +0.026 C 
ATOM     18  C   UNL     1      -2.991   5.651  -2.994  0.00  0.00    +0.019 C 
ATOM     19  C   UNL     1      -2.801   6.955  -2.286  0.00  0.00    +0.072 C 
ENDBRANCH   1  16
BRANCH   9  20
ATOM     20  C   UNL     1       3.108   7.228  -6.279  0.00  0.00    +0.074 C 
BRANCH  20  21
ATOM     21  C   UNL     1       4.011   6.681  -5.220  0.00  0.00    -0.016 A 
ATOM     22  C   UNL     1       4.250   7.407  -4.061  0.00  0.00    -0.003 A 
ATOM     23  C   UNL     1       4.309   6.752  -2.837  0.00  0.00    +0.011 A 
ATOM     24  C   UNL     1       4.179   5.376  -2.736  0.00  0.00    +0.058 A 
ATOM     25 CL   UNL     1       3.390   4.626  -1.359  0.00  0.00    -0.082 Cl
ATOM     26  C   UNL     1       4.417   4.676  -3.912  0.00  0.00    +0.011 A 
ATOM     27  C   UNL     1       4.214   5.312  -5.131  0.00  0.00    -0.003 A 
ENDBRANCH  20  21
ENDBRANCH   9  20
TORSDOF 3
ENDMDL
MODEL 8
REMARK VINA RESULT:      -8.9      3.064      4.673
REMARK  Name = 
REMARK  3 active torsions:
REMARK  status: ('A' for Active; 'I' for Inactive)
REMARK    1  A    between atoms: C_6  and  N_7
REMARK    2  A    between atoms: C_9  and  C_10
REMARK    3  A    between atoms: C_10  and  C_11
REMARK                            x       y       z     vdW  Elec       q    Type
REMARK                         _______ _______ _______ _____ _____    ______ ____
ROOT
ATOM      1  N   UNL     1       1.374   5.217  -3.097  0.00  0.00    -0.219 N 
ATOM      2  C   UNL     1       0.044   5.291  -3.076  0.00  0.00    +0.276 A 
ATOM      3  O   UNL     1      -0.610   5.255  -1.990  0.00  0.00    -0.266 OA
ATOM      4  C   UNL     1      -0.615   5.452  -4.283  0.00  0.00    +0.059 A 
ATOM      5  C   UNL     1       0.144   5.465  -5.446  0.00  0.00    +0.020 A 
ATOM      6  C   UNL     1      -0.501   5.660  -6.657  0.00  0.00    +0.001 A 
ATOM      7  C   UNL     1      -1.881   5.510  -6.669  0.00  0.00    +0.000 A 
ATOM      8  C   UNL     1      -2.630   5.769  -5.534  0.00  0.00    +0.000 A 
ATOM      9  C   UNL     1       1.492   5.764  -5.347  0.00  0.00    +0.083 A 
ATOM     10  C   UNL     1      -1.981   5.691  -4.324  0.00  0.00    +0.005 A 
ATOM     11  N   UNL     1       2.085   5.566  -4.165  0.00  0.00    -0.171 NA
ENDROOT
BRANCH   1  16
ATOM     12  C   UNL     1       4.264   8.246  -0.231  0.00  0.00    +0.090 C 
ATOM     13  N   UNL     1       4.139   7.593  -0.764  0.00  0.00    -0.271 NA
ATOM     14  C   UNL     1       3.848   7.470  -2.155  0.00  0.00    +0.074 C 
ATOM     15  C   UNL     1       2.419   7.144  -2.381  0.00  0.00    +0.042 C 
ATOM     16  C   UNL     1       2.113   5.652  -1.777  0.00  0.00    +0.110 C 
ATOM     17  C   UNL     1       3.540   5.034  -2.299  0.00  0.00    +0.026 C 
ATOM     18  C   UNL     1       4.498   5.185  -1.154  0.00  0.00    +0.019 C 
ATOM     19  C   UNL     1       4.142   6.272  -0.191  0.00  0.00    +0.072 C 
ENDBRANCH   1  16
BRANCH   9  20
ATOM     20  C   UNL     1       2.232   6.481  -6.414  0.00  0.00    +0.074 C 
BRANCH  20  21
ATOM     21  C   UNL     1       3.110   5.485  -7.103  0.00  0.00    -0.016 A 
ATOM     22  C   UNL     1       2.606   4.703  -8.133  0.00  0.00    -0.003 A 
ATOM     23  C   UNL     1       3.389   4.453  -9.254  0.00  0.00    +0.011 A 
ATOM     24  C   UNL     1       4.688   4.925  -9.360  0.00  0.00    +0.058 A 
ATOM     25 CL   UNL     1       5.360   5.423 -10.903  0.00  0.00    -0.082 Cl
ATOM     26  C   UNL     1       5.286   5.271  -8.156  0.00  0.00    +0.011 A 
ATOM     27  C   UNL     1       4.486   5.657  -7.087  0.00  0.00    -0.003 A 
ENDBRANCH  20  21
ENDBRANCH   9  20
TORSDOF 3
ENDMDL
MODEL 9
REMARK VINA RESULT:      -8.9      4.144      6.745
REMARK  Name = 
REMARK  3 active torsions:
REMARK  status: ('A' for Active; 'I' for Inactive)
REMARK    1  A    between atoms: C_6  and  N_7
REMARK    2  A    between atoms: C_9  and  C_10
REMARK    3  A    between atoms: C_10  and  C_11
REMARK                            x       y       z     vdW  Elec       q    Type
REMARK                         _______ _______ _______ _____ _____    ______ ____
ROOT
ATOM      1  N   UNL     1       2.085   5.949  -5.971  0.00  0.00    -0.219 N 
ATOM      2  C   UNL     1       2.705   5.825  -7.144  0.00  0.00    +0.276 A 
ATOM      3  O   UNL     1       3.969   5.745  -7.226  0.00  0.00    -0.266 OA
ATOM      4  C   UNL     1       1.925   5.745  -8.285  0.00  0.00    +0.059 A 
ATOM      5  C   UNL     1       0.548   5.858  -8.145  0.00  0.00    +0.020 A 
ATOM      6  C   UNL     1      -0.246   5.745  -9.275  0.00  0.00    +0.001 A 
ATOM      7  C   UNL     1       0.389   5.847 -10.506  0.00  0.00    +0.000 A 
ATOM      8  C   UNL     1       1.712   5.465 -10.652  0.00  0.00    +0.000 A 
ATOM      9  C   UNL     1      -0.010   5.601  -6.905  0.00  0.00    +0.083 A 
ATOM     10  C   UNL     1       2.492   5.462  -9.519  0.00  0.00    +0.005 A 
ATOM     11  N   UNL     1       0.782   5.718  -5.833  0.00  0.00    -0.171 NA
ENDROOT
BRANCH   1  16
ATOM     12  C   UNL     1       2.700   4.881  -1.050  0.00  0.00    +0.090 C 
ATOM     13  N   UNL     1       2.754   5.388  -1.732  0.00  0.00    -0.271 NA
ATOM     14  C   UNL     1       1.819   6.134  -2.510  0.00  0.00    +0.074 C 
ATOM     15  C   UNL     1       1.518   5.452  -3.792  0.00  0.00    +0.042 C 
ATOM     16  C   UNL     1       2.873   5.428  -4.713  0.00  0.00    +0.110 C 
ATOM     17  C   UNL     1       3.316   6.949  -4.285  0.00  0.00    +0.026 C 
ATOM     18  C   UNL     1       4.238   6.795  -3.111  0.00  0.00    +0.019 C 
ATOM     19  C   UNL     1       4.052   5.526  -2.342  0.00  0.00    +0.072 C 
ENDBRANCH   1  16
BRANCH   9  20
ATOM     20  C   UNL     1      -1.358   5.005  -6.742  0.00  0.00    +0.074 C 
BRANCH  20  21
ATOM     21  C   UNL     1      -2.128   5.877  -5.803  0.00  0.00    -0.016 A 
ATOM     22  C   UNL     1      -2.915   5.312  -4.809  0.00  0.00    -0.003 A 
ATOM     23  C   UNL     1      -2.940   5.883  -3.542  0.00  0.00    +0.011 A 
ATOM     24  C   UNL     1      -2.234   7.037  -3.245  0.00  0.00    +0.058 A 
ATOM     25 CL   UNL     1      -1.516   7.293  -1.664  0.00  0.00    -0.082 Cl
ATOM     26  C   UNL     1      -1.869   7.801  -4.346  0.00  0.00    +0.011 A 
ATOM     27  C   UNL     1      -1.711   7.180  -5.579  0.00  0.00    -0.003 A 
ENDBRANCH  20  21
ENDBRANCH   9  20
TORSDOF 3
ENDMDL
