MODEL 1
REMARK VINA RESULT:      -5.9      0.000      0.000
REMARK  Name = 
REMARK  4 active torsions:
REMARK  status: ('A' for Active; 'I' for Inactive)
REMARK    1  A    between atoms: P_2  and  C_5
REMARK    2  A    between atoms: C_5  and  C_7
REMARK    3  A    between atoms: C_5  and  P_14
REMARK    4  A    between atoms: C_7  and  C_8
REMARK                            x       y       z     vdW  Elec       q    Type
REMARK                         _______ _______ _______ _____ _____    ______ ____
ROOT
ATOM      1  C   UNL     1       2.922   5.799  -9.384  0.00  0.00    +0.220 C 
ATOM      2  O   UNL     1       3.218   4.469  -9.158  0.00  0.00    -0.210 OA
ENDROOT
BRANCH   1   4
ATOM      3  O   UNL     1       0.761   4.564 -10.397  0.00  0.00    -0.457 OA
ATOM      4  P   UNL     1       1.535   5.865 -10.567  0.00  0.00    +0.151 P 
ATOM      5  O   UNL     1       2.215   5.939 -12.108  0.00  0.00    -0.355 OA
ATOM      6  O   UNL     1       0.568   7.206 -10.269  0.00  0.00    -0.355 OA
ENDBRANCH   1   4
BRANCH   1   7
ATOM      7  P   UNL     1       2.420   6.565  -7.827  0.00  0.00    +0.151 P 
ATOM      8  O   UNL     1       0.923   5.912  -7.351  0.00  0.00    -0.355 OA
ATOM      9  O   UNL     1       2.290   8.246  -7.996  0.00  0.00    -0.355 OA
ATOM     10  O   UNL     1       3.483   6.208  -6.797  0.00  0.00    -0.457 OA
ENDBRANCH   1   7
BRANCH   1  11
ATOM     11  C   UNL     1       4.053   6.594  -9.950  0.00  0.00    +0.073 C 
BRANCH  11  12
ATOM     12  C   UNL     1       5.252   5.755 -10.264  0.00  0.00    +0.000 A 
ATOM     13  C   UNL     1       6.285   5.722  -9.336  0.00  0.00    +0.095 A 
ATOM     14  N   UNL     1       7.581   5.905  -9.689  0.00  0.00    -0.243 NA
ATOM     15  C   UNL     1       7.937   5.532 -10.936  0.00  0.00    +0.099 A 
ATOM     16  C   UNL     1       6.987   5.647 -11.945  0.00  0.00    +0.020 A 
ATOM     17  C   UNL     1       5.657   5.503 -11.569  0.00  0.00    -0.001 A 
ENDBRANCH  11  12
ENDBRANCH   1  11
TORSDOF 4
ENDMDL
MODEL 2
REMARK VINA RESULT:      -5.9      1.196      3.102
REMARK  Name = 
REMARK  4 active torsions:
REMARK  status: ('A' for Active; 'I' for Inactive)
REMARK    1  A    between atoms: P_2  and  C_5
REMARK    2  A    between atoms: C_5  and  C_7
REMARK    3  A    between atoms: C_5  and  P_14
REMARK    4  A    between atoms: C_7  and  C_8
REMARK                            x       y       z     vdW  Elec       q    Type
REMARK                         _______ _______ _______ _____ _____    ______ ____
ROOT
ATOM      1  C   UNL     1       2.727   6.006  -9.569  0.00  0.00    +0.220 C 
ATOM      2  O   UNL     1       2.941   7.284  -9.090  0.00  0.00    -0.210 OA
ENDROOT
BRANCH   1   4
ATOM      3  O   UNL     1       3.116   5.359  -6.990  0.00  0.00    -0.457 OA
ATOM      4  P   UNL     1       2.224   4.963  -8.159  0.00  0.00    +0.151 P 
ATOM      5  O   UNL     1       2.527   3.365  -8.606  0.00  0.00    -0.355 OA
ATOM      6  O   UNL     1       0.598   5.193  -7.806  0.00  0.00    -0.355 OA
ENDBRANCH   1   4
BRANCH   1   7
ATOM      7  P   UNL     1       1.397   6.048 -10.789  0.00  0.00    +0.151 P 
ATOM      8  O   UNL     1       0.287   7.260 -10.352  0.00  0.00    -0.355 OA
ATOM      9  O   UNL     1       0.611   4.549 -10.878  0.00  0.00    -0.355 OA
ATOM     10  O   UNL     1       2.036   6.399 -12.126  0.00  0.00    -0.457 OA
ENDBRANCH   1   7
BRANCH   1  11
ATOM     11  C   UNL     1       3.924   5.380 -10.206  0.00  0.00    +0.073 C 
BRANCH  11  12
ATOM     12  C   UNL     1       5.179   6.164  -9.982  0.00  0.00    +0.000 A 
ATOM     13  C   UNL     1       5.592   7.033 -10.983  0.00  0.00    +0.095 A 
ATOM     14  N   UNL     1       6.867   7.053 -11.444  0.00  0.00    -0.243 NA
ATOM     15  C   UNL     1       7.838   6.694 -10.579  0.00  0.00    +0.099 A 
ATOM     16  C   UNL     1       7.531   5.739  -9.616  0.00  0.00    +0.020 A 
ATOM     17  C   UNL     1       6.212   5.694  -9.181  0.00  0.00    -0.001 A 
ENDBRANCH  11  12
ENDBRANCH   1  11
TORSDOF 4
ENDMDL
MODEL 3
REMARK VINA RESULT:      -5.8      4.477      6.807
REMARK  Name = 
REMARK  4 active torsions:
REMARK  status: ('A' for Active; 'I' for Inactive)
REMARK    1  A    between atoms: P_2  and  C_5
REMARK    2  A    between atoms: C_5  and  C_7
REMARK    3  A    between atoms: C_5  and  P_14
REMARK    4  A    between atoms: C_7  and  C_8
REMARK                            x       y       z     vdW  Elec       q    Type
REMARK                         _______ _______ _______ _____ _____    ______ ____
ROOT
ATOM      1  C   UNL     1       2.153   5.076  -7.168  0.00  0.00    +0.220 C 
ATOM      2  O   UNL     1       1.944   3.805  -6.668  0.00  0.00    -0.210 OA
ENDROOT
BRANCH   1   4
ATOM      3  O   UNL     1       3.430   5.261  -4.812  0.00  0.00    -0.457 OA
ATOM      4  P   UNL     1       3.521   5.825  -6.223  0.00  0.00    +0.151 P 
ATOM      5  O   UNL     1       3.242   7.488  -6.202  0.00  0.00    -0.355 OA
ATOM      6  O   UNL     1       4.997   5.469  -6.941  0.00  0.00    -0.355 OA
ENDBRANCH   1   4
BRANCH   1   7
ATOM      7  P   UNL     1       2.619   4.956  -8.908  0.00  0.00    +0.151 P 
ATOM      8  O   UNL     1       3.764   3.710  -9.086  0.00  0.00    -0.355 OA
ATOM      9  O   UNL     1       3.268   6.420  -9.461  0.00  0.00    -0.355 OA
ATOM     10  O   UNL     1       1.356   4.601  -9.681  0.00  0.00    -0.457 OA
ENDBRANCH   1   7
BRANCH   1  11
ATOM     11  C   UNL     1       0.968   5.979  -7.065  0.00  0.00    +0.073 C 
BRANCH  11  12
ATOM     12  C   UNL     1      -0.124   5.411  -6.213  0.00  0.00    +0.000 A 
ATOM     13  C   UNL     1      -1.349   5.148  -6.813  0.00  0.00    +0.095 A 
ATOM     14  N   UNL     1      -2.522   5.556  -6.270  0.00  0.00    -0.243 NA
ATOM     15  C   UNL     1      -2.570   5.673  -4.926  0.00  0.00    +0.099 A 
ATOM     16  C   UNL     1      -1.407   6.048  -4.264  0.00  0.00    +0.020 A 
ATOM     17  C   UNL     1      -0.206   5.665  -4.849  0.00  0.00    -0.001 A 
ENDBRANCH  11  12
ENDBRANCH   1  11
TORSDOF 4
ENDMDL
MODEL 4
REMARK VINA RESULT:      -5.8      4.354      6.300
REMARK  Name = 
REMARK  4 active torsions:
REMARK  status: ('A' for Active; 'I' for Inactive)
REMARK    1  A    between atoms: P_2  and  C_5
REMARK    2  A    between atoms: C_5  and  C_7
REMARK    3  A    between atoms: C_5  and  P_14
REMARK    4  A    between atoms: C_7  and  C_8
REMARK                            x       y       z     vdW  Elec       q    Type
REMARK                         _______ _______ _______ _____ _____    ______ ____
ROOT
ATOM      1  C   UNL     1       2.000   5.792  -7.368  0.00  0.00    +0.220 C 
ATOM      2  O   UNL     1       1.545   7.080  -7.574  0.00  0.00    -0.210 OA
ENDROOT
BRANCH   1   4
ATOM      3  O   UNL     1       0.971   4.847  -9.663  0.00  0.00    -0.457 OA
ATOM      4  P   UNL     1       2.328   5.052  -9.003  0.00  0.00    +0.151 P 
ATOM      5  O   UNL     1       3.068   3.564  -8.722  0.00  0.00    -0.355 OA
ATOM      6  O   UNL     1       3.317   6.056  -9.916  0.00  0.00    -0.355 OA
ENDBRANCH   1   4
BRANCH   1   7
ATOM      7  P   UNL     1       3.534   5.853  -6.417  0.00  0.00    +0.151 P 
ATOM      8  O   UNL     1       3.665   7.381  -5.681  0.00  0.00    -0.355 OA
ATOM      9  O   UNL     1       4.874   5.575  -7.416  0.00  0.00    -0.355 OA
ATOM     10  O   UNL     1       3.431   4.778  -5.345  0.00  0.00    -0.457 OA
ENDBRANCH   1   7
BRANCH   1  11
ATOM     11  C   UNL     1       1.038   4.909  -6.643  0.00  0.00    +0.073 C 
BRANCH  11  12
ATOM     12  C   UNL     1      -0.154   5.650  -6.124  0.00  0.00    +0.000 A 
ATOM     13  C   UNL     1      -0.233   5.881  -4.757  0.00  0.00    +0.095 A 
ATOM     14  N   UNL     1      -1.354   5.617  -4.041  0.00  0.00    -0.243 NA
ATOM     15  C   UNL     1      -2.533   5.704  -4.693  0.00  0.00    +0.099 A 
ATOM     16  C   UNL     1      -2.555   5.375  -6.043  0.00  0.00    +0.020 A 
ATOM     17  C   UNL     1      -1.388   5.606  -6.761  0.00  0.00    -0.001 A 
ENDBRANCH  11  12
ENDBRANCH   1  11
TORSDOF 4
ENDMDL
MODEL 5
REMARK VINA RESULT:      -5.8      1.576      2.308
REMARK  Name = 
REMARK  4 active torsions:
REMARK  status: ('A' for Active; 'I' for Inactive)
REMARK    1  A    between atoms: P_2  and  C_5
REMARK    2  A    between atoms: C_5  and  C_7
REMARK    3  A    between atoms: C_5  and  P_14
REMARK    4  A    between atoms: C_7  and  C_8
REMARK                            x       y       z     vdW  Elec       q    Type
REMARK                         _______ _______ _______ _____ _____    ______ ____
ROOT
ATOM      1  C   UNL     1       2.687   5.104  -7.886  0.00  0.00    +0.220 C 
ATOM      2  O   UNL     1       2.965   3.867  -8.436  0.00  0.00    -0.210 OA
ENDROOT
BRANCH   1   4
ATOM      3  O   UNL     1       1.385   5.287 -10.230  0.00  0.00    -0.457 OA
ATOM      4  P   UNL     1       1.281   5.815  -8.805  0.00  0.00    +0.151 P 
ATOM      5  O   UNL     1       1.487   7.488  -8.790  0.00  0.00    -0.355 OA
ATOM      6  O   UNL     1      -0.174   5.379  -8.087  0.00  0.00    -0.355 OA
ENDBRANCH   1   4
BRANCH   1   7
ATOM      7  P   UNL     1       2.226   4.890  -6.154  0.00  0.00    +0.151 P 
ATOM      8  O   UNL     1       1.355   6.259  -5.643  0.00  0.00    -0.355 OA
ATOM      9  O   UNL     1       3.600   4.684  -5.185  0.00  0.00    -0.355 OA
ATOM     10  O   UNL     1       1.330   3.661  -6.084  0.00  0.00    -0.457 OA
ENDBRANCH   1   7
BRANCH   1  11
ATOM     11  C   UNL     1       3.821   6.074  -7.950  0.00  0.00    +0.073 C 
BRANCH  11  12
ATOM     12  C   UNL     1       4.723   5.838  -9.120  0.00  0.00    +0.000 A 
ATOM     13  C   UNL     1       5.981   5.303  -8.877  0.00  0.00    +0.095 A 
ATOM     14  N   UNL     1       7.109   5.836  -9.406  0.00  0.00    -0.243 NA
ATOM     15  C   UNL     1       6.991   6.471 -10.591  0.00  0.00    +0.099 A 
ATOM     16  C   UNL     1       5.797   7.131 -10.859  0.00  0.00    +0.020 A 
ATOM     17  C   UNL     1       4.650   6.606 -10.277  0.00  0.00    -0.001 A 
ENDBRANCH  11  12
ENDBRANCH   1  11
TORSDOF 4
ENDMDL
MODEL 6
REMARK VINA RESULT:      -5.8      3.555      4.517
REMARK  Name = 
REMARK  4 active torsions:
REMARK  status: ('A' for Active; 'I' for Inactive)
REMARK    1  A    between atoms: P_2  and  C_5
REMARK    2  A    between atoms: C_5  and  C_7
REMARK    3  A    between atoms: C_5  and  P_14
REMARK    4  A    between atoms: C_7  and  C_8
REMARK                            x       y       z     vdW  Elec       q    Type
REMARK                         _______ _______ _______ _____ _____    ______ ____
ROOT
ATOM      1  C   UNL     1       1.346   5.634  -7.641  0.00  0.00    +0.220 C 
ATOM      2  O   UNL     1       1.938   4.391  -7.747  0.00  0.00    -0.210 OA
ENDROOT
BRANCH   1   4
ATOM      3  O   UNL     1       0.752   4.603  -5.232  0.00  0.00    -0.457 OA
ATOM      4  P   UNL     1       0.165   5.569  -6.252  0.00  0.00    +0.151 P 
ATOM      5  O   UNL     1      -1.278   4.955  -6.871  0.00  0.00    -0.355 OA
ATOM      6  O   UNL     1      -0.062   7.100  -5.599  0.00  0.00    -0.355 OA
ENDBRANCH   1   4
BRANCH   1   7
ATOM      7  P   UNL     1       2.619   6.865  -7.289  0.00  0.00    +0.151 P 
ATOM      8  O   UNL     1       2.905   6.898  -5.612  0.00  0.00    -0.355 OA
ATOM      9  O   UNL     1       2.139   8.399  -7.824  0.00  0.00    -0.355 OA
ATOM     10  O   UNL     1       3.881   6.414  -8.012  0.00  0.00    -0.457 OA
ENDBRANCH   1   7
BRANCH   1  11
ATOM     11  C   UNL     1       0.603   6.068  -8.862  0.00  0.00    +0.073 C 
BRANCH  11  12
ATOM     12  C   UNL     1       1.093   5.401 -10.108  0.00  0.00    +0.000 A 
ATOM     13  C   UNL     1       2.019   6.079 -10.890  0.00  0.00    +0.095 A 
ATOM     14  N   UNL     1       1.875   6.213 -12.231  0.00  0.00    -0.243 NA
ATOM     15  C   UNL     1       1.206   5.235 -12.878  0.00  0.00    +0.099 A 
ATOM     16  C   UNL     1       0.183   4.586 -12.196  0.00  0.00    +0.020 A 
ATOM     17  C   UNL     1       0.316   4.492 -10.816  0.00  0.00    -0.001 A 
ENDBRANCH  11  12
ENDBRANCH   1  11
TORSDOF 4
ENDMDL
MODEL 7
REMARK VINA RESULT:      -5.6      5.154      7.555
REMARK  Name = 
REMARK  4 active torsions:
REMARK  status: ('A' for Active; 'I' for Inactive)
REMARK    1  A    between atoms: P_2  and  C_5
REMARK    2  A    between atoms: C_5  and  C_7
REMARK    3  A    between atoms: C_5  and  P_14
REMARK    4  A    between atoms: C_7  and  C_8
REMARK                            x       y       z     vdW  Elec       q    Type
REMARK                         _______ _______ _______ _____ _____    ______ ____
ROOT
ATOM      1  C   UNL     1       1.946   5.858  -5.816  0.00  0.00    +0.220 C 
ATOM      2  O   UNL     1       1.758   4.491  -5.859  0.00  0.00    -0.210 OA
ENDROOT
BRANCH   1   4
ATOM      3  O   UNL     1       4.404   5.022  -5.125  0.00  0.00    -0.457 OA
ATOM      4  P   UNL     1       3.456   6.180  -4.844  0.00  0.00    +0.151 P 
ATOM      5  O   UNL     1       2.999   6.175  -3.221  0.00  0.00    -0.355 OA
ATOM      6  O   UNL     1       4.132   7.655  -5.277  0.00  0.00    -0.355 OA
ENDBRANCH   1   4
BRANCH   1   7
ATOM      7  P   UNL     1       2.171   6.477  -7.497  0.00  0.00    +0.151 P 
ATOM      8  O   UNL     1       3.720   6.035  -8.044  0.00  0.00    -0.355 OA
ATOM      9  O   UNL     1       1.998   8.162  -7.548  0.00  0.00    -0.355 OA
ATOM     10  O   UNL     1       1.114   5.802  -8.360  0.00  0.00    -0.457 OA
ENDBRANCH   1   7
BRANCH   1  11
ATOM     11  C   UNL     1       0.821   6.614  -5.188  0.00  0.00    +0.073 C 
BRANCH  11  12
ATOM     12  C   UNL     1      -0.278   5.722  -4.701  0.00  0.00    +0.000 A 
ATOM     13  C   UNL     1      -1.438   5.643  -5.460  0.00  0.00    +0.095 A 
ATOM     14  N   UNL     1      -2.672   5.767  -4.912  0.00  0.00    -0.243 NA
ATOM     15  C   UNL     1      -2.815   5.378  -3.628  0.00  0.00    +0.099 A 
ATOM     16  C   UNL     1      -1.729   5.534  -2.775  0.00  0.00    +0.020 A 
ATOM     17  C   UNL     1      -0.467   5.450  -3.351  0.00  0.00    -0.001 A 
ENDBRANCH  11  12
ENDBRANCH   1  11
TORSDOF 4
ENDMDL
MODEL 8
REMARK VINA RESULT:      -5.6      3.737      5.725
REMARK  Name = 
REMARK  4 active torsions:
REMARK  status: ('A' for Active; 'I' for Inactive)
REMARK    1  A    between atoms: P_2  and  C_5
REMARK    2  A    between atoms: C_5  and  C_7
REMARK    3  A    between atoms: C_5  and  P_14
REMARK    4  A    between atoms: C_7  and  C_8
REMARK                            x       y       z     vdW  Elec       q    Type
REMARK                         _______ _______ _______ _____ _____    ______ ____
ROOT
ATOM      1  C   UNL     1       1.934   6.152  -8.836  0.00  0.00    +0.220 C 
ATOM      2  O   UNL     1       1.751   7.489  -8.539  0.00  0.00    -0.210 OA
ENDROOT
BRANCH   1   4
ATOM      3  O   UNL     1       0.016   6.799 -10.602  0.00  0.00    -0.457 OA
ATOM      4  P   UNL     1       1.192   5.842 -10.474  0.00  0.00    +0.151 P 
ATOM      5  O   UNL     1       0.645   4.247 -10.464  0.00  0.00    -0.355 OA
ATOM      6  O   UNL     1       2.326   6.084 -11.689  0.00  0.00    -0.355 OA
ENDBRANCH   1   4
BRANCH   1   7
ATOM      7  P   UNL     1       3.704   5.799  -8.901  0.00  0.00    +0.151 P 
ATOM      8  O   UNL     1       4.334   5.855  -7.322  0.00  0.00    -0.355 OA
ATOM      9  O   UNL     1       4.507   6.921  -9.885  0.00  0.00    -0.355 OA
ATOM     10  O   UNL     1       3.853   4.391  -9.460  0.00  0.00    -0.457 OA
ENDBRANCH   1   7
BRANCH   1  11
ATOM     11  C   UNL     1       1.308   5.213  -7.857  0.00  0.00    +0.073 C 
BRANCH  11  12
ATOM     12  C   UNL     1       0.229   5.857  -7.044  0.00  0.00    +0.000 A 
ATOM     13  C   UNL     1       0.499   6.142  -5.712  0.00  0.00    +0.095 A 
ATOM     14  N   UNL     1      -0.351   5.801  -4.712  0.00  0.00    -0.243 NA
ATOM     15  C   UNL     1      -1.665   5.741  -5.017  0.00  0.00    +0.099 A 
ATOM     16  C   UNL     1      -2.017   5.349  -6.303  0.00  0.00    +0.020 A 
ATOM     17  C   UNL     1      -1.120   5.661  -7.318  0.00  0.00    -0.001 A 
ENDBRANCH  11  12
ENDBRANCH   1  11
TORSDOF 4
ENDMDL
MODEL 9
REMARK VINA RESULT:      -5.6      4.819      6.879
REMARK  Name = 
REMARK  4 active torsions:
REMARK  status: ('A' for Active; 'I' for Inactive)
REMARK    1  A    between atoms: P_2  and  C_5
REMARK    2  A    between atoms: C_5  and  C_7
REMARK    3  A    between atoms: C_5  and  P_14
REMARK    4  A    between atoms: C_7  and  C_8
REMARK                            x       y       z     vdW  Elec       q    Type
REMARK                         _______ _______ _______ _____ _____    ______ ____
ROOT
ATOM      1  C   UNL     1       1.718   6.149  -6.740  0.00  0.00    +0.220 C 
ATOM      2  O   UNL     1       2.316   6.778  -5.664  0.00  0.00    -0.210 OA
ENDROOT
BRANCH   1   4
ATOM      3  O   UNL     1       2.028   8.580  -7.842  0.00  0.00    -0.457 OA
ATOM      4  P   UNL     1       2.118   7.112  -8.237  0.00  0.00    +0.151 P 
ATOM      5  O   UNL     1       0.935   6.744  -9.380  0.00  0.00    -0.355 OA
ATOM      6  O   UNL     1       3.649   6.714  -8.802  0.00  0.00    -0.355 OA
ENDBRANCH   1   4
BRANCH   1   7
ATOM      7  P   UNL     1       2.393   4.482  -6.899  0.00  0.00    +0.151 P 
ATOM      8  O   UNL     1       4.008   4.489  -6.364  0.00  0.00    -0.355 OA
ATOM      9  O   UNL     1       2.318   3.952  -8.507  0.00  0.00    -0.355 OA
ATOM     10  O   UNL     1       1.561   3.581  -5.997  0.00  0.00    -0.457 OA
ENDBRANCH   1   7
BRANCH   1  11
ATOM     11  C   UNL     1       0.231   6.043  -6.640  0.00  0.00    +0.073 C 
BRANCH  11  12
ATOM     12  C   UNL     1      -0.296   6.492  -5.313  0.00  0.00    +0.000 A 
ATOM     13  C   UNL     1      -0.734   5.521  -4.423  0.00  0.00    +0.095 A 
ATOM     14  N   UNL     1      -1.928   5.607  -3.787  0.00  0.00    -0.243 NA
ATOM     15  C   UNL     1      -2.407   6.846  -3.545  0.00  0.00    +0.099 A 
ATOM     16  C   UNL     1      -2.105   7.850  -4.458  0.00  0.00    +0.020 A 
ATOM     17  C   UNL     1      -0.900   7.732  -5.139  0.00  0.00    -0.001 A 
ENDBRANCH  11  12
ENDBRANCH   1  11
TORSDOF 4
ENDMDL
