MODEL 1
REMARK VINA RESULT:     -10.5      0.000      0.000
REMARK  Name = 
REMARK  13 active torsions:
REMARK  status: ('A' for Active; 'I' for Inactive)
REMARK    1  A    between atoms: C_6  and  C_7
REMARK    2  A    between atoms: C_7  and  N_8
REMARK    3  A    between atoms: N_11  and  C_12
REMARK    4  A    between atoms: C_15  and  C_16
REMARK    5  A    between atoms: N_18  and  S_19
REMARK    6  A    between atoms: S_19  and  C_22
REMARK    7  A    between atoms: C_25  and  N_26
REMARK    8  A    between atoms: N_26  and  C_27
REMARK    9  A    between atoms: C_27  and  C_28
REMARK   10  A    between atoms: C_34  and  N_35
REMARK   11  A    between atoms: C_39  and  O_40
REMARK   12  A    between atoms: O_40  and  C_41
REMARK   13  A    between atoms: C_53  and  C_54
REMARK                            x       y       z     vdW  Elec       q    Type
REMARK                         _______ _______ _______ _____ _____    ______ ____
ROOT
ATOM      1  C   UNL     1       3.347   5.631  -3.057  0.00  0.00    +0.051 A 
ATOM      2  C   UNL     1       1.981   5.845  -2.927  0.00  0.00    +0.052 A 
ATOM      3  C   UNL     1       1.457   6.270  -1.713  0.00  0.00    +0.151 A 
ATOM      4  C   UNL     1       2.264   6.452  -0.596  0.00  0.00    +0.091 A 
ATOM      5  C   UNL     1       3.507   5.833  -0.660  0.00  0.00    +0.009 A 
ATOM      6  C   UNL     1       4.023   5.384  -1.869  0.00  0.00    +0.015 A 
ENDROOT
BRANCH   1  10
ATOM      7  N   UNL     1       2.458   5.605  -6.460  0.00  0.00    -0.266 NA
ATOM      8  C   UNL     1       3.100   4.493  -5.813  0.00  0.00    +0.094 C 
ATOM      9  C   UNL     1       4.400   4.882  -5.127  0.00  0.00    +0.108 C 
ATOM     10  N   UNL     1       4.063   5.998  -4.244  0.00  0.00    -0.305 N 
ATOM     11  C   UNL     1       3.567   7.187  -4.932  0.00  0.00    +0.108 C 
ATOM     12  C   UNL     1       2.279   6.754  -5.616  0.00  0.00    +0.094 C 
BRANCH   7  13
ATOM     13  C   UNL     1       3.067   5.976  -7.713  0.00  0.00    +0.095 C 
BRANCH  13  18
ATOM     14  C   UNL     1       0.416   4.739 -12.013  0.00  0.00    +0.000 C 
ATOM     15  C   UNL     1       0.402   5.769 -10.909  0.00  0.00    +0.004 C 
ATOM     16  C   UNL     1       1.517   6.770 -11.031  0.00  0.00    +0.026 C 
ATOM     17  C   UNL     1       2.494   6.696  -9.926  0.00  0.00    -0.029 C 
ATOM     18  C   UNL     1       2.071   6.511  -8.675  0.00  0.00    -0.032 C 
ATOM     19  C   UNL     1       0.658   6.051  -8.495  0.00  0.00    +0.023 C 
ATOM     20  C   UNL     1       0.387   5.049  -9.589  0.00  0.00    +0.005 C 
ATOM     21  C   UNL     1      -0.907   6.537 -11.013  0.00  0.00    +0.000 C 
BRANCH  17  22
ATOM     22  C   UNL     1       3.892   6.437 -10.291  0.00  0.00    -0.004 A 
ATOM     23  C   UNL     1       4.327   5.242 -10.800  0.00  0.00    +0.001 A 
ATOM     24  C   UNL     1       5.432   5.210 -11.641  0.00  0.00    +0.011 A 
ATOM     25  C   UNL     1       6.050   6.398 -12.012  0.00  0.00    +0.058 A 
ATOM     26 CL   UNL     1       7.268   6.461 -13.268  0.00  0.00    -0.082 Cl
ATOM     27  C   UNL     1       5.904   7.446 -11.113  0.00  0.00    +0.011 A 
ATOM     28  C   UNL     1       4.772   7.494 -10.308  0.00  0.00    +0.001 A 
ENDBRANCH  17  22
ENDBRANCH  13  18
ENDBRANCH   7  13
ENDBRANCH   1  10
BRANCH   4  29
ATOM     29  C   UNL     1       2.056   7.567   0.338  0.00  0.00    +0.289 C 
ATOM     30  N   UNL     1       2.801   8.764   0.082  0.00  0.00    -0.055 NA
ATOM     31  O   UNL     1       1.992   7.232   1.560  0.00  0.00    -0.267 OA
BRANCH  30  32
ATOM     32  S   UNL     1       3.113   9.947   1.289  0.00  0.00    +0.096 S 
ATOM     33  O   UNL     1       1.869  10.380   1.990  0.00  0.00    -0.148 OA
ATOM     34  O   UNL     1       4.042   9.339   2.300  0.00  0.00    -0.148 OA
BRANCH  32  35
ATOM     35  C   UNL     1       3.957  11.270   0.540  0.00  0.00    +0.133 A 
ATOM     36  C   UNL     1       5.122  11.709   1.156  0.00  0.00    +0.097 A 
ATOM     37  C   UNL     1       5.696  12.901   0.809  0.00  0.00    +0.306 A 
ATOM     38  C   UNL     1       5.205  13.583  -0.297  0.00  0.00    +0.135 A 
ATOM     39  C   UNL     1       4.244  12.956  -1.068  0.00  0.00    +0.024 A 
ATOM     40  C   UNL     1       3.709  11.722  -0.731  0.00  0.00    +0.022 A 
BRANCH  37  41
ATOM     41  N   UNL     1       6.733  13.514   1.582  0.00  0.00    +0.082 N 
ATOM     42  O   UNL     1       6.522  13.806   2.916  0.00  0.00    -0.576 OA
ATOM     43  O   UNL     1       7.917  13.241   1.263  0.00  0.00    +0.042 OA
ENDBRANCH  37  41
BRANCH  38  44
ATOM     44  N   UNL     1       5.350  15.003  -0.412  0.00  0.00    -0.232 NA
BRANCH  44  45
ATOM     45  C   UNL     1       6.037  15.580  -1.563  0.00  0.00    +0.113 C 
BRANCH  45  46
ATOM     46  C   UNL     1       7.248  14.753  -1.927  0.00  0.00    +0.027 C 
ATOM     47  C   UNL     1       8.516  15.466  -1.551  0.00  0.00    +0.034 C 
ATOM     48  C   UNL     1       9.277  15.966  -2.761  0.00  0.00    +0.142 C 
ATOM     49  O   UNL     1       8.344  16.399  -3.705  0.00  0.00    -0.354 OA
ATOM     50  C   UNL     1       7.727  15.327  -4.326  0.00  0.00    +0.142 C 
ATOM     51  C   UNL     1       7.222  14.292  -3.357  0.00  0.00    +0.034 C 
ENDBRANCH  45  46
ENDBRANCH  44  45
ENDBRANCH  38  44
ENDBRANCH  32  35
ENDBRANCH  30  32
ENDBRANCH   4  29
BRANCH   3  52
ATOM     52  O   UNL     1       0.191   6.858  -1.634  0.00  0.00    -0.452 OA
BRANCH  52  53
ATOM     53  C   UNL     1      -0.848   6.531  -2.481  0.00  0.00    +0.164 A 
ATOM     54  C   UNL     1      -0.943   7.007  -3.780  0.00  0.00    +0.042 A 
ATOM     55  C   UNL     1      -1.882   6.420  -4.616  0.00  0.00    +0.040 A 
ATOM     56  C   UNL     1      -2.559   5.276  -4.224  0.00  0.00    +0.163 A 
ATOM     57  N   UNL     1      -3.097   4.685  -5.317  0.00  0.00    -0.225 NA
ATOM     58  C   UNL     1      -3.035   5.536  -6.362  0.00  0.00    +0.101 A 
ATOM     59  N   UNL     1      -2.549   4.938  -2.920  0.00  0.00    -0.222 NA
ATOM     60  C   UNL     1      -2.235   6.591  -5.948  0.00  0.00    +0.024 A 
ATOM     61  C   UNL     1      -1.693   5.509  -2.068  0.00  0.00    +0.138 A 
ENDBRANCH  52  53
ENDBRANCH   3  52
TORSDOF 13
ENDMDL
MODEL 2
REMARK VINA RESULT:      -9.9      1.574      2.023
REMARK  Name = 
REMARK  13 active torsions:
REMARK  status: ('A' for Active; 'I' for Inactive)
REMARK    1  A    between atoms: C_6  and  C_7
REMARK    2  A    between atoms: C_7  and  N_8
REMARK    3  A    between atoms: N_11  and  C_12
REMARK    4  A    between atoms: C_15  and  C_16
REMARK    5  A    between atoms: N_18  and  S_19
REMARK    6  A    between atoms: S_19  and  C_22
REMARK    7  A    between atoms: C_25  and  N_26
REMARK    8  A    between atoms: N_26  and  C_27
REMARK    9  A    between atoms: C_27  and  C_28
REMARK   10  A    between atoms: C_34  and  N_35
REMARK   11  A    between atoms: C_39  and  O_40
REMARK   12  A    between atoms: O_40  and  C_41
REMARK   13  A    between atoms: C_53  and  C_54
REMARK                            x       y       z     vdW  Elec       q    Type
REMARK                         _______ _______ _______ _____ _____    ______ ____
ROOT
ATOM      1  C   UNL     1       3.470   5.804  -2.984  0.00  0.00    +0.051 A 
ATOM      2  C   UNL     1       2.099   5.976  -2.836  0.00  0.00    +0.052 A 
ATOM      3  C   UNL     1       1.578   6.395  -1.619  0.00  0.00    +0.151 A 
ATOM      4  C   UNL     1       2.394   6.610  -0.515  0.00  0.00    +0.091 A 
ATOM      5  C   UNL     1       3.655   6.031  -0.591  0.00  0.00    +0.009 A 
ATOM      6  C   UNL     1       4.169   5.588  -1.802  0.00  0.00    +0.015 A 
ENDROOT
BRANCH   1  10
ATOM      7  N   UNL     1       2.575   5.633  -6.381  0.00  0.00    -0.266 NA
ATOM      8  C   UNL     1       3.286   4.581  -5.707  0.00  0.00    +0.094 C 
ATOM      9  C   UNL     1       4.561   5.069  -5.038  0.00  0.00    +0.108 C 
ATOM     10  N   UNL     1       4.158   6.184  -4.183  0.00  0.00    -0.305 N 
ATOM     11  C   UNL     1       3.586   7.321  -4.900  0.00  0.00    +0.108 C 
ATOM     12  C   UNL     1       2.326   6.791  -5.566  0.00  0.00    +0.094 C 
BRANCH   7  13
ATOM     13  C   UNL     1       3.156   6.008  -7.645  0.00  0.00    +0.095 C 
BRANCH  13  18
ATOM     14  C   UNL     1       0.421   4.690 -11.869  0.00  0.00    +0.000 C 
ATOM     15  C   UNL     1       0.423   5.735 -10.779  0.00  0.00    +0.004 C 
ATOM     16  C   UNL     1       1.526   6.743 -10.939  0.00  0.00    +0.026 C 
ATOM     17  C   UNL     1       2.528   6.693  -9.855  0.00  0.00    -0.029 C 
ATOM     18  C   UNL     1       2.134   6.522  -8.593  0.00  0.00    -0.032 C 
ATOM     19  C   UNL     1       0.730   6.053  -8.375  0.00  0.00    +0.023 C 
ATOM     20  C   UNL     1       0.443   5.034  -9.449  0.00  0.00    +0.005 C 
ATOM     21  C   UNL     1      -0.894   6.491 -10.865  0.00  0.00    +0.000 C 
BRANCH  17  22
ATOM     22  C   UNL     1       3.920   6.439 -10.248  0.00  0.00    -0.004 A 
ATOM     23  C   UNL     1       4.352   5.243 -10.757  0.00  0.00    +0.001 A 
ATOM     24  C   UNL     1       5.439   5.212 -11.620  0.00  0.00    +0.011 A 
ATOM     25  C   UNL     1       6.042   6.401 -12.013  0.00  0.00    +0.058 A 
ATOM     26 CL   UNL     1       7.233   6.462 -13.294  0.00  0.00    -0.082 Cl
ATOM     27  C   UNL     1       5.908   7.455 -11.118  0.00  0.00    +0.011 A 
ATOM     28  C   UNL     1       4.793   7.502 -10.290  0.00  0.00    +0.001 A 
ENDBRANCH  17  22
ENDBRANCH  13  18
ENDBRANCH   7  13
ENDBRANCH   1  10
BRANCH   4  29
ATOM     29  C   UNL     1       2.164   7.726   0.413  0.00  0.00    +0.289 C 
ATOM     30  N   UNL     1       3.268   8.611   0.639  0.00  0.00    -0.055 NA
ATOM     31  O   UNL     1       1.504   7.425   1.454  0.00  0.00    -0.267 OA
BRANCH  30  32
ATOM     32  S   UNL     1       3.393   9.617   2.026  0.00  0.00    +0.096 S 
ATOM     33  O   UNL     1       2.061  10.108   2.488  0.00  0.00    -0.148 OA
ATOM     34  O   UNL     1       4.009   8.805   3.130  0.00  0.00    -0.148 OA
BRANCH  32  35
ATOM     35  C   UNL     1       4.495  10.910   1.657  0.00  0.00    +0.133 A 
ATOM     36  C   UNL     1       4.049  11.892   0.782  0.00  0.00    +0.097 A 
ATOM     37  C   UNL     1       4.923  12.783   0.221  0.00  0.00    +0.306 A 
ATOM     38  C   UNL     1       6.233  12.814   0.679  0.00  0.00    +0.135 A 
ATOM     39  C   UNL     1       6.555  12.029   1.770  0.00  0.00    +0.024 A 
ATOM     40  C   UNL     1       5.642  11.169   2.362  0.00  0.00    +0.022 A 
BRANCH  37  41
ATOM     41  N   UNL     1       4.563  13.635  -0.872  0.00  0.00    +0.082 N 
ATOM     42  O   UNL     1       3.677  13.189  -1.835  0.00  0.00    -0.576 OA
ATOM     43  O   UNL     1       4.552  14.871  -0.649  0.00  0.00    +0.042 OA
ENDBRANCH  37  41
BRANCH  38  44
ATOM     44  N   UNL     1       7.296  13.284  -0.158  0.00  0.00    -0.232 NA
BRANCH  44  45
ATOM     45  C   UNL     1       8.560  13.714   0.431  0.00  0.00    +0.113 C 
BRANCH  45  46
ATOM     46  C   UNL     1       9.717  12.975  -0.202  0.00  0.00    +0.027 C 
ATOM     47  C   UNL     1      10.687  12.503   0.844  0.00  0.00    +0.034 C 
ATOM     48  C   UNL     1      11.988  13.278   0.817  0.00  0.00    +0.142 C 
ATOM     49  O   UNL     1      11.686  14.610   0.522  0.00  0.00    -0.354 OA
ATOM     50  C   UNL     1      11.369  14.765  -0.816  0.00  0.00    +0.142 C 
ATOM     51  C   UNL     1      10.364  13.760  -1.308  0.00  0.00    +0.034 C 
ENDBRANCH  45  46
ENDBRANCH  44  45
ENDBRANCH  38  44
ENDBRANCH  32  35
ENDBRANCH  30  32
ENDBRANCH   4  29
BRANCH   3  52
ATOM     52  O   UNL     1       0.296   6.943  -1.527  0.00  0.00    -0.452 OA
BRANCH  52  53
ATOM     53  C   UNL     1      -0.736   6.598  -2.376  0.00  0.00    +0.164 A 
ATOM     54  C   UNL     1      -0.835   7.067  -3.677  0.00  0.00    +0.042 A 
ATOM     55  C   UNL     1      -1.762   6.462  -4.513  0.00  0.00    +0.040 A 
ATOM     56  C   UNL     1      -2.423   5.310  -4.118  0.00  0.00    +0.163 A 
ATOM     57  N   UNL     1      -2.950   4.708  -5.210  0.00  0.00    -0.225 NA
ATOM     58  C   UNL     1      -2.898   5.555  -6.258  0.00  0.00    +0.101 A 
ATOM     59  N   UNL     1      -2.412   4.978  -2.813  0.00  0.00    -0.222 NA
ATOM     60  C   UNL     1      -2.115   6.623  -5.847  0.00  0.00    +0.024 A 
ATOM     61  C   UNL     1      -1.567   5.565  -1.961  0.00  0.00    +0.138 A 
ENDBRANCH  52  53
ENDBRANCH   3  52
TORSDOF 13
ENDMDL
MODEL 3
REMARK VINA RESULT:      -9.8      5.431     11.676
REMARK  Name = 
REMARK  13 active torsions:
REMARK  status: ('A' for Active; 'I' for Inactive)
REMARK    1  A    between atoms: C_6  and  C_7
REMARK    2  A    between atoms: C_7  and  N_8
REMARK    3  A    between atoms: N_11  and  C_12
REMARK    4  A    between atoms: C_15  and  C_16
REMARK    5  A    between atoms: N_18  and  S_19
REMARK    6  A    between atoms: S_19  and  C_22
REMARK    7  A    between atoms: C_25  and  N_26
REMARK    8  A    between atoms: N_26  and  C_27
REMARK    9  A    between atoms: C_27  and  C_28
REMARK   10  A    between atoms: C_34  and  N_35
REMARK   11  A    between atoms: C_39  and  O_40
REMARK   12  A    between atoms: O_40  and  C_41
REMARK   13  A    between atoms: C_53  and  C_54
REMARK                            x       y       z     vdW  Elec       q    Type
REMARK                         _______ _______ _______ _____ _____    ______ ____
ROOT
ATOM      1  C   UNL     1       3.829   7.274  -2.858  0.00  0.00    +0.051 A 
ATOM      2  C   UNL     1       2.631   7.190  -3.557  0.00  0.00    +0.052 A 
ATOM      3  C   UNL     1       2.637   6.898  -4.914  0.00  0.00    +0.151 A 
ATOM      4  C   UNL     1       3.825   6.726  -5.615  0.00  0.00    +0.091 A 
ATOM      5  C   UNL     1       4.959   7.227  -4.987  0.00  0.00    +0.009 A 
ATOM      6  C   UNL     1       4.949   7.544  -3.635  0.00  0.00    +0.015 A 
ENDROOT
BRANCH   1  10
ATOM      7  N   UNL     1       1.819   7.576   0.013  0.00  0.00    -0.266 NA
ATOM      8  C   UNL     1       2.891   8.486  -0.289  0.00  0.00    +0.094 C 
ATOM      9  C   UNL     1       4.220   7.778  -0.503  0.00  0.00    +0.108 C 
ATOM     10  N   UNL     1       3.967   6.764  -1.525  0.00  0.00    -0.305 N 
ATOM     11  C   UNL     1       2.994   5.744  -1.140  0.00  0.00    +0.108 C 
ATOM     12  C   UNL     1       1.688   6.492  -0.921  0.00  0.00    +0.094 C 
BRANCH   7  13
ATOM     13  C   UNL     1       1.837   7.089   1.369  0.00  0.00    +0.095 C 
BRANCH  13  18
ATOM     14  C   UNL     1      -2.015  10.544   1.901  0.00  0.00    +0.000 C 
ATOM     15  C   UNL     1      -1.732   9.086   2.172  0.00  0.00    +0.004 C 
ATOM     16  C   UNL     1      -0.804   8.879   3.336  0.00  0.00    +0.026 C 
ATOM     17  C   UNL     1       0.493   8.285   2.954  0.00  0.00    -0.029 C 
ATOM     18  C   UNL     1       0.535   7.305   2.051  0.00  0.00    -0.032 C 
ATOM     19  C   UNL     1      -0.693   7.087   1.224  0.00  0.00    +0.023 C 
ATOM     20  C   UNL     1      -1.243   8.453   0.898  0.00  0.00    +0.005 C 
ATOM     21  C   UNL     1      -3.052   8.418   2.524  0.00  0.00    +0.000 C 
BRANCH  17  22
ATOM     22  C   UNL     1       1.700   9.054   3.284  0.00  0.00    -0.004 A 
ATOM     23  C   UNL     1       2.853   8.480   3.750  0.00  0.00    +0.001 A 
ATOM     24  C   UNL     1       4.077   9.087   3.500  0.00  0.00    +0.011 A 
ATOM     25  C   UNL     1       4.129  10.238   2.723  0.00  0.00    +0.058 A 
ATOM     26 CL   UNL     1       5.641  10.903   2.145  0.00  0.00    -0.082 Cl
ATOM     27  C   UNL     1       2.972  11.006   2.725  0.00  0.00    +0.011 A 
ATOM     28  C   UNL     1       1.747  10.383   2.931  0.00  0.00    +0.001 A 
ENDBRANCH  17  22
ENDBRANCH  13  18
ENDBRANCH   7  13
ENDBRANCH   1  10
BRANCH   4  29
ATOM     29  C   UNL     1       3.968   5.701  -6.658  0.00  0.00    +0.289 C 
ATOM     30  N   UNL     1       3.766   6.130  -8.011  0.00  0.00    -0.055 NA
ATOM     31  O   UNL     1       3.451   4.578  -6.375  0.00  0.00    -0.267 OA
BRANCH  30  32
ATOM     32  S   UNL     1       3.367   5.049  -9.285  0.00  0.00    +0.096 S 
ATOM     33  O   UNL     1       3.712   3.635  -8.955  0.00  0.00    -0.148 OA
ATOM     34  O   UNL     1       1.886   5.136  -9.516  0.00  0.00    -0.148 OA
BRANCH  32  35
ATOM     35  C   UNL     1       4.151   5.610 -10.732  0.00  0.00    +0.133 A 
ATOM     36  C   UNL     1       3.410   5.582 -11.906  0.00  0.00    +0.097 A 
ATOM     37  C   UNL     1       4.016   5.735 -13.124  0.00  0.00    +0.306 A 
ATOM     38  C   UNL     1       5.353   6.106 -13.165  0.00  0.00    +0.135 A 
ATOM     39  C   UNL     1       5.971   6.427 -11.971  0.00  0.00    +0.024 A 
ATOM     40  C   UNL     1       5.327   6.317 -10.747  0.00  0.00    +0.022 A 
BRANCH  37  41
ATOM     41  N   UNL     1       3.348   5.456 -14.360  0.00  0.00    +0.082 N 
ATOM     42  O   UNL     1       2.738   4.232 -14.557  0.00  0.00    -0.576 OA
ATOM     43  O   UNL     1       2.823   6.431 -14.954  0.00  0.00    +0.042 OA
ENDBRANCH  37  41
BRANCH  38  44
ATOM     44  N   UNL     1       6.175   5.777 -14.290  0.00  0.00    -0.232 NA
BRANCH  44  45
ATOM     45  C   UNL     1       6.952   6.814 -14.960  0.00  0.00    +0.113 C 
BRANCH  45  46
ATOM     46  C   UNL     1       6.780   6.719 -16.458  0.00  0.00    +0.027 C 
ATOM     47  C   UNL     1       7.952   7.334 -17.172  0.00  0.00    +0.034 C 
ATOM     48  C   UNL     1       7.595   8.641 -17.847  0.00  0.00    +0.142 C 
ATOM     49  O   UNL     1       6.694   9.317 -17.021  0.00  0.00    -0.354 OA
ATOM     50  C   UNL     1       5.435   8.746 -17.085  0.00  0.00    +0.142 C 
ATOM     51  C   UNL     1       5.453   7.251 -16.920  0.00  0.00    +0.034 C 
ENDBRANCH  45  46
ENDBRANCH  44  45
ENDBRANCH  38  44
ENDBRANCH  32  35
ENDBRANCH  30  32
ENDBRANCH   4  29
BRANCH   3  52
ATOM     52  O   UNL     1       1.491   6.430  -5.563  0.00  0.00    -0.452 OA
BRANCH  52  53
ATOM     53  C   UNL     1       0.235   6.462  -4.993  0.00  0.00    +0.164 A 
ATOM     54  C   UNL     1      -0.186   5.549  -4.037  0.00  0.00    +0.042 A 
ATOM     55  C   UNL     1      -1.362   5.825  -3.355  0.00  0.00    +0.040 A 
ATOM     56  C   UNL     1      -1.985   7.055  -3.489  0.00  0.00    +0.163 A 
ATOM     57  N   UNL     1      -2.850   7.226  -2.462  0.00  0.00    -0.225 NA
ATOM     58  C   UNL     1      -3.021   6.052  -1.820  0.00  0.00    +0.101 A 
ATOM     59  N   UNL     1      -1.635   7.844  -4.523  0.00  0.00    -0.222 NA
ATOM     60  C   UNL     1      -2.061   5.192  -2.334  0.00  0.00    +0.024 A 
ATOM     61  C   UNL     1      -0.534   7.593  -5.237  0.00  0.00    +0.138 A 
ENDBRANCH  52  53
ENDBRANCH   3  52
TORSDOF 13
ENDMDL
MODEL 4
REMARK VINA RESULT:      -9.7      7.721     13.139
REMARK  Name = 
REMARK  13 active torsions:
REMARK  status: ('A' for Active; 'I' for Inactive)
REMARK    1  A    between atoms: C_6  and  C_7
REMARK    2  A    between atoms: C_7  and  N_8
REMARK    3  A    between atoms: N_11  and  C_12
REMARK    4  A    between atoms: C_15  and  C_16
REMARK    5  A    between atoms: N_18  and  S_19
REMARK    6  A    between atoms: S_19  and  C_22
REMARK    7  A    between atoms: C_25  and  N_26
REMARK    8  A    between atoms: N_26  and  C_27
REMARK    9  A    between atoms: C_27  and  C_28
REMARK   10  A    between atoms: C_34  and  N_35
REMARK   11  A    between atoms: C_39  and  O_40
REMARK   12  A    between atoms: O_40  and  C_41
REMARK   13  A    between atoms: C_53  and  C_54
REMARK                            x       y       z     vdW  Elec       q    Type
REMARK                         _______ _______ _______ _____ _____    ______ ____
ROOT
ATOM      1  C   UNL     1       1.283   6.392 -11.435  0.00  0.00    +0.051 A 
ATOM      2  C   UNL     1       2.236   5.756 -12.220  0.00  0.00    +0.052 A 
ATOM      3  C   UNL     1       2.280   5.993 -13.588  0.00  0.00    +0.151 A 
ATOM      4  C   UNL     1       1.361   6.828 -14.211  0.00  0.00    +0.091 A 
ATOM      5  C   UNL     1       0.209   7.089 -13.478  0.00  0.00    +0.009 A 
ATOM      6  C   UNL     1       0.153   6.829 -12.115  0.00  0.00    +0.015 A 
ENDROOT
BRANCH   1  10
ATOM      7  N   UNL     1       0.994   4.964  -8.234  0.00  0.00    -0.266 NA
ATOM      8  C   UNL     1      -0.050   5.748  -8.836  0.00  0.00    +0.094 C 
ATOM      9  C   UNL     1       0.425   7.124  -9.272  0.00  0.00    +0.108 C 
ATOM     10  N   UNL     1       1.588   6.889 -10.125  0.00  0.00    -0.305 N 
ATOM     11  C   UNL     1       2.711   6.239  -9.454  0.00  0.00    +0.108 C 
ATOM     12  C   UNL     1       2.193   4.877  -9.021  0.00  0.00    +0.094 C 
BRANCH   7  13
ATOM     13  C   UNL     1       1.295   5.345  -6.877  0.00  0.00    +0.095 C 
BRANCH  13  18
ATOM     14  C   UNL     1      -1.837   7.341  -3.236  0.00  0.00    +0.000 C 
ATOM     15  C   UNL     1      -1.720   6.112  -4.106  0.00  0.00    +0.004 C 
ATOM     16  C   UNL     1      -0.623   5.186  -3.662  0.00  0.00    +0.026 C 
ATOM     17  C   UNL     1       0.474   5.064  -4.643  0.00  0.00    -0.029 C 
ATOM     18  C   UNL     1       0.197   4.986  -5.945  0.00  0.00    -0.032 C 
ATOM     19  C   UNL     1      -1.187   5.363  -6.370  0.00  0.00    +0.023 C 
ATOM     20  C   UNL     1      -1.586   6.555  -5.537  0.00  0.00    +0.005 C 
ATOM     21  C   UNL     1      -3.029   5.346  -3.997  0.00  0.00    +0.000 C 
BRANCH  17  22
ATOM     22  C   UNL     1       1.820   5.428  -4.182  0.00  0.00    -0.004 A 
ATOM     23  C   UNL     1       2.956   4.784  -4.597  0.00  0.00    +0.001 A 
ATOM     24  C   UNL     1       4.165   5.467  -4.629  0.00  0.00    +0.011 A 
ATOM     25  C   UNL     1       4.203   6.817  -4.302  0.00  0.00    +0.058 A 
ATOM     26 CL   UNL     1       5.624   7.801  -4.575  0.00  0.00    -0.082 Cl
ATOM     27  C   UNL     1       3.196   7.247  -3.447  0.00  0.00    +0.011 A 
ATOM     28  C   UNL     1       1.974   6.585  -3.455  0.00  0.00    +0.001 A 
ENDBRANCH  17  22
ENDBRANCH  13  18
ENDBRANCH   7  13
ENDBRANCH   1  10
BRANCH   4  29
ATOM     29  C   UNL     1       1.751   7.740 -15.295  0.00  0.00    +0.289 C 
ATOM     30  N   UNL     1       0.940   8.906 -15.476  0.00  0.00    -0.055 NA
ATOM     31  O   UNL     1       2.104   7.166 -16.371  0.00  0.00    -0.267 OA
BRANCH  30  32
ATOM     32  S   UNL     1       0.886   9.789 -16.949  0.00  0.00    +0.096 S 
ATOM     33  O   UNL     1       2.247  10.032 -17.512  0.00  0.00    -0.148 OA
ATOM     34  O   UNL     1       0.098   8.982 -17.942  0.00  0.00    -0.148 OA
BRANCH  32  35
ATOM     35  C   UNL     1       0.005  11.261 -16.663  0.00  0.00    +0.133 A 
ATOM     36  C   UNL     1       0.314  11.971 -15.511  0.00  0.00    +0.097 A 
ATOM     37  C   UNL     1      -0.502  12.974 -15.062  0.00  0.00    +0.306 A 
ATOM     38  C   UNL     1      -1.546  13.400 -15.872  0.00  0.00    +0.135 A 
ATOM     39  C   UNL     1      -1.629  12.875 -17.149  0.00  0.00    +0.024 A 
ATOM     40  C   UNL     1      -0.760  11.896 -17.608  0.00  0.00    +0.022 A 
BRANCH  37  41
ATOM     41  N   UNL     1      -0.371  13.552 -13.759  0.00  0.00    +0.082 N 
ATOM     42  O   UNL     1       0.114  14.838 -13.616  0.00  0.00    -0.576 OA
ATOM     43  O   UNL     1      -1.195  13.178 -12.887  0.00  0.00    +0.042 OA
ENDBRANCH  37  41
BRANCH  38  44
ATOM     44  N   UNL     1      -2.713  14.011 -15.311  0.00  0.00    -0.232 NA
BRANCH  44  45
ATOM     45  C   UNL     1      -4.020  13.383 -15.470  0.00  0.00    +0.113 C 
BRANCH  45  46
ATOM     46  C   UNL     1      -4.854  13.574 -14.225  0.00  0.00    +0.027 C 
ATOM     47  C   UNL     1      -6.318  13.422 -14.532  0.00  0.00    +0.034 C 
ATOM     48  C   UNL     1      -7.060  14.740 -14.469  0.00  0.00    +0.142 C 
ATOM     49  O   UNL     1      -6.216  15.731 -14.975  0.00  0.00    -0.354 OA
ATOM     50  C   UNL     1      -5.224  16.054 -14.066  0.00  0.00    +0.142 C 
ATOM     51  C   UNL     1      -4.524  14.849 -13.500  0.00  0.00    +0.034 C 
ENDBRANCH  45  46
ENDBRANCH  44  45
ENDBRANCH  38  44
ENDBRANCH  32  35
ENDBRANCH  30  32
ENDBRANCH   4  29
BRANCH   3  52
ATOM     52  O   UNL     1       3.421   5.698 -14.340  0.00  0.00    -0.452 OA
BRANCH  52  53
ATOM     53  C   UNL     1       4.701   5.994 -13.919  0.00  0.00    +0.164 A 
ATOM     54  C   UNL     1       5.161   5.715 -12.641  0.00  0.00    +0.042 A 
ATOM     55  C   UNL     1       6.524   5.822 -12.408  0.00  0.00    +0.040 A 
ATOM     56  C   UNL     1       7.408   6.011 -13.458  0.00  0.00    +0.163 A 
ATOM     57  N   UNL     1       8.657   5.692 -13.046  0.00  0.00    -0.225 NA
ATOM     58  C   UNL     1       8.669   5.568 -11.703  0.00  0.00    +0.101 A 
ATOM     59  N   UNL     1       6.919   6.421 -14.644  0.00  0.00    -0.222 NA
ATOM     60  C   UNL     1       7.340   5.594 -11.306  0.00  0.00    +0.024 A 
ATOM     61  C   UNL     1       5.608   6.379 -14.899  0.00  0.00    +0.138 A 
ENDBRANCH  52  53
ENDBRANCH   3  52
TORSDOF 13
ENDMDL
MODEL 5
REMARK VINA RESULT:      -9.7      1.556      2.894
REMARK  Name = 
REMARK  13 active torsions:
REMARK  status: ('A' for Active; 'I' for Inactive)
REMARK    1  A    between atoms: C_6  and  C_7
REMARK    2  A    between atoms: C_7  and  N_8
REMARK    3  A    between atoms: N_11  and  C_12
REMARK    4  A    between atoms: C_15  and  C_16
REMARK    5  A    between atoms: N_18  and  S_19
REMARK    6  A    between atoms: S_19  and  C_22
REMARK    7  A    between atoms: C_25  and  N_26
REMARK    8  A    between atoms: N_26  and  C_27
REMARK    9  A    between atoms: C_27  and  C_28
REMARK   10  A    between atoms: C_34  and  N_35
REMARK   11  A    between atoms: C_39  and  O_40
REMARK   12  A    between atoms: O_40  and  C_41
REMARK   13  A    between atoms: C_53  and  C_54
REMARK                            x       y       z     vdW  Elec       q    Type
REMARK                         _______ _______ _______ _____ _____    ______ ____
ROOT
ATOM      1  C   UNL     1       3.427   6.484  -4.018  0.00  0.00    +0.051 A 
ATOM      2  C   UNL     1       2.217   6.080  -3.468  0.00  0.00    +0.052 A 
ATOM      3  C   UNL     1       2.015   6.160  -2.096  0.00  0.00    +0.151 A 
ATOM      4  C   UNL     1       3.017   6.599  -1.239  0.00  0.00    +0.091 A 
ATOM      5  C   UNL     1       4.300   6.582  -1.773  0.00  0.00    +0.009 A 
ATOM      6  C   UNL     1       4.506   6.477  -3.142  0.00  0.00    +0.015 A 
ENDROOT
BRANCH   1  10
ATOM      7  N   UNL     1       3.499   5.410  -7.366  0.00  0.00    -0.266 NA
ATOM      8  C   UNL     1       4.690   5.635  -6.592  0.00  0.00    +0.094 C 
ATOM      9  C   UNL     1       4.747   7.032  -5.994  0.00  0.00    +0.108 C 
ATOM     10  N   UNL     1       3.495   7.199  -5.259  0.00  0.00    -0.305 N 
ATOM     11  C   UNL     1       2.293   7.134  -6.086  0.00  0.00    +0.108 C 
ATOM     12  C   UNL     1       2.280   5.733  -6.676  0.00  0.00    +0.094 C 
BRANCH   7  13
ATOM     13  C   UNL     1       3.531   6.022  -8.670  0.00  0.00    +0.095 C 
BRANCH  13  18
ATOM     14  C   UNL     1       6.367   6.929 -12.935  0.00  0.00    +0.000 C 
ATOM     15  C   UNL     1       6.340   5.996 -11.748  0.00  0.00    +0.004 C 
ATOM     16  C   UNL     1       5.241   4.973 -11.836  0.00  0.00    +0.026 C 
ATOM     17  C   UNL     1       4.213   5.127 -10.786  0.00  0.00    -0.029 C 
ATOM     18  C   UNL     1       4.576   5.422  -9.537  0.00  0.00    -0.032 C 
ATOM     19  C   UNL     1       5.974   5.914  -9.333  0.00  0.00    +0.023 C 
ATOM     20  C   UNL     1       6.286   6.825 -10.494  0.00  0.00    +0.005 C 
ATOM     21  C   UNL     1       7.659   5.240 -11.727  0.00  0.00    +0.000 C 
BRANCH  17  22
ATOM     22  C   UNL     1       2.831   5.335 -11.235  0.00  0.00    -0.004 A 
ATOM     23  C   UNL     1       1.737   4.974 -10.494  0.00  0.00    +0.001 A 
ATOM     24  C   UNL     1       0.543   5.669 -10.641  0.00  0.00    +0.011 A 
ATOM     25  C   UNL     1       0.485   6.766 -11.492  0.00  0.00    +0.058 A 
ATOM     26 CL   UNL     1      -0.894   7.844 -11.527  0.00  0.00    -0.082 Cl
ATOM     27  C   UNL     1       1.404   6.757 -12.533  0.00  0.00    +0.011 A 
ATOM     28  C   UNL     1       2.615   6.098 -12.360  0.00  0.00    +0.001 A 
ENDBRANCH  17  22
ENDBRANCH  13  18
ENDBRANCH   7  13
ENDBRANCH   1  10
BRANCH   4  29
ATOM     29  C   UNL     1       2.726   7.454  -0.080  0.00  0.00    +0.289 C 
ATOM     30  N   UNL     1       3.056   8.843  -0.207  0.00  0.00    -0.055 NA
ATOM     31  O   UNL     1       3.013   6.942   1.045  0.00  0.00    -0.267 OA
BRANCH  30  32
ATOM     32  S   UNL     1       3.294   9.876   1.144  0.00  0.00    +0.096 S 
ATOM     33  O   UNL     1       2.028  10.123   1.896  0.00  0.00    -0.148 OA
ATOM     34  O   UNL     1       4.273   9.209   2.067  0.00  0.00    -0.148 OA
BRANCH  32  35
ATOM     35  C   UNL     1       4.035  11.343   0.577  0.00  0.00    +0.133 A 
ATOM     36  C   UNL     1       5.051  11.883   1.354  0.00  0.00    +0.097 A 
ATOM     37  C   UNL     1       5.497  13.159   1.143  0.00  0.00    +0.306 A 
ATOM     38  C   UNL     1       5.051  13.847   0.023  0.00  0.00    +0.135 A 
ATOM     39  C   UNL     1       4.279  13.158  -0.893  0.00  0.00    +0.024 A 
ATOM     40  C   UNL     1       3.878  11.845  -0.690  0.00  0.00    +0.022 A 
BRANCH  37  41
ATOM     41  N   UNL     1       6.346  13.844   2.071  0.00  0.00    +0.082 N 
ATOM     42  O   UNL     1       5.796  14.538   3.132  0.00  0.00    -0.576 OA
ATOM     43  O   UNL     1       7.483  13.350   2.272  0.00  0.00    +0.042 OA
ENDBRANCH  37  41
BRANCH  38  44
ATOM     44  N   UNL     1       5.018  15.278   0.001  0.00  0.00    -0.232 NA
BRANCH  44  45
ATOM     45  C   UNL     1       4.681  15.986  -1.229  0.00  0.00    +0.113 C 
BRANCH  45  46
ATOM     46  C   UNL     1       5.894  16.702  -1.777  0.00  0.00    +0.027 C 
ATOM     47  C   UNL     1       5.557  17.434  -3.046  0.00  0.00    +0.034 C 
ATOM     48  C   UNL     1       6.171  16.784  -4.268  0.00  0.00    +0.142 C 
ATOM     49  O   UNL     1       6.125  15.400  -4.085  0.00  0.00    -0.354 OA
ATOM     50  C   UNL     1       7.082  14.985  -3.175  0.00  0.00    +0.142 C 
ATOM     51  C   UNL     1       7.086  15.796  -1.908  0.00  0.00    +0.034 C 
ENDBRANCH  45  46
ENDBRANCH  44  45
ENDBRANCH  38  44
ENDBRANCH  32  35
ENDBRANCH  30  32
ENDBRANCH   4  29
BRANCH   3  52
ATOM     52  O   UNL     1       0.730   6.139  -1.547  0.00  0.00    -0.452 OA
BRANCH  52  53
ATOM     53  C   UNL     1      -0.418   6.097  -2.313  0.00  0.00    +0.164 A 
ATOM     54  C   UNL     1      -0.460   6.513  -3.636  0.00  0.00    +0.042 A 
ATOM     55  C   UNL     1      -1.588   6.193  -4.376  0.00  0.00    +0.040 A 
ATOM     56  C   UNL     1      -2.545   5.328  -3.870  0.00  0.00    +0.163 A 
ATOM     57  N   UNL     1      -3.311   4.872  -4.889  0.00  0.00    -0.225 NA
ATOM     58  C   UNL     1      -3.075   5.609  -5.992  0.00  0.00    +0.101 A 
ATOM     59  N   UNL     1      -2.542   5.070  -2.548  0.00  0.00    -0.222 NA
ATOM     60  C   UNL     1      -1.970   6.395  -5.697  0.00  0.00    +0.024 A 
ATOM     61  C   UNL     1      -1.496   5.399  -1.785  0.00  0.00    +0.138 A 
ENDBRANCH  52  53
ENDBRANCH   3  52
TORSDOF 13
ENDMDL
MODEL 6
REMARK VINA RESULT:      -9.7      2.979      5.401
REMARK  Name = 
REMARK  13 active torsions:
REMARK  status: ('A' for Active; 'I' for Inactive)
REMARK    1  A    between atoms: C_6  and  C_7
REMARK    2  A    between atoms: C_7  and  N_8
REMARK    3  A    between atoms: N_11  and  C_12
REMARK    4  A    between atoms: C_15  and  C_16
REMARK    5  A    between atoms: N_18  and  S_19
REMARK    6  A    between atoms: S_19  and  C_22
REMARK    7  A    between atoms: C_25  and  N_26
REMARK    8  A    between atoms: N_26  and  C_27
REMARK    9  A    between atoms: C_27  and  C_28
REMARK   10  A    between atoms: C_34  and  N_35
REMARK   11  A    between atoms: C_39  and  O_40
REMARK   12  A    between atoms: O_40  and  C_41
REMARK   13  A    between atoms: C_53  and  C_54
REMARK                            x       y       z     vdW  Elec       q    Type
REMARK                         _______ _______ _______ _____ _____    ______ ____
ROOT
ATOM      1  C   UNL     1       0.742   4.895  -7.286  0.00  0.00    +0.051 A 
ATOM      2  C   UNL     1      -0.004   5.541  -6.308  0.00  0.00    +0.052 A 
ATOM      3  C   UNL     1       0.473   5.617  -5.006  0.00  0.00    +0.151 A 
ATOM      4  C   UNL     1       1.674   5.023  -4.637  0.00  0.00    +0.091 A 
ATOM      5  C   UNL     1       2.151   4.060  -5.517  0.00  0.00    +0.009 A 
ATOM      6  C   UNL     1       1.658   3.964  -6.812  0.00  0.00    +0.015 A 
ENDROOT
BRANCH   1  10
ATOM      7  N   UNL     1       3.354   6.460  -9.048  0.00  0.00    -0.266 NA
ATOM      8  C   UNL     1       2.364   7.193  -8.306  0.00  0.00    +0.094 C 
ATOM      9  C   UNL     1       0.943   6.854  -8.727  0.00  0.00    +0.108 C 
ATOM     10  N   UNL     1       0.837   5.399  -8.625  0.00  0.00    -0.305 N 
ATOM     11  C   UNL     1       1.735   4.662  -9.510  0.00  0.00    +0.108 C 
ATOM     12  C   UNL     1       3.140   5.039  -9.069  0.00  0.00    +0.094 C 
BRANCH   7  13
ATOM     13  C   UNL     1       3.573   6.967 -10.379  0.00  0.00    +0.095 C 
BRANCH  13  18
ATOM     14  C   UNL     1       6.390   6.931 -14.752  0.00  0.00    +0.000 C 
ATOM     15  C   UNL     1       6.366   6.273 -13.393  0.00  0.00    +0.004 C 
ATOM     16  C   UNL     1       5.264   5.260 -13.255  0.00  0.00    +0.026 C 
ATOM     17  C   UNL     1       4.242   5.638 -12.258  0.00  0.00    -0.029 C 
ATOM     18  C   UNL     1       4.612   6.191 -11.103  0.00  0.00    -0.032 C 
ATOM     19  C   UNL     1       6.012   6.711 -11.014  0.00  0.00    +0.023 C 
ATOM     20  C   UNL     1       6.321   7.351 -12.344  0.00  0.00    +0.005 C 
ATOM     21  C   UNL     1       7.683   5.534 -13.216  0.00  0.00    +0.000 C 
BRANCH  17  22
ATOM     22  C   UNL     1       2.858   5.751 -12.736  0.00  0.00    -0.004 A 
ATOM     23  C   UNL     1       2.048   6.817 -12.448  0.00  0.00    +0.001 A 
ATOM     24  C   UNL     1       1.037   7.175 -13.330  0.00  0.00    +0.011 A 
ATOM     25  C   UNL     1       0.896   6.489 -14.530  0.00  0.00    +0.058 A 
ATOM     26 CL   UNL     1      -0.171   7.047 -15.802  0.00  0.00    -0.082 Cl
ATOM     27  C   UNL     1       1.368   5.183 -14.525  0.00  0.00    +0.011 A 
ATOM     28  C   UNL     1       2.411   4.846 -13.670  0.00  0.00    +0.001 A 
ENDBRANCH  17  22
ENDBRANCH  13  18
ENDBRANCH   7  13
ENDBRANCH   1  10
BRANCH   4  29
ATOM     29  C   UNL     1       2.600   5.667  -3.695  0.00  0.00    +0.289 C 
ATOM     30  N   UNL     1       3.324   6.803  -4.184  0.00  0.00    -0.055 NA
ATOM     31  O   UNL     1       3.284   4.866  -2.989  0.00  0.00    -0.267 OA
BRANCH  30  32
ATOM     32  S   UNL     1       4.787   7.356  -3.474  0.00  0.00    +0.096 S 
ATOM     33  O   UNL     1       5.912   6.397  -3.679  0.00  0.00    -0.148 OA
ATOM     34  O   UNL     1       5.150   8.662  -4.123  0.00  0.00    -0.148 OA
BRANCH  32  35
ATOM     35  C   UNL     1       4.481   7.681  -1.793  0.00  0.00    +0.133 A 
ATOM     36  C   UNL     1       3.656   8.757  -1.496  0.00  0.00    +0.097 A 
ATOM     37  C   UNL     1       3.581   9.256  -0.223  0.00  0.00    +0.306 A 
ATOM     38  C   UNL     1       4.197   8.559   0.806  0.00  0.00    +0.135 A 
ATOM     39  C   UNL     1       4.747   7.325   0.512  0.00  0.00    +0.024 A 
ATOM     40  C   UNL     1       4.768   6.808  -0.775  0.00  0.00    +0.022 A 
BRANCH  37  41
ATOM     41  N   UNL     1       2.957  10.509   0.080  0.00  0.00    +0.082 N 
ATOM     42  O   UNL     1       3.214  11.618  -0.702  0.00  0.00    -0.576 OA
ATOM     43  O   UNL     1       1.817  10.463   0.606  0.00  0.00    +0.042 OA
ENDBRANCH  37  41
BRANCH  38  44
ATOM     44  N   UNL     1       4.626   9.227   1.997  0.00  0.00    -0.232 NA
BRANCH  44  45
ATOM     45  C   UNL     1       6.020   9.629   2.154  0.00  0.00    +0.113 C 
BRANCH  45  46
ATOM     46  C   UNL     1       6.117  10.897   2.970  0.00  0.00    +0.027 C 
ATOM     47  C   UNL     1       4.853  11.703   2.861  0.00  0.00    +0.034 C 
ATOM     48  C   UNL     1       5.041  12.964   2.044  0.00  0.00    +0.142 C 
ATOM     49  O   UNL     1       5.916  12.668   0.996  0.00  0.00    -0.354 OA
ATOM     50  C   UNL     1       7.220  12.564   1.448  0.00  0.00    +0.142 C 
ATOM     51  C   UNL     1       7.358  11.686   2.662  0.00  0.00    +0.034 C 
ENDBRANCH  45  46
ENDBRANCH  44  45
ENDBRANCH  38  44
ENDBRANCH  32  35
ENDBRANCH  30  32
ENDBRANCH   4  29
BRANCH   3  52
ATOM     52  O   UNL     1      -0.029   6.557  -4.102  0.00  0.00    -0.452 OA
BRANCH  52  53
ATOM     53  C   UNL     1      -0.407   6.239  -2.814  0.00  0.00    +0.164 A 
ATOM     54  C   UNL     1       0.187   6.797  -1.691  0.00  0.00    +0.042 A 
ATOM     55  C   UNL     1      -0.435   6.600  -0.467  0.00  0.00    +0.040 A 
ATOM     56  C   UNL     1      -1.698   6.033  -0.399  0.00  0.00    +0.163 A 
ATOM     57  N   UNL     1      -2.238   6.304   0.812  0.00  0.00    -0.225 NA
ATOM     58  C   UNL     1      -1.282   6.783   1.633  0.00  0.00    +0.101 A 
ATOM     59  N   UNL     1      -2.167   5.378  -1.478  0.00  0.00    -0.222 NA
ATOM     60  C   UNL     1      -0.174   7.020   0.831  0.00  0.00    +0.024 A 
ATOM     61  C   UNL     1      -1.576   5.502  -2.669  0.00  0.00    +0.138 A 
ENDBRANCH  52  53
ENDBRANCH   3  52
TORSDOF 13
ENDMDL
MODEL 7
REMARK VINA RESULT:      -9.6      6.091     12.389
REMARK  Name = 
REMARK  13 active torsions:
REMARK  status: ('A' for Active; 'I' for Inactive)
REMARK    1  A    between atoms: C_6  and  C_7
REMARK    2  A    between atoms: C_7  and  N_8
REMARK    3  A    between atoms: N_11  and  C_12
REMARK    4  A    between atoms: C_15  and  C_16
REMARK    5  A    between atoms: N_18  and  S_19
REMARK    6  A    between atoms: S_19  and  C_22
REMARK    7  A    between atoms: C_25  and  N_26
REMARK    8  A    between atoms: N_26  and  C_27
REMARK    9  A    between atoms: C_27  and  C_28
REMARK   10  A    between atoms: C_34  and  N_35
REMARK   11  A    between atoms: C_39  and  O_40
REMARK   12  A    between atoms: O_40  and  C_41
REMARK   13  A    between atoms: C_53  and  C_54
REMARK                            x       y       z     vdW  Elec       q    Type
REMARK                         _______ _______ _______ _____ _____    ______ ____
ROOT
ATOM      1  C   UNL     1       4.225   5.430  -5.612  0.00  0.00    +0.051 A 
ATOM      2  C   UNL     1       4.558   5.802  -6.909  0.00  0.00    +0.052 A 
ATOM      3  C   UNL     1       3.719   5.469  -7.965  0.00  0.00    +0.151 A 
ATOM      4  C   UNL     1       2.560   4.728  -7.766  0.00  0.00    +0.091 A 
ATOM      5  C   UNL     1       2.499   4.039  -6.560  0.00  0.00    +0.009 A 
ATOM      6  C   UNL     1       3.354   4.352  -5.512  0.00  0.00    +0.015 A 
ENDROOT
BRANCH   1  10
ATOM      7  N   UNL     1       2.289   6.184  -2.775  0.00  0.00    -0.266 NA
ATOM      8  C   UNL     1       2.220   6.947  -3.992  0.00  0.00    +0.094 C 
ATOM      9  C   UNL     1       3.577   7.467  -4.437  0.00  0.00    +0.108 C 
ATOM     10  N   UNL     1       4.451   6.297  -4.493  0.00  0.00    -0.305 N 
ATOM     11  C   UNL     1       4.648   5.625  -3.210  0.00  0.00    +0.108 C 
ATOM     12  C   UNL     1       3.270   5.134  -2.793  0.00  0.00    +0.094 C 
BRANCH   7  13
ATOM     13  C   UNL     1       2.424   6.995  -1.590  0.00  0.00    +0.095 C 
BRANCH  13  18
ATOM     14  C   UNL     1      -1.765   8.767   0.933  0.00  0.00    +0.000 C 
ATOM     15  C   UNL     1      -1.033   7.469   0.687  0.00  0.00    +0.004 C 
ATOM     16  C   UNL     1       0.261   7.376   1.446  0.00  0.00    +0.026 C 
ATOM     17  C   UNL     1       1.451   7.342   0.573  0.00  0.00    -0.029 C 
ATOM     18  C   UNL     1       1.433   6.622  -0.550  0.00  0.00    -0.032 C 
ATOM     19  C   UNL     1       0.097   6.158  -1.039  0.00  0.00    +0.023 C 
ATOM     20  C   UNL     1      -0.869   7.291  -0.797  0.00  0.00    +0.005 C 
ATOM     21  C   UNL     1      -1.925   6.339   1.177  0.00  0.00    +0.000 C 
BRANCH  17  22
ATOM     22  C   UNL     1       2.451   8.400   0.770  0.00  0.00    -0.004 A 
ATOM     23  C   UNL     1       2.229   9.712   0.447  0.00  0.00    +0.001 A 
ATOM     24  C   UNL     1       2.892  10.716   1.141  0.00  0.00    +0.011 A 
ATOM     25  C   UNL     1       3.727  10.384   2.201  0.00  0.00    +0.058 A 
ATOM     26 CL   UNL     1       4.381  11.593   3.285  0.00  0.00    -0.082 Cl
ATOM     27  C   UNL     1       4.281   9.112   2.142  0.00  0.00    +0.011 A 
ATOM     28  C   UNL     1       3.587   8.103   1.485  0.00  0.00    +0.001 A 
ENDBRANCH  17  22
ENDBRANCH  13  18
ENDBRANCH   7  13
ENDBRANCH   1  10
BRANCH   4  29
ATOM     29  C   UNL     1       1.319   5.018  -8.498  0.00  0.00    +0.289 C 
ATOM     30  N   UNL     1       1.278   4.621  -9.874  0.00  0.00    -0.055 NA
ATOM     31  O   UNL     1       0.815   6.158  -8.259  0.00  0.00    -0.267 OA
BRANCH  30  32
ATOM     32  S   UNL     1       0.194   5.309 -11.015  0.00  0.00    +0.096 S 
ATOM     33  O   UNL     1      -0.812   4.321 -11.504  0.00  0.00    -0.148 OA
ATOM     34  O   UNL     1      -0.536   6.434 -10.336  0.00  0.00    -0.148 OA
BRANCH  32  35
ATOM     35  C   UNL     1       1.134   6.004 -12.302  0.00  0.00    +0.133 A 
ATOM     36  C   UNL     1       0.598   7.105 -12.955  0.00  0.00    +0.097 A 
ATOM     37  C   UNL     1       1.121   7.543 -14.142  0.00  0.00    +0.306 A 
ATOM     38  C   UNL     1       2.310   6.987 -14.594  0.00  0.00    +0.135 A 
ATOM     39  C   UNL     1       2.974   6.111 -13.756  0.00  0.00    +0.024 A 
ATOM     40  C   UNL     1       2.456   5.718 -12.531  0.00  0.00    +0.022 A 
BRANCH  37  41
ATOM     41  N   UNL     1       0.453   8.496 -14.976  0.00  0.00    +0.082 N 
ATOM     42  O   UNL     1       0.953   9.778 -15.100  0.00  0.00    -0.576 OA
ATOM     43  O   UNL     1      -0.153   8.046 -15.980  0.00  0.00    +0.042 OA
ENDBRANCH  37  41
BRANCH  38  44
ATOM     44  N   UNL     1       2.633   6.971 -15.989  0.00  0.00    -0.232 NA
BRANCH  44  45
ATOM     45  C   UNL     1       3.527   7.979 -16.548  0.00  0.00    +0.113 C 
BRANCH  45  46
ATOM     46  C   UNL     1       4.720   7.324 -17.206  0.00  0.00    +0.027 C 
ATOM     47  C   UNL     1       5.780   7.000 -16.191  0.00  0.00    +0.034 C 
ATOM     48  C   UNL     1       6.995   7.893 -16.320  0.00  0.00    +0.142 C 
ATOM     49  O   UNL     1       6.551   9.173 -16.659  0.00  0.00    -0.354 OA
ATOM     50  C   UNL     1       6.158   9.231 -17.985  0.00  0.00    +0.142 C 
ATOM     51  C   UNL     1       5.235   8.111 -18.378  0.00  0.00    +0.034 C 
ENDBRANCH  45  46
ENDBRANCH  44  45
ENDBRANCH  38  44
ENDBRANCH  32  35
ENDBRANCH  30  32
ENDBRANCH   4  29
BRANCH   3  52
ATOM     52  O   UNL     1       3.799   6.131  -9.193  0.00  0.00    -0.452 OA
BRANCH  52  53
ATOM     53  C   UNL     1       4.993   6.408  -9.826  0.00  0.00    +0.164 A 
ATOM     54  C   UNL     1       6.072   5.537  -9.820  0.00  0.00    +0.042 A 
ATOM     55  C   UNL     1       7.120   5.801 -10.689  0.00  0.00    +0.040 A 
ATOM     56  C   UNL     1       7.003   6.785 -11.658  0.00  0.00    +0.163 A 
ATOM     57  N   UNL     1       7.954   6.590 -12.602  0.00  0.00    -0.225 NA
ATOM     58  C   UNL     1       8.854   5.693 -12.153  0.00  0.00    +0.101 A 
ATOM     59  N   UNL     1       6.017   7.694 -11.535  0.00  0.00    -0.222 NA
ATOM     60  C   UNL     1       8.315   5.159 -10.991  0.00  0.00    +0.024 A 
ATOM     61  C   UNL     1       5.010   7.504 -10.679  0.00  0.00    +0.138 A 
ENDBRANCH  52  53
ENDBRANCH   3  52
TORSDOF 13
ENDMDL
MODEL 8
REMARK VINA RESULT:      -9.6      5.177     11.361
REMARK  Name = 
REMARK  13 active torsions:
REMARK  status: ('A' for Active; 'I' for Inactive)
REMARK    1  A    between atoms: C_6  and  C_7
REMARK    2  A    between atoms: C_7  and  N_8
REMARK    3  A    between atoms: N_11  and  C_12
REMARK    4  A    between atoms: C_15  and  C_16
REMARK    5  A    between atoms: N_18  and  S_19
REMARK    6  A    between atoms: S_19  and  C_22
REMARK    7  A    between atoms: C_25  and  N_26
REMARK    8  A    between atoms: N_26  and  C_27
REMARK    9  A    between atoms: C_27  and  C_28
REMARK   10  A    between atoms: C_34  and  N_35
REMARK   11  A    between atoms: C_39  and  O_40
REMARK   12  A    between atoms: O_40  and  C_41
REMARK   13  A    between atoms: C_53  and  C_54
REMARK                            x       y       z     vdW  Elec       q    Type
REMARK                         _______ _______ _______ _____ _____    ______ ____
ROOT
ATOM      1  C   UNL     1       4.261   7.472  -2.726  0.00  0.00    +0.051 A 
ATOM      2  C   UNL     1       2.988   7.488  -3.283  0.00  0.00    +0.052 A 
ATOM      3  C   UNL     1       2.808   7.145  -4.616  0.00  0.00    +0.151 A 
ATOM      4  C   UNL     1       3.884   6.820  -5.435  0.00  0.00    +0.091 A 
ATOM      5  C   UNL     1       5.127   7.222  -4.962  0.00  0.00    +0.009 A 
ATOM      6  C   UNL     1       5.305   7.591  -3.635  0.00  0.00    +0.015 A 
ENDROOT
BRANCH   1  10
ATOM      7  N   UNL     1       2.543   7.969   0.302  0.00  0.00    -0.266 NA
ATOM      8  C   UNL     1       3.621   8.816  -0.132  0.00  0.00    +0.094 C 
ATOM      9  C   UNL     1       4.892   8.039  -0.439  0.00  0.00    +0.108 C 
ATOM     10  N   UNL     1       4.500   7.003  -1.393  0.00  0.00    -0.305 N 
ATOM     11  C   UNL     1       3.523   6.045  -0.881  0.00  0.00    +0.108 C 
ATOM     12  C   UNL     1       2.277   6.860  -0.572  0.00  0.00    +0.094 C 
BRANCH   7  13
ATOM     13  C   UNL     1       2.665   7.530   1.669  0.00  0.00    +0.095 C 
BRANCH  13  18
ATOM     14  C   UNL     1      -1.543  10.558   2.094  0.00  0.00    +0.000 C 
ATOM     15  C   UNL     1      -1.069   9.182   2.498  0.00  0.00    +0.004 C 
ATOM     16  C   UNL     1      -0.060   9.215   3.612  0.00  0.00    +0.026 C 
ATOM     17  C   UNL     1       1.276   8.734   3.207  0.00  0.00    -0.029 C 
ATOM     18  C   UNL     1       1.387   7.670   2.411  0.00  0.00    -0.032 C 
ATOM     19  C   UNL     1       0.151   7.221   1.698  0.00  0.00    +0.023 C 
ATOM     20  C   UNL     1      -0.578   8.469   1.268  0.00  0.00    +0.005 C 
ATOM     21  C   UNL     1      -2.277   8.411   3.008  0.00  0.00    +0.000 C 
BRANCH  17  22
ATOM     22  C   UNL     1       2.397   9.669   3.370  0.00  0.00    -0.004 A 
ATOM     23  C   UNL     1       3.653   9.277   3.750  0.00  0.00    +0.001 A 
ATOM     24  C   UNL     1       4.758  10.014   3.345  0.00  0.00    +0.011 A 
ATOM     25  C   UNL     1       4.587  11.107   2.503  0.00  0.00    +0.058 A 
ATOM     26 CL   UNL     1       5.940  11.915   1.740  0.00  0.00    -0.082 Cl
ATOM     27  C   UNL     1       3.345  11.722   2.579  0.00  0.00    +0.011 A 
ATOM     28  C   UNL     1       2.236  10.966   2.941  0.00  0.00    +0.001 A 
ENDBRANCH  17  22
ENDBRANCH  13  18
ENDBRANCH   7  13
ENDBRANCH   1  10
BRANCH   4  29
ATOM     29  C   UNL     1       3.801   5.746  -6.434  0.00  0.00    +0.289 C 
ATOM     30  N   UNL     1       3.661   6.151  -7.801  0.00  0.00    -0.055 NA
ATOM     31  O   UNL     1       3.077   4.760  -6.096  0.00  0.00    -0.267 OA
BRANCH  30  32
ATOM     32  S   UNL     1       3.032   5.120  -9.023  0.00  0.00    +0.096 S 
ATOM     33  O   UNL     1       2.981   3.693  -8.586  0.00  0.00    -0.148 OA
ATOM     34  O   UNL     1       1.634   5.573  -9.334  0.00  0.00    -0.148 OA
BRANCH  32  35
ATOM     35  C   UNL     1       3.982   5.347 -10.462  0.00  0.00    +0.133 A 
ATOM     36  C   UNL     1       5.360   5.419 -10.307  0.00  0.00    +0.097 A 
ATOM     37  C   UNL     1       6.160   5.868 -11.323  0.00  0.00    +0.306 A 
ATOM     38  C   UNL     1       5.598   6.077 -12.574  0.00  0.00    +0.135 A 
ATOM     39  C   UNL     1       4.282   5.696 -12.764  0.00  0.00    +0.024 A 
ATOM     40  C   UNL     1       3.499   5.192 -11.736  0.00  0.00    +0.022 A 
BRANCH  37  41
ATOM     41  N   UNL     1       7.538   6.205 -11.129  0.00  0.00    +0.082 N 
ATOM     42  O   UNL     1       7.906   7.060 -10.109  0.00  0.00    -0.576 OA
ATOM     43  O   UNL     1       8.385   5.332 -11.443  0.00  0.00    +0.042 OA
ENDBRANCH  37  41
BRANCH  38  44
ATOM     44  N   UNL     1       6.176   7.007 -13.497  0.00  0.00    -0.232 NA
BRANCH  44  45
ATOM     45  C   UNL     1       6.675   6.547 -14.788  0.00  0.00    +0.113 C 
BRANCH  45  46
ATOM     46  C   UNL     1       6.682   7.680 -15.788  0.00  0.00    +0.027 C 
ATOM     47  C   UNL     1       5.283   8.149 -16.075  0.00  0.00    +0.034 C 
ATOM     48  C   UNL     1       4.819   7.765 -17.464  0.00  0.00    +0.142 C 
ATOM     49  O   UNL     1       5.332   6.498 -17.750  0.00  0.00    -0.354 OA
ATOM     50  C   UNL     1       6.684   6.560 -18.037  0.00  0.00    +0.142 C 
ATOM     51  C   UNL     1       7.468   7.351 -17.026  0.00  0.00    +0.034 C 
ENDBRANCH  45  46
ENDBRANCH  44  45
ENDBRANCH  38  44
ENDBRANCH  32  35
ENDBRANCH  30  32
ENDBRANCH   4  29
BRANCH   3  52
ATOM     52  O   UNL     1       1.553   6.776  -5.109  0.00  0.00    -0.452 OA
BRANCH  52  53
ATOM     53  C   UNL     1       0.476   6.493  -4.295  0.00  0.00    +0.164 A 
ATOM     54  C   UNL     1      -0.754   7.121  -4.421  0.00  0.00    +0.042 A 
ATOM     55  C   UNL     1      -1.827   6.585  -3.725  0.00  0.00    +0.040 A 
ATOM     56  C   UNL     1      -1.714   5.361  -3.086  0.00  0.00    +0.163 A 
ATOM     57  N   UNL     1      -2.954   4.880  -2.832  0.00  0.00    -0.225 NA
ATOM     58  C   UNL     1      -3.863   5.856  -3.028  0.00  0.00    +0.101 A 
ATOM     59  N   UNL     1      -0.483   4.864  -2.862  0.00  0.00    -0.222 NA
ATOM     60  C   UNL     1      -3.178   6.900  -3.634  0.00  0.00    +0.024 A 
ATOM     61  C   UNL     1       0.587   5.376  -3.476  0.00  0.00    +0.138 A 
ENDBRANCH  52  53
ENDBRANCH   3  52
TORSDOF 13
ENDMDL
MODEL 9
REMARK VINA RESULT:      -9.0      6.652     12.923
REMARK  Name = 
REMARK  13 active torsions:
REMARK  status: ('A' for Active; 'I' for Inactive)
REMARK    1  A    between atoms: C_6  and  C_7
REMARK    2  A    between atoms: C_7  and  N_8
REMARK    3  A    between atoms: N_11  and  C_12
REMARK    4  A    between atoms: C_15  and  C_16
REMARK    5  A    between atoms: N_18  and  S_19
REMARK    6  A    between atoms: S_19  and  C_22
REMARK    7  A    between atoms: C_25  and  N_26
REMARK    8  A    between atoms: N_26  and  C_27
REMARK    9  A    between atoms: C_27  and  C_28
REMARK   10  A    between atoms: C_34  and  N_35
REMARK   11  A    between atoms: C_39  and  O_40
REMARK   12  A    between atoms: O_40  and  C_41
REMARK   13  A    between atoms: C_53  and  C_54
REMARK                            x       y       z     vdW  Elec       q    Type
REMARK                         _______ _______ _______ _____ _____    ______ ____
ROOT
ATOM      1  C   UNL     1       0.764   5.736  -7.300  0.00  0.00    +0.051 A 
ATOM      2  C   UNL     1       1.860   5.129  -7.900  0.00  0.00    +0.052 A 
ATOM      3  C   UNL     1       1.821   4.801  -9.249  0.00  0.00    +0.151 A 
ATOM      4  C   UNL     1       0.686   5.027 -10.019  0.00  0.00    +0.091 A 
ATOM      5  C   UNL     1      -0.485   5.231  -9.299  0.00  0.00    +0.009 A 
ATOM      6  C   UNL     1      -0.450   5.533  -7.945  0.00  0.00    +0.015 A 
ENDROOT
BRANCH   1  10
ATOM      7  N   UNL     1       1.081   5.677  -3.798  0.00  0.00    -0.266 NA
ATOM      8  C   UNL     1      -0.188   5.792  -4.465  0.00  0.00    +0.094 C 
ATOM      9  C   UNL     1      -0.235   6.958  -5.440  0.00  0.00    +0.108 C 
ATOM     10  N   UNL     1       0.912   6.778  -6.327  0.00  0.00    -0.305 N 
ATOM     11  C   UNL     1       2.210   6.830  -5.658  0.00  0.00    +0.108 C 
ATOM     12  C   UNL     1       2.212   5.663  -4.683  0.00  0.00    +0.094 C 
BRANCH   7  13
ATOM     13  C   UNL     1       1.267   6.638  -2.739  0.00  0.00    +0.095 C 
BRANCH  13  18
ATOM     14  C   UNL     1      -1.238   8.744   1.304  0.00  0.00    +0.000 C 
ATOM     15  C   UNL     1      -1.124   7.422   0.582  0.00  0.00    +0.004 C 
ATOM     16  C   UNL     1       0.180   6.724   0.847  0.00  0.00    +0.026 C 
ATOM     17  C   UNL     1       1.031   6.597  -0.354  0.00  0.00    -0.029 C 
ATOM     18  C   UNL     1       0.482   6.286  -1.529  0.00  0.00    -0.032 C 
ATOM     19  C   UNL     1      -1.004   6.411  -1.640  0.00  0.00    +0.023 C 
ATOM     20  C   UNL     1      -1.392   7.655  -0.880  0.00  0.00    +0.005 C 
ATOM     21  C   UNL     1      -2.232   6.518   1.100  0.00  0.00    +0.000 C 
BRANCH  17  22
ATOM     22  C   UNL     1       2.369   7.198  -0.286  0.00  0.00    -0.004 A 
ATOM     23  C   UNL     1       2.597   8.479   0.144  0.00  0.00    +0.001 A 
ATOM     24  C   UNL     1       3.813   8.803   0.733  0.00  0.00    +0.011 A 
ATOM     25  C   UNL     1       4.764   7.812   0.940  0.00  0.00    +0.058 A 
ATOM     26 CL   UNL     1       6.197   8.084   1.909  0.00  0.00    -0.082 Cl
ATOM     27  C   UNL     1       4.692   6.732   0.070  0.00  0.00    +0.011 A 
ATOM     28  C   UNL     1       3.463   6.386  -0.479  0.00  0.00    +0.001 A 
ENDBRANCH  17  22
ENDBRANCH  13  18
ENDBRANCH   7  13
ENDBRANCH   1  10
BRANCH   4  29
ATOM     29  C   UNL     1       0.774   5.498 -11.409  0.00  0.00    +0.289 C 
ATOM     30  N   UNL     1       0.426   4.554 -12.429  0.00  0.00    -0.055 NA
ATOM     31  O   UNL     1       1.794   6.206 -11.667  0.00  0.00    -0.267 OA
BRANCH  30  32
ATOM     32  S   UNL     1       0.947   4.703 -14.059  0.00  0.00    +0.096 S 
ATOM     33  O   UNL     1       2.379   4.319 -14.230  0.00  0.00    -0.148 OA
ATOM     34  O   UNL     1       0.105   3.784 -14.898  0.00  0.00    -0.148 OA
BRANCH  32  35
ATOM     35  C   UNL     1       0.620   6.328 -14.583  0.00  0.00    +0.133 A 
ATOM     36  C   UNL     1      -0.018   6.483 -15.807  0.00  0.00    +0.097 A 
ATOM     37  C   UNL     1      -0.068   7.703 -16.425  0.00  0.00    +0.306 A 
ATOM     38  C   UNL     1       0.366   8.823 -15.730  0.00  0.00    +0.135 A 
ATOM     39  C   UNL     1       0.705   8.667 -14.399  0.00  0.00    +0.024 A 
ATOM     40  C   UNL     1       0.699   7.430 -13.771  0.00  0.00    +0.022 A 
BRANCH  37  41
ATOM     41  N   UNL     1      -0.477   7.862 -17.788  0.00  0.00    +0.082 N 
ATOM     42  O   UNL     1      -0.047   6.968 -18.750  0.00  0.00    -0.576 OA
ATOM     43  O   UNL     1      -1.606   8.377 -17.985  0.00  0.00    +0.042 OA
ENDBRANCH  37  41
BRANCH  38  44
ATOM     44  N   UNL     1       0.846   9.981 -16.422  0.00  0.00    -0.232 NA
BRANCH  44  45
ATOM     45  C   UNL     1       2.276  10.262 -16.482  0.00  0.00    +0.113 C 
BRANCH  45  46
ATOM     46  C   UNL     1       2.948   9.375 -17.504  0.00  0.00    +0.027 C 
ATOM     47  C   UNL     1       3.480   8.125 -16.862  0.00  0.00    +0.034 C 
ATOM     48  C   UNL     1       4.992   8.113 -16.788  0.00  0.00    +0.142 C 
ATOM     49  O   UNL     1       5.417   9.416 -16.518  0.00  0.00    -0.354 OA
ATOM     50  C   UNL     1       5.310  10.218 -17.640  0.00  0.00    +0.142 C 
ATOM     51  C   UNL     1       3.973  10.112 -18.320  0.00  0.00    +0.034 C 
ENDBRANCH  45  46
ENDBRANCH  44  45
ENDBRANCH  38  44
ENDBRANCH  32  35
ENDBRANCH  30  32
ENDBRANCH   4  29
BRANCH   3  52
ATOM     52  O   UNL     1       2.992   4.557  -9.973  0.00  0.00    -0.452 OA
BRANCH  52  53
ATOM     53  C   UNL     1       4.104   5.372  -9.907  0.00  0.00    +0.164 A 
ATOM     54  C   UNL     1       5.317   4.957  -9.378  0.00  0.00    +0.042 A 
ATOM     55  C   UNL     1       6.424   5.764  -9.592  0.00  0.00    +0.040 A 
ATOM     56  C   UNL     1       6.357   6.840 -10.462  0.00  0.00    +0.163 A 
ATOM     57  N   UNL     1       7.613   7.213 -10.801  0.00  0.00    -0.225 NA
ATOM     58  C   UNL     1       8.497   6.609  -9.981  0.00  0.00    +0.101 A 
ATOM     59  N   UNL     1       5.143   7.293 -10.832  0.00  0.00    -0.222 NA
ATOM     60  C   UNL     1       7.771   5.668  -9.265  0.00  0.00    +0.024 A 
ATOM     61  C   UNL     1       4.042   6.570 -10.607  0.00  0.00    +0.138 A 
ENDBRANCH  52  53
ENDBRANCH   3  52
TORSDOF 13
ENDMDL
