MODEL 1
REMARK VINA RESULT:      -7.4      0.000      0.000
REMARK  Name = 
REMARK  4 active torsions:
REMARK  status: ('A' for Active; 'I' for Inactive)
REMARK    1  A    between atoms: O_2  and  C_3
REMARK    2  A    between atoms: C_5  and  C_6
REMARK    3  A    between atoms: C_25  and  O_26
REMARK    4  A    between atoms: C_28  and  O_29
REMARK                            x       y       z     vdW  Elec       q    Type
REMARK                         _______ _______ _______ _____ _____    ______ ____
ROOT
ATOM      1  C   UNL     1       0.980   7.161  -4.713  0.00  0.00    +0.055 C 
ATOM      2  C   UNL     1      -0.084   5.903  -4.320  0.00  0.00    +0.113 C 
ATOM      3  C   UNL     1      -0.932   6.193  -5.732  0.00  0.00    +0.090 C 
ATOM      4  C   UNL     1      -2.249   5.564  -5.081  0.00  0.00    +0.212 C 
ATOM      5  O   UNL     1      -2.349   6.559  -4.063  0.00  0.00    -0.448 OA
ATOM      6  C   UNL     1      -0.392   4.704  -6.346  0.00  0.00    +0.178 C 
ATOM      7  O   UNL     1      -0.692   5.154  -7.762  0.00  0.00    -0.218 OA
ATOM      8  C   UNL     1       1.130   5.223  -6.396  0.00  0.00    +0.007 A 
ATOM      9  C   UNL     1       1.988   4.440  -7.160  0.00  0.00    +0.038 A 
ATOM     10  C   UNL     1       3.164   4.982  -7.679  0.00  0.00    +0.176 A 
ATOM     11  O   UNL     1       3.949   4.589  -8.759  0.00  0.00    -0.435 OA
ATOM     12  C   UNL     1       4.157   5.669  -9.654  0.00  0.00    +0.429 C 
ATOM     13  O   UNL     1       3.832   6.806  -8.878  0.00  0.00    -0.435 OA
ATOM     14  C   UNL     1       3.205   6.371  -7.706  0.00  0.00    +0.176 A 
ATOM     15  C   UNL     1       2.531   7.063  -6.706  0.00  0.00    +0.036 A 
ATOM     16  C   UNL     1      -1.084   6.829  -3.523  0.00  0.00    +0.317 C 
ATOM     17  O   UNL     1      -1.018   6.961  -2.261  0.00  0.00    -0.250 OA
ATOM     18  C   UNL     1       1.487   6.432  -6.038  0.00  0.00    -0.016 A 
ENDROOT
BRANCH   1  23
ATOM     19  C   UNL     1       2.259   5.424  -1.743  0.00  0.00    +0.175 A 
ATOM     20  C   UNL     1       2.693   6.554  -1.060  0.00  0.00    +0.206 A 
ATOM     21  C   UNL     1       3.238   7.542  -1.875  0.00  0.00    +0.175 A 
ATOM     22  C   UNL     1       2.963   7.532  -3.236  0.00  0.00    +0.036 A 
ATOM     23  C   UNL     1       2.175   6.560  -3.836  0.00  0.00    -0.012 A 
ATOM     24  C   UNL     1       1.915   5.449  -3.084  0.00  0.00    +0.036 A 
BRANCH  19  26
ATOM     25  C   UNL     1       2.185   3.643  -0.796  0.00  0.00    +0.253 C 
ATOM     26  O   UNL     1       2.011   4.306  -0.944  0.00  0.00    -0.468 OA
ENDBRANCH  19  26
BRANCH  20  27
ATOM     27  O   UNL     1       2.270   6.867   0.215  0.00  0.00    -0.465 OA
ATOM     28  C   UNL     1       0.991   7.422   0.505  0.00  0.00    +0.253 C 
ENDBRANCH  20  27
BRANCH  21  29
ATOM     29  O   UNL     1       4.065   8.468  -1.277  0.00  0.00    -0.468 OA
ATOM     30  C   UNL     1       3.668   9.733  -0.821  0.00  0.00    +0.253 C 
ENDBRANCH  21  29
ENDBRANCH   1  23
TORSDOF 4
ENDMDL
MODEL 2
REMARK VINA RESULT:      -7.1      1.616      1.884
REMARK  Name = 
REMARK  4 active torsions:
REMARK  status: ('A' for Active; 'I' for Inactive)
REMARK    1  A    between atoms: O_2  and  C_3
REMARK    2  A    between atoms: C_5  and  C_6
REMARK    3  A    between atoms: C_25  and  O_26
REMARK    4  A    between atoms: C_28  and  O_29
REMARK                            x       y       z     vdW  Elec       q    Type
REMARK                         _______ _______ _______ _____ _____    ______ ____
ROOT
ATOM      1  C   UNL     1       0.243   7.203  -4.183  0.00  0.00    +0.055 C 
ATOM      2  C   UNL     1      -0.860   6.060  -3.595  0.00  0.00    +0.113 C 
ATOM      3  C   UNL     1      -2.053   6.735  -4.553  0.00  0.00    +0.090 C 
ATOM      4  C   UNL     1      -3.176   6.191  -3.555  0.00  0.00    +0.212 C 
ATOM      5  O   UNL     1      -2.726   6.976  -2.452  0.00  0.00    -0.448 OA
ATOM      6  C   UNL     1      -2.063   5.329  -5.507  0.00  0.00    +0.178 C 
ATOM      7  O   UNL     1      -2.721   6.081  -6.647  0.00  0.00    -0.218 OA
ATOM      8  C   UNL     1      -0.574   5.622  -6.039  0.00  0.00    +0.007 A 
ATOM      9  C   UNL     1      -0.198   4.884  -7.156  0.00  0.00    +0.038 A 
ATOM     10  C   UNL     1       0.821   5.339  -7.992  0.00  0.00    +0.176 A 
ATOM     11  O   UNL     1       1.104   5.051  -9.324  0.00  0.00    -0.435 OA
ATOM     12  C   UNL     1       1.216   6.241 -10.088  0.00  0.00    +0.429 C 
ATOM     13  O   UNL     1       1.407   7.243  -9.108  0.00  0.00    -0.435 OA
ATOM     14  C   UNL     1       1.132   6.687  -7.854  0.00  0.00    +0.176 A 
ATOM     15  C   UNL     1       0.987   7.265  -6.599  0.00  0.00    +0.036 A 
ATOM     16  C   UNL     1      -1.327   6.952  -2.378  0.00  0.00    +0.317 C 
ATOM     17  O   UNL     1      -0.818   6.828  -1.220  0.00  0.00    -0.250 OA
ATOM     18  C   UNL     1       0.120   6.675  -5.684  0.00  0.00    -0.016 A 
ENDROOT
BRANCH   1  23
ATOM     19  C   UNL     1       2.371   5.263  -1.906  0.00  0.00    +0.175 A 
ATOM     20  C   UNL     1       3.375   6.214  -1.761  0.00  0.00    +0.206 A 
ATOM     21  C   UNL     1       3.653   6.934  -2.919  0.00  0.00    +0.175 A 
ATOM     22  C   UNL     1       2.721   6.960  -3.948  0.00  0.00    +0.036 A 
ATOM     23  C   UNL     1       1.515   6.278  -3.885  0.00  0.00    -0.012 A 
ATOM     24  C   UNL     1       1.403   5.346  -2.891  0.00  0.00    +0.036 A 
BRANCH  19  26
ATOM     25  C   UNL     1       2.336   3.645  -0.700  0.00  0.00    +0.253 C 
ATOM     26  O   UNL     1       2.292   4.322  -0.877  0.00  0.00    -0.468 OA
ENDBRANCH  19  26
BRANCH  20  27
ATOM     27  O   UNL     1       3.774   6.700  -0.533  0.00  0.00    -0.465 OA
ATOM     28  C   UNL     1       3.000   7.611   0.242  0.00  0.00    +0.253 C 
ENDBRANCH  20  27
BRANCH  21  29
ATOM     29  O   UNL     1       4.879   7.560  -2.993  0.00  0.00    -0.468 OA
ATOM     30  C   UNL     1       5.715   7.572  -4.119  0.00  0.00    +0.253 C 
ENDBRANCH  21  29
ENDBRANCH   1  23
TORSDOF 4
ENDMDL
MODEL 3
REMARK VINA RESULT:      -7.0      1.740      6.970
REMARK  Name = 
REMARK  4 active torsions:
REMARK  status: ('A' for Active; 'I' for Inactive)
REMARK    1  A    between atoms: O_2  and  C_3
REMARK    2  A    between atoms: C_5  and  C_6
REMARK    3  A    between atoms: C_25  and  O_26
REMARK    4  A    between atoms: C_28  and  O_29
REMARK                            x       y       z     vdW  Elec       q    Type
REMARK                         _______ _______ _______ _____ _____    ______ ____
ROOT
ATOM      1  C   UNL     1       2.205   6.850  -4.648  0.00  0.00    +0.055 C 
ATOM      2  C   UNL     1       3.381   6.059  -3.720  0.00  0.00    +0.113 C 
ATOM      3  C   UNL     1       3.166   7.188  -2.505  0.00  0.00    +0.090 C 
ATOM      4  C   UNL     1       4.650   6.918  -1.978  0.00  0.00    +0.212 C 
ATOM      5  O   UNL     1       5.274   7.381  -3.175  0.00  0.00    -0.448 OA
ATOM      6  C   UNL     1       2.480   5.983  -1.524  0.00  0.00    +0.178 C 
ATOM      7  O   UNL     1       1.818   7.035  -0.656  0.00  0.00    -0.218 OA
ATOM      8  C   UNL     1       1.210   5.845  -2.501  0.00  0.00    +0.007 A 
ATOM      9  C   UNL     1       0.127   5.163  -1.956  0.00  0.00    +0.038 A 
ATOM     10  C   UNL     1      -1.159   5.364  -2.459  0.00  0.00    +0.176 A 
ATOM     11  O   UNL     1      -2.407   5.161  -1.877  0.00  0.00    -0.435 OA
ATOM     12  C   UNL     1      -3.200   6.334  -1.954  0.00  0.00    +0.429 C 
ATOM     13  O   UNL     1      -2.558   7.099  -2.956  0.00  0.00    -0.435 OA
ATOM     14  C   UNL     1      -1.314   6.515  -3.223  0.00  0.00    +0.176 A 
ATOM     15  C   UNL     1      -0.227   6.956  -3.967  0.00  0.00    +0.036 A 
ATOM     16  C   UNL     1       4.584   6.902  -4.297  0.00  0.00    +0.317 C 
ATOM     17  O   UNL     1       5.292   6.486  -5.267  0.00  0.00    -0.250 OA
ATOM     18  C   UNL     1       1.053   6.571  -3.580  0.00  0.00    -0.016 A 
ENDROOT
BRANCH   1  23
ATOM     19  C   UNL     1       2.263   4.870  -7.739  0.00  0.00    +0.175 A 
ATOM     20  C   UNL     1       0.966   5.156  -8.147  0.00  0.00    +0.206 A 
ATOM     21  C   UNL     1       0.045   5.243  -7.108  0.00  0.00    +0.175 A 
ATOM     22  C   UNL     1       0.497   5.441  -5.810  0.00  0.00    +0.036 A 
ATOM     23  C   UNL     1       1.843   5.538  -5.490  0.00  0.00    -0.012 A 
ATOM     24  C   UNL     1       2.721   5.145  -6.462  0.00  0.00    +0.036 A 
BRANCH  19  26
ATOM     25  C   UNL     1       3.788   4.295  -8.930  0.00  0.00    +0.253 C 
ATOM     26  O   UNL     1       3.130   4.464  -8.756  0.00  0.00    -0.468 OA
ENDBRANCH  19  26
BRANCH  20  27
ATOM     27  O   UNL     1       0.672   5.704  -9.379  0.00  0.00    -0.465 OA
ATOM     28  C   UNL     1       0.223   4.939 -10.493  0.00  0.00    +0.253 C 
ENDBRANCH  20  27
BRANCH  21  29
ATOM     29  O   UNL     1      -1.286   5.088  -7.430  0.00  0.00    -0.468 OA
ATOM     30  C   UNL     1      -2.365   5.447  -6.609  0.00  0.00    +0.253 C 
ENDBRANCH  21  29
ENDBRANCH   1  23
TORSDOF 4
ENDMDL
MODEL 4
REMARK VINA RESULT:      -7.0      1.742      6.831
REMARK  Name = 
REMARK  4 active torsions:
REMARK  status: ('A' for Active; 'I' for Inactive)
REMARK    1  A    between atoms: O_2  and  C_3
REMARK    2  A    between atoms: C_5  and  C_6
REMARK    3  A    between atoms: C_25  and  O_26
REMARK    4  A    between atoms: C_28  and  O_29
REMARK                            x       y       z     vdW  Elec       q    Type
REMARK                         _______ _______ _______ _____ _____    ______ ____
ROOT
ATOM      1  C   UNL     1       2.416   7.377  -4.800  0.00  0.00    +0.055 C 
ATOM      2  C   UNL     1       3.461   6.367  -3.930  0.00  0.00    +0.113 C 
ATOM      3  C   UNL     1       2.991   7.119  -2.513  0.00  0.00    +0.090 C 
ATOM      4  C   UNL     1       4.379   6.721  -1.829  0.00  0.00    +0.212 C 
ATOM      5  O   UNL     1       5.167   7.497  -2.730  0.00  0.00    -0.448 OA
ATOM      6  C   UNL     1       2.215   5.689  -2.027  0.00  0.00    +0.178 C 
ATOM      7  O   UNL     1       1.365   6.459  -1.036  0.00  0.00    -0.218 OA
ATOM      8  C   UNL     1       1.132   5.818  -3.209  0.00  0.00    +0.007 A 
ATOM      9  C   UNL     1       0.011   5.009  -3.064  0.00  0.00    +0.038 A 
ATOM     10  C   UNL     1      -1.183   5.334  -3.709  0.00  0.00    +0.176 A 
ATOM     11  O   UNL     1      -2.498   4.974  -3.429  0.00  0.00    -0.435 OA
ATOM     12  C   UNL     1      -3.326   6.120  -3.323  0.00  0.00    +0.429 C 
ATOM     13  O   UNL     1      -2.568   7.133  -3.956  0.00  0.00    -0.435 OA
ATOM     14  C   UNL     1      -1.269   6.650  -4.150  0.00  0.00    +0.176 A 
ATOM     15  C   UNL     1      -0.097   7.283  -4.547  0.00  0.00    +0.036 A 
ATOM     16  C   UNL     1       4.699   7.341  -4.042  0.00  0.00    +0.317 C 
ATOM     17  O   UNL     1       5.578   7.210  -4.950  0.00  0.00    -0.250 OA
ATOM     18  C   UNL     1       1.119   6.812  -4.063  0.00  0.00    -0.016 A 
ENDROOT
BRANCH   1  23
ATOM     19  C   UNL     1       3.748   5.614  -7.731  0.00  0.00    +0.175 A 
ATOM     20  C   UNL     1       3.145   6.412  -8.697  0.00  0.00    +0.206 A 
ATOM     21  C   UNL     1       1.864   6.844  -8.365  0.00  0.00    +0.175 A 
ATOM     22  C   UNL     1       1.455   6.812  -7.038  0.00  0.00    +0.036 A 
ATOM     23  C   UNL     1       2.267   6.346  -6.014  0.00  0.00    -0.012 A 
ATOM     24  C   UNL     1       3.380   5.651  -6.398  0.00  0.00    +0.036 A 
BRANCH  19  26
ATOM     25  C   UNL     1       5.574   4.849  -8.124  0.00  0.00    +0.253 C 
ATOM     26  O   UNL     1       4.876   4.912  -8.161  0.00  0.00    -0.468 OA
ENDBRANCH  19  26
BRANCH  20  27
ATOM     27  O   UNL     1       3.858   7.059  -9.685  0.00  0.00    -0.465 OA
ATOM     28  C   UNL     1       4.004   6.554 -11.009  0.00  0.00    +0.253 C 
ENDBRANCH  20  27
BRANCH  21  29
ATOM     29  O   UNL     1       1.048   7.251  -9.399  0.00  0.00    -0.468 OA
ATOM     30  C   UNL     1       0.340   6.396 -10.255  0.00  0.00    +0.253 C 
ENDBRANCH  21  29
ENDBRANCH   1  23
TORSDOF 4
ENDMDL
MODEL 5
REMARK VINA RESULT:      -6.6      3.296      6.436
REMARK  Name = 
REMARK  4 active torsions:
REMARK  status: ('A' for Active; 'I' for Inactive)
REMARK    1  A    between atoms: O_2  and  C_3
REMARK    2  A    between atoms: C_5  and  C_6
REMARK    3  A    between atoms: C_25  and  O_26
REMARK    4  A    between atoms: C_28  and  O_29
REMARK                            x       y       z     vdW  Elec       q    Type
REMARK                         _______ _______ _______ _____ _____    ______ ____
ROOT
ATOM      1  C   UNL     1       2.380   7.200 -10.724  0.00  0.00    +0.055 C 
ATOM      2  C   UNL     1       1.514   6.056 -11.623  0.00  0.00    +0.113 C 
ATOM      3  C   UNL     1       2.081   6.751 -13.035  0.00  0.00    +0.090 C 
ATOM      4  C   UNL     1       0.809   6.199 -13.829  0.00  0.00    +0.212 C 
ATOM      5  O   UNL     1      -0.128   6.965 -13.074  0.00  0.00    -0.448 OA
ATOM      6  C   UNL     1       3.008   5.359 -13.332  0.00  0.00    +0.178 C 
ATOM      7  O   UNL     1       3.903   6.130 -14.281  0.00  0.00    -0.218 OA
ATOM      8  C   UNL     1       3.942   5.650 -12.055  0.00  0.00    +0.007 A 
ATOM      9  C   UNL     1       5.128   4.926 -12.023  0.00  0.00    +0.038 A 
ATOM     10  C   UNL     1       6.217   5.388 -11.282  0.00  0.00    +0.176 A 
ATOM     11  O   UNL     1       7.577   5.117 -11.396  0.00  0.00    -0.435 OA
ATOM     12  C   UNL     1       8.327   6.317 -11.497  0.00  0.00    +0.429 C 
ATOM     13  O   UNL     1       7.431   7.304 -11.023  0.00  0.00    -0.435 OA
ATOM     14  C   UNL     1       6.158   6.731 -10.931  0.00  0.00    +0.176 A 
ATOM     15  C   UNL     1       4.906   7.292 -10.705  0.00  0.00    +0.036 A 
ATOM     16  C   UNL     1       0.204   6.932 -11.713  0.00  0.00    +0.317 C 
ATOM     17  O   UNL     1      -0.758   6.789 -10.894  0.00  0.00    -0.250 OA
ATOM     18  C   UNL     1       3.788   6.695 -11.278  0.00  0.00    -0.016 A 
ENDROOT
BRANCH   1  23
ATOM     19  C   UNL     1       0.907   5.656  -7.738  0.00  0.00    +0.175 A 
ATOM     20  C   UNL     1       1.459   6.528  -6.806  0.00  0.00    +0.206 A 
ATOM     21  C   UNL     1       2.754   6.940  -7.106  0.00  0.00    +0.175 A 
ATOM     22  C   UNL     1       3.229   6.810  -8.405  0.00  0.00    +0.036 A 
ATOM     23  C   UNL     1       2.470   6.264  -9.430  0.00  0.00    -0.012 A 
ATOM     24  C   UNL     1       1.341   5.594  -9.050  0.00  0.00    +0.036 A 
BRANCH  19  26
ATOM     25  C   UNL     1      -0.941   4.944  -7.344  0.00  0.00    +0.253 C 
ATOM     26  O   UNL     1      -0.241   4.983  -7.313  0.00  0.00    -0.468 OA
ENDBRANCH  19  26
BRANCH  20  27
ATOM     27  O   UNL     1       0.697   7.244  -5.907  0.00  0.00    -0.465 OA
ATOM     28  C   UNL     1       0.483   6.837  -4.558  0.00  0.00    +0.253 C 
ENDBRANCH  20  27
BRANCH  21  29
ATOM     29  O   UNL     1       3.517   7.428  -6.067  0.00  0.00    -0.468 OA
ATOM     30  C   UNL     1       4.288   6.648  -5.193  0.00  0.00    +0.253 C 
ENDBRANCH  21  29
ENDBRANCH   1  23
TORSDOF 4
ENDMDL
MODEL 6
REMARK VINA RESULT:      -6.5      3.874      9.057
REMARK  Name = 
REMARK  4 active torsions:
REMARK  status: ('A' for Active; 'I' for Inactive)
REMARK    1  A    between atoms: O_2  and  C_3
REMARK    2  A    between atoms: C_5  and  C_6
REMARK    3  A    between atoms: C_25  and  O_26
REMARK    4  A    between atoms: C_28  and  O_29
REMARK                            x       y       z     vdW  Elec       q    Type
REMARK                         _______ _______ _______ _____ _____    ______ ____
ROOT
ATOM      1  C   UNL     1       4.274   6.738 -11.240  0.00  0.00    +0.055 C 
ATOM      2  C   UNL     1       5.512   5.726 -11.798  0.00  0.00    +0.113 C 
ATOM      3  C   UNL     1       6.641   6.722 -11.070  0.00  0.00    +0.090 C 
ATOM      4  C   UNL     1       7.754   6.238 -12.109  0.00  0.00    +0.212 C 
ATOM      5  O   UNL     1       7.075   6.768 -13.247  0.00  0.00    -0.448 OA
ATOM      6  C   UNL     1       6.990   5.491  -9.954  0.00  0.00    +0.178 C 
ATOM      7  O   UNL     1       7.595   6.498  -8.997  0.00  0.00    -0.218 OA
ATOM      8  C   UNL     1       5.524   5.601  -9.302  0.00  0.00    +0.007 A 
ATOM      9  C   UNL     1       5.386   4.979  -8.066  0.00  0.00    +0.038 A 
ATOM     10  C   UNL     1       4.378   5.371  -7.186  0.00  0.00    +0.176 A 
ATOM     11  O   UNL     1       4.268   5.234  -5.805  0.00  0.00    -0.435 OA
ATOM     12  C   UNL     1       4.008   6.486  -5.191  0.00  0.00    +0.429 C 
ATOM     13  O   UNL     1       3.553   7.290  -6.262  0.00  0.00    -0.435 OA
ATOM     14  C   UNL     1       3.815   6.613  -7.459  0.00  0.00    +0.176 A 
ATOM     15  C   UNL     1       3.744   7.021  -8.785  0.00  0.00    +0.036 A 
ATOM     16  C   UNL     1       5.702   6.498 -13.162  0.00  0.00    +0.317 C 
ATOM     17  O   UNL     1       5.126   6.125 -14.231  0.00  0.00    -0.250 OA
ATOM     18  C   UNL     1       4.621   6.460  -9.708  0.00  0.00    -0.016 A 
ENDROOT
BRANCH   1  23
ATOM     19  C   UNL     1       1.214   5.225 -12.588  0.00  0.00    +0.175 A 
ATOM     20  C   UNL     1       0.363   5.622 -11.563  0.00  0.00    +0.206 A 
ATOM     21  C   UNL     1       0.941   5.598 -10.297  0.00  0.00    +0.175 A 
ATOM     22  C   UNL     1       2.325   5.587 -10.179  0.00  0.00    +0.036 A 
ATOM     23  C   UNL     1       3.172   5.579 -11.277  0.00  0.00    -0.012 A 
ATOM     24  C   UNL     1       2.592   5.292 -12.482  0.00  0.00    +0.036 A 
BRANCH  19  26
ATOM     25  C   UNL     1       0.566   4.512 -14.362  0.00  0.00    +0.253 C 
ATOM     26  O   UNL     1       0.586   4.932 -13.800  0.00  0.00    -0.468 OA
ENDBRANCH  19  26
BRANCH  20  27
ATOM     27  O   UNL     1      -0.785   6.354 -11.784  0.00  0.00    -0.465 OA
ATOM     28  C   UNL     1      -0.837   7.776 -11.711  0.00  0.00    +0.253 C 
ENDBRANCH  20  27
BRANCH  21  29
ATOM     29  O   UNL     1       0.089   5.548  -9.215  0.00  0.00    -0.468 OA
ATOM     30  C   UNL     1       0.488   5.449  -7.875  0.00  0.00    +0.253 C 
ENDBRANCH  21  29
ENDBRANCH   1  23
TORSDOF 4
ENDMDL
MODEL 7
REMARK VINA RESULT:      -6.5      1.662      4.986
REMARK  Name = 
REMARK  4 active torsions:
REMARK  status: ('A' for Active; 'I' for Inactive)
REMARK    1  A    between atoms: O_2  and  C_3
REMARK    2  A    between atoms: C_5  and  C_6
REMARK    3  A    between atoms: C_25  and  O_26
REMARK    4  A    between atoms: C_28  and  O_29
REMARK                            x       y       z     vdW  Elec       q    Type
REMARK                         _______ _______ _______ _____ _____    ______ ____
ROOT
ATOM      1  C   UNL     1       1.839   5.051  -5.013  0.00  0.00    +0.055 C 
ATOM      2  C   UNL     1       1.948   5.798  -6.529  0.00  0.00    +0.113 C 
ATOM      3  C   UNL     1       0.860   4.687  -7.144  0.00  0.00    +0.090 C 
ATOM      4  C   UNL     1       1.457   4.899  -8.610  0.00  0.00    +0.212 C 
ATOM      5  O   UNL     1       2.751   4.403  -8.271  0.00  0.00    -0.448 OA
ATOM      6  C   UNL     1      -0.290   5.925  -7.313  0.00  0.00    +0.178 C 
ATOM      7  O   UNL     1      -1.412   4.907  -7.365  0.00  0.00    -0.218 OA
ATOM      8  C   UNL     1      -0.395   6.110  -5.719  0.00  0.00    +0.007 A 
ATOM      9  C   UNL     1      -1.498   6.839  -5.288  0.00  0.00    +0.038 A 
ATOM     10  C   UNL     1      -1.980   6.688  -3.987  0.00  0.00    +0.176 A 
ATOM     11  O   UNL     1      -3.235   6.946  -3.445  0.00  0.00    -0.435 OA
ATOM     12  C   UNL     1      -3.740   5.806  -2.769  0.00  0.00    +0.429 C 
ATOM     13  O   UNL     1      -2.589   5.009  -2.564  0.00  0.00    -0.435 OA
ATOM     14  C   UNL     1      -1.548   5.540  -3.334  0.00  0.00    +0.176 A 
ATOM     15  C   UNL     1      -0.285   5.049  -3.642  0.00  0.00    +0.036 A 
ATOM     16  C   UNL     1       3.151   4.903  -7.024  0.00  0.00    +0.317 C 
ATOM     17  O   UNL     1       4.358   5.283  -6.922  0.00  0.00    -0.250 OA
ATOM     18  C   UNL     1       0.286   5.384  -4.866  0.00  0.00    -0.016 A 
ENDROOT
BRANCH   1  23
ATOM     19  C   UNL     1       4.312   7.079  -3.212  0.00  0.00    +0.175 A 
ATOM     20  C   UNL     1       3.870   6.784  -1.928  0.00  0.00    +0.206 A 
ATOM     21  C   UNL     1       2.488   6.669  -1.810  0.00  0.00    +0.175 A 
ATOM     22  C   UNL     1       1.722   6.457  -2.948  0.00  0.00    +0.036 A 
ATOM     23  C   UNL     1       2.272   6.371  -4.219  0.00  0.00    -0.012 A 
ATOM     24  C   UNL     1       3.568   6.790  -4.342  0.00  0.00    +0.036 A 
BRANCH  19  26
ATOM     25  C   UNL     1       6.219   7.540  -3.690  0.00  0.00    +0.253 C 
ATOM     26  O   UNL     1       5.637   7.512  -3.299  0.00  0.00    -0.468 OA
ENDBRANCH  19  26
BRANCH  20  27
ATOM     27  O   UNL     1       4.693   6.252  -0.956  0.00  0.00    -0.465 OA
ATOM     28  C   UNL     1       5.115   6.972   0.198  0.00  0.00    +0.253 C 
ENDBRANCH  20  27
BRANCH  21  29
ATOM     29  O   UNL     1       1.948   6.814  -0.550  0.00  0.00    -0.468 OA
ATOM     30  C   UNL     1       0.627   6.506  -0.196  0.00  0.00    +0.253 C 
ENDBRANCH  21  29
ENDBRANCH   1  23
TORSDOF 4
ENDMDL
MODEL 8
REMARK VINA RESULT:      -6.4      4.032      6.756
REMARK  Name = 
REMARK  4 active torsions:
REMARK  status: ('A' for Active; 'I' for Inactive)
REMARK    1  A    between atoms: O_2  and  C_3
REMARK    2  A    between atoms: C_5  and  C_6
REMARK    3  A    between atoms: C_25  and  O_26
REMARK    4  A    between atoms: C_28  and  O_29
REMARK                            x       y       z     vdW  Elec       q    Type
REMARK                         _______ _______ _______ _____ _____    ______ ____
ROOT
ATOM      1  C   UNL     1       2.512   6.564 -10.574  0.00  0.00    +0.055 C 
ATOM      2  C   UNL     1       1.232   5.718 -11.290  0.00  0.00    +0.113 C 
ATOM      3  C   UNL     1       1.181   6.855 -12.516  0.00  0.00    +0.090 C 
ATOM      4  C   UNL     1      -0.358   6.514 -12.781  0.00  0.00    +0.212 C 
ATOM      5  O   UNL     1      -0.786   6.948 -11.491  0.00  0.00    -0.448 OA
ATOM      6  C   UNL     1       1.743   5.682 -13.609  0.00  0.00    +0.178 C 
ATOM      7  O   UNL     1       2.195   6.763 -14.571  0.00  0.00    -0.218 OA
ATOM      8  C   UNL     1       3.168   5.605 -12.867  0.00  0.00    +0.007 A 
ATOM      9  C   UNL     1       4.171   4.975 -13.595  0.00  0.00    +0.038 A 
ATOM     10  C   UNL     1       5.513   5.238 -13.321  0.00  0.00    +0.176 A 
ATOM     11  O   UNL     1       6.650   5.093 -14.111  0.00  0.00    -0.435 OA
ATOM     12  C   UNL     1       7.389   6.303 -14.163  0.00  0.00    +0.429 C 
ATOM     13  O   UNL     1       6.894   7.038 -13.060  0.00  0.00    -0.435 OA
ATOM     14  C   UNL     1       5.744   6.396 -12.587  0.00  0.00    +0.176 A 
ATOM     15  C   UNL     1       4.782   6.786 -11.663  0.00  0.00    +0.036 A 
ATOM     16  C   UNL     1       0.108   6.503 -10.508  0.00  0.00    +0.317 C 
ATOM     17  O   UNL     1      -0.401   6.055  -9.434  0.00  0.00    -0.250 OA
ATOM     18  C   UNL     1       3.474   6.340 -11.826  0.00  0.00    -0.016 A 
ENDROOT
BRANCH   1  23
ATOM     19  C   UNL     1       2.942   4.510  -7.562  0.00  0.00    +0.175 A 
ATOM     20  C   UNL     1       4.241   4.908  -7.269  0.00  0.00    +0.206 A 
ATOM     21  C   UNL     1       5.043   5.110  -8.388  0.00  0.00    +0.175 A 
ATOM     22  C   UNL     1       4.450   5.297  -9.630  0.00  0.00    +0.036 A 
ATOM     23  C   UNL     1       3.075   5.273  -9.816  0.00  0.00    -0.012 A 
ATOM     24  C   UNL     1       2.337   4.772  -8.779  0.00  0.00    +0.036 A 
BRANCH  19  26
ATOM     25  C   UNL     1       1.612   3.995  -6.133  0.00  0.00    +0.253 C 
ATOM     26  O   UNL     1       2.221   3.996  -6.482  0.00  0.00    -0.468 OA
ENDBRANCH  19  26
BRANCH  20  27
ATOM     27  O   UNL     1       4.602   5.450  -6.053  0.00  0.00    -0.465 OA
ATOM     28  C   UNL     1       4.157   6.725  -5.597  0.00  0.00    +0.253 C 
ENDBRANCH  20  27
BRANCH  21  29
ATOM     29  O   UNL     1       6.408   5.075  -8.200  0.00  0.00    -0.468 OA
ATOM     30  C   UNL     1       7.364   5.537  -9.116  0.00  0.00    +0.253 C 
ENDBRANCH  21  29
ENDBRANCH   1  23
TORSDOF 4
ENDMDL
MODEL 9
REMARK VINA RESULT:      -6.2      2.137      5.452
REMARK  Name = 
REMARK  4 active torsions:
REMARK  status: ('A' for Active; 'I' for Inactive)
REMARK    1  A    between atoms: O_2  and  C_3
REMARK    2  A    between atoms: C_5  and  C_6
REMARK    3  A    between atoms: C_25  and  O_26
REMARK    4  A    between atoms: C_28  and  O_29
REMARK                            x       y       z     vdW  Elec       q    Type
REMARK                         _______ _______ _______ _____ _____    ______ ____
ROOT
ATOM      1  C   UNL     1       1.492   6.592  -8.102  0.00  0.00    +0.055 C 
ATOM      2  C   UNL     1       1.918   5.319  -9.134  0.00  0.00    +0.113 C 
ATOM      3  C   UNL     1       3.202   6.226  -9.705  0.00  0.00    +0.090 C 
ATOM      4  C   UNL     1       3.181   5.410 -11.079  0.00  0.00    +0.212 C 
ATOM      5  O   UNL     1       1.875   5.855 -11.445  0.00  0.00    -0.448 OA
ATOM      6  C   UNL     1       4.279   5.148  -8.954  0.00  0.00    +0.178 C 
ATOM      7  O   UNL     1       5.384   6.185  -8.999  0.00  0.00    -0.218 OA
ATOM      8  C   UNL     1       3.781   5.594  -7.492  0.00  0.00    +0.007 A 
ATOM      9  C   UNL     1       4.615   5.206  -6.448  0.00  0.00    +0.038 A 
ATOM     10  C   UNL     1       4.589   5.890  -5.233  0.00  0.00    +0.176 A 
ATOM     11  O   UNL     1       5.543   5.993  -4.225  0.00  0.00    -0.435 OA
ATOM     12  C   UNL     1       5.811   7.352  -3.918  0.00  0.00    +0.429 C 
ATOM     13  O   UNL     1       4.701   8.038  -4.466  0.00  0.00    -0.435 OA
ATOM     14  C   UNL     1       3.996   7.146  -5.281  0.00  0.00    +0.176 A 
ATOM     15  C   UNL     1       2.958   7.343  -6.184  0.00  0.00    +0.036 A 
ATOM     16  C   UNL     1       1.023   5.825 -10.333  0.00  0.00    +0.317 C 
ATOM     17  O   UNL     1      -0.153   5.383 -10.527  0.00  0.00    -0.250 OA
ATOM     18  C   UNL     1       2.866   6.510  -7.295  0.00  0.00    -0.016 A 
ENDROOT
BRANCH   1  23
ATOM     19  C   UNL     1      -1.479   5.580  -6.199  0.00  0.00    +0.175 A 
ATOM     20  C   UNL     1      -1.101   6.139  -4.984  0.00  0.00    +0.206 A 
ATOM     21  C   UNL     1       0.261   6.050  -4.713  0.00  0.00    +0.175 A 
ATOM     22  C   UNL     1       1.150   5.810  -5.751  0.00  0.00    +0.036 A 
ATOM     23  C   UNL     1       0.740   5.633  -7.065  0.00  0.00    -0.012 A 
ATOM     24  C   UNL     1      -0.597   5.418  -7.253  0.00  0.00    +0.036 A 
BRANCH  19  26
ATOM     25  C   UNL     1      -3.420   5.031  -6.118  0.00  0.00    +0.253 C 
ATOM     26  O   UNL     1      -2.851   5.366  -6.353  0.00  0.00    -0.468 OA
ENDBRANCH  19  26
BRANCH  20  27
ATOM     27  O   UNL     1      -1.884   7.048  -4.302  0.00  0.00    -0.465 OA
ATOM     28  C   UNL     1      -1.858   8.450  -4.550  0.00  0.00    +0.253 C 
ENDBRANCH  20  27
BRANCH  21  29
ATOM     29  O   UNL     1       0.650   6.171  -3.396  0.00  0.00    -0.468 OA
ATOM     30  C   UNL     1       1.742   5.514  -2.812  0.00  0.00    +0.253 C 
ENDBRANCH  21  29
ENDBRANCH   1  23
TORSDOF 4
ENDMDL
