MODEL 1
REMARK VINA RESULT:      -8.3      0.000      0.000
REMARK  Name = 
REMARK  9 active torsions:
REMARK  status: ('A' for Active; 'I' for Inactive)
REMARK    1  A    between atoms: C_2  and  O_3
REMARK    2  A    between atoms: O_3  and  C_4
REMARK    3  A    between atoms: C_4  and  O_6
REMARK    4  A    between atoms: O_6  and  C_7
REMARK    5  A    between atoms: C_7  and  C_8
REMARK    6  A    between atoms: C_8  and  C_10
REMARK    7  A    between atoms: C_10  and  O_11
REMARK    8  A    between atoms: O_11  and  C_12
REMARK    9  A    between atoms: C_12  and  C_14
REMARK                            x       y       z     vdW  Elec       q    Type
REMARK                         _______ _______ _______ _____ _____    ______ ____
ROOT
ATOM      1  C   UNL     1       2.577   5.835  -7.265  0.00  0.00    +0.193 C 
ATOM      2  C   UNL     1       3.087   5.995  -5.865  0.00  0.00    +0.043 C 
ATOM      3  C   UNL     1       1.611   6.057  -5.159  0.00  0.00    +0.004 C 
ATOM      4  C   UNL     1       2.229   5.604  -3.628  0.00  0.00    +0.003 C 
ATOM      5  C   UNL     1       2.814   7.161  -3.331  0.00  0.00    +0.038 C 
ATOM      6  C   UNL     1       4.350   6.748  -4.014  0.00  0.00    +0.153 C 
ATOM      7  O   UNL     1       4.901   8.161  -3.751  0.00  0.00    -0.223 OA
ATOM      8  C   UNL     1       3.279   6.816  -1.831  0.00  0.00    +0.036 C 
ATOM      9  C   UNL     1       2.073   6.751  -0.984  0.00  0.00    -0.038 C 
ATOM     10  C   UNL     1       2.245   6.954   0.323  0.00  0.00    +0.034 C 
ATOM     11  C   UNL     1       3.580   7.275   0.844  0.00  0.00    +0.195 C 
ATOM     12  C   UNL     1       4.533   7.857  -0.109  0.00  0.00    +0.038 C 
ATOM     13  O   UNL     1       3.860   7.183   2.077  0.00  0.00    -0.287 OA
ATOM     14  C   UNL     1       1.017   5.787  -1.426  0.00  0.00    +0.022 C 
ATOM     15  C   UNL     1       4.014   5.535  -1.816  0.00  0.00    +0.009 C 
ATOM     16  C   UNL     1       4.119   7.946  -1.354  0.00  0.00    -0.020 C 
ATOM     17  C   UNL     1       0.813   5.930  -2.911  0.00  0.00    +0.004 C 
ATOM     18  C   UNL     1       1.351   4.505  -5.628  0.00  0.00    +0.004 C 
ATOM     19  C   UNL     1       3.704   4.695  -5.488  0.00  0.00    +0.004 C 
ATOM     20  C   UNL     1       3.817   7.214  -5.533  0.00  0.00    +0.037 C 
ATOM     21  C   UNL     1       1.730   4.609  -7.105  0.00  0.00    +0.048 C 
ENDROOT
BRANCH   1  22
ATOM     22  C   UNL     1       1.865   7.010  -7.793  0.00  0.00    +0.230 C 
ATOM     23  O   UNL     1       2.487   8.048  -8.016  0.00  0.00    -0.288 OA
BRANCH  22  24
ATOM     24  C   UNL     1       0.644   6.870  -8.654  0.00  0.00    +0.276 C 
BRANCH  24  25
ATOM     25  O   UNL     1       1.017   7.219  -9.986  0.00  0.00    -0.440 OA
BRANCH  25  26
ATOM     26  C   UNL     1       0.137   6.787 -10.984  0.00  0.00    +0.317 C 
ATOM     27  O   UNL     1      -0.739   7.588 -11.426  0.00  0.00    -0.250 OA
BRANCH  26  28
ATOM     28  C   UNL     1       0.479   5.534 -11.687  0.00  0.00    +0.110 C 
ATOM     29  C   UNL     1       0.065   4.319 -10.893  0.00  0.00    +0.012 C 
ENDBRANCH  26  28
ENDBRANCH  25  26
ENDBRANCH  24  25
ENDBRANCH  22  24
ENDBRANCH   1  22
BRANCH   1  30
ATOM     30  O   UNL     1       3.737   5.643  -8.054  0.00  0.00    -0.418 OA
BRANCH  30  31
ATOM     31  C   UNL     1       3.776   4.911  -9.213  0.00  0.00    +0.512 C 
ATOM     32  O   UNL     1       3.811   3.661  -9.074  0.00  0.00    -0.203 OA
BRANCH  31  33
ATOM     33  O   UNL     1       3.773   5.578 -10.411  0.00  0.00    -0.418 OA
BRANCH  33  35
ATOM     34  C   UNL     1       5.973   6.318 -10.640  0.00  0.00    +0.051 C 
ATOM     35  C   UNL     1       4.543   6.775 -10.502  0.00  0.00    +0.212 C 
ENDBRANCH  33  35
ENDBRANCH  31  33
ENDBRANCH  30  31
ENDBRANCH   1  30
TORSDOF 9
ENDMDL
MODEL 2
REMARK VINA RESULT:      -7.6      2.506      7.804
REMARK  Name = 
REMARK  9 active torsions:
REMARK  status: ('A' for Active; 'I' for Inactive)
REMARK    1  A    between atoms: C_2  and  O_3
REMARK    2  A    between atoms: O_3  and  C_4
REMARK    3  A    between atoms: C_4  and  O_6
REMARK    4  A    between atoms: O_6  and  C_7
REMARK    5  A    between atoms: C_7  and  C_8
REMARK    6  A    between atoms: C_8  and  C_10
REMARK    7  A    between atoms: C_10  and  O_11
REMARK    8  A    between atoms: O_11  and  C_12
REMARK    9  A    between atoms: C_12  and  C_14
REMARK                            x       y       z     vdW  Elec       q    Type
REMARK                         _______ _______ _______ _____ _____    ______ ____
ROOT
ATOM      1  C   UNL     1       0.829   5.716  -6.114  0.00  0.00    +0.193 C 
ATOM      2  C   UNL     1       1.671   5.878  -7.344  0.00  0.00    +0.043 C 
ATOM      3  C   UNL     1       3.064   5.358  -6.658  0.00  0.00    +0.004 C 
ATOM      4  C   UNL     1       3.764   4.968  -8.171  0.00  0.00    +0.003 C 
ATOM      5  C   UNL     1       4.126   6.587  -8.493  0.00  0.00    +0.038 C 
ATOM      6  C   UNL     1       2.614   6.797  -9.307  0.00  0.00    +0.153 C 
ATOM      7  O   UNL     1       2.927   8.272  -9.610  0.00  0.00    -0.223 OA
ATOM      8  C   UNL     1       4.921   6.250  -9.849  0.00  0.00    +0.036 C 
ATOM      9  C   UNL     1       6.234   5.686  -9.481  0.00  0.00    -0.038 C 
ATOM     10  C   UNL     1       7.206   5.785 -10.389  0.00  0.00    +0.034 C 
ATOM     11  C   UNL     1       6.953   6.475 -11.660  0.00  0.00    +0.195 C 
ATOM     12  C   UNL     1       5.856   7.449 -11.669  0.00  0.00    +0.038 C 
ATOM     13  O   UNL     1       7.721   6.343 -12.660  0.00  0.00    -0.287 OA
ATOM     14  C   UNL     1       6.200   4.479  -8.596  0.00  0.00    +0.022 C 
ATOM     15  C   UNL     1       4.140   5.299 -10.665  0.00  0.00    +0.009 C 
ATOM     16  C   UNL     1       5.153   7.535 -10.561  0.00  0.00    -0.020 C 
ATOM     17  C   UNL     1       5.210   4.714  -7.486  0.00  0.00    +0.004 C 
ATOM     18  C   UNL     1       2.387   3.873  -6.472  0.00  0.00    +0.004 C 
ATOM     19  C   UNL     1       1.229   4.828  -8.301  0.00  0.00    +0.004 C 
ATOM     20  C   UNL     1       1.879   7.226  -7.863  0.00  0.00    +0.037 C 
ATOM     21  C   UNL     1       1.065   4.267  -5.815  0.00  0.00    +0.048 C 
ENDROOT
BRANCH   1  22
ATOM     22  C   UNL     1       1.171   6.634  -5.016  0.00  0.00    +0.230 C 
ATOM     23  O   UNL     1       0.678   7.762  -4.991  0.00  0.00    -0.288 OA
BRANCH  22  24
ATOM     24  C   UNL     1       1.529   6.128  -3.649  0.00  0.00    +0.276 C 
BRANCH  24  25
ATOM     25  O   UNL     1       2.725   6.791  -3.247  0.00  0.00    -0.440 OA
BRANCH  25  26
ATOM     26  C   UNL     1       3.841   5.962  -3.088  0.00  0.00    +0.317 C 
ATOM     27  O   UNL     1       3.695   4.822  -2.553  0.00  0.00    -0.250 OA
BRANCH  26  28
ATOM     28  C   UNL     1       5.062   6.326  -3.834  0.00  0.00    +0.110 C 
ATOM     29  C   UNL     1       4.975   7.723  -4.398  0.00  0.00    +0.012 C 
ENDBRANCH  26  28
ENDBRANCH  25  26
ENDBRANCH  24  25
ENDBRANCH  22  24
ENDBRANCH   1  22
BRANCH   1  30
ATOM     30  O   UNL     1      -0.489   6.017  -6.535  0.00  0.00    -0.418 OA
BRANCH  30  31
ATOM     31  C   UNL     1      -1.623   5.490  -5.975  0.00  0.00    +0.512 C 
ATOM     32  O   UNL     1      -2.417   4.922  -6.768  0.00  0.00    -0.203 OA
BRANCH  31  33
ATOM     33  O   UNL     1      -1.807   5.614  -4.621  0.00  0.00    -0.418 OA
BRANCH  33  35
ATOM     34  C   UNL     1      -3.294   6.163  -2.910  0.00  0.00    +0.051 C 
ATOM     35  C   UNL     1      -2.635   6.682  -4.163  0.00  0.00    +0.212 C 
ENDBRANCH  33  35
ENDBRANCH  31  33
ENDBRANCH  30  31
ENDBRANCH   1  30
TORSDOF 9
ENDMDL
MODEL 3
REMARK VINA RESULT:      -7.6      2.733      9.369
REMARK  Name = 
REMARK  9 active torsions:
REMARK  status: ('A' for Active; 'I' for Inactive)
REMARK    1  A    between atoms: C_2  and  O_3
REMARK    2  A    between atoms: O_3  and  C_4
REMARK    3  A    between atoms: C_4  and  O_6
REMARK    4  A    between atoms: O_6  and  C_7
REMARK    5  A    between atoms: C_7  and  C_8
REMARK    6  A    between atoms: C_8  and  C_10
REMARK    7  A    between atoms: C_10  and  O_11
REMARK    8  A    between atoms: O_11  and  C_12
REMARK    9  A    between atoms: C_12  and  C_14
REMARK                            x       y       z     vdW  Elec       q    Type
REMARK                         _______ _______ _______ _____ _____    ______ ____
ROOT
ATOM      1  C   UNL     1       1.843   5.451  -8.078  0.00  0.00    +0.193 C 
ATOM      2  C   UNL     1       1.387   5.624  -9.495  0.00  0.00    +0.043 C 
ATOM      3  C   UNL     1       2.880   5.867 -10.120  0.00  0.00    +0.004 C 
ATOM      4  C   UNL     1       2.386   5.426 -11.699  0.00  0.00    +0.003 C 
ATOM      5  C   UNL     1       1.659   6.928 -11.960  0.00  0.00    +0.038 C 
ATOM      6  C   UNL     1       0.143   6.333 -11.376  0.00  0.00    +0.153 C 
ATOM      7  O   UNL     1      -0.536   7.694 -11.609  0.00  0.00    -0.223 OA
ATOM      8  C   UNL     1       1.305   6.608 -13.495  0.00  0.00    +0.036 C 
ATOM      9  C   UNL     1       2.550   6.704 -14.281  0.00  0.00    -0.038 C 
ATOM     10  C   UNL     1       2.420   6.949 -15.585  0.00  0.00    +0.034 C 
ATOM     11  C   UNL     1       1.086   7.159 -16.162  0.00  0.00    +0.195 C 
ATOM     12  C   UNL     1       0.035   7.598 -15.237  0.00  0.00    +0.038 C 
ATOM     13  O   UNL     1       0.877   7.096 -17.410  0.00  0.00    -0.287 OA
ATOM     14  C   UNL     1       3.677   5.831 -13.825  0.00  0.00    +0.022 C 
ATOM     15  C   UNL     1       0.706   5.263 -13.602  0.00  0.00    +0.009 C 
ATOM     16  C   UNL     1       0.377   7.670 -13.969  0.00  0.00    -0.020 C 
ATOM     17  C   UNL     1       3.794   5.925 -12.326  0.00  0.00    +0.004 C 
ATOM     18  C   UNL     1       3.276   4.328  -9.702  0.00  0.00    +0.004 C 
ATOM     19  C   UNL     1       0.924   4.288  -9.957  0.00  0.00    +0.004 C 
ATOM     20  C   UNL     1       0.553   6.779  -9.813  0.00  0.00    +0.037 C 
ATOM     21  C   UNL     1       2.818   4.325  -8.244  0.00  0.00    +0.048 C 
ENDROOT
BRANCH   1  22
ATOM     22  C   UNL     1       2.405   6.666  -7.466  0.00  0.00    +0.230 C 
ATOM     23  O   UNL     1       1.653   7.580  -7.127  0.00  0.00    -0.288 OA
BRANCH  22  24
ATOM     24  C   UNL     1       3.670   6.628  -6.659  0.00  0.00    +0.276 C 
BRANCH  24  25
ATOM     25  O   UNL     1       3.532   7.574  -5.601  0.00  0.00    -0.440 OA
BRANCH  25  26
ATOM     26  C   UNL     1       3.482   7.026  -4.314  0.00  0.00    +0.317 C 
ATOM     27  O   UNL     1       2.355   6.821  -3.772  0.00  0.00    -0.250 OA
BRANCH  26  28
ATOM     28  C   UNL     1       4.725   6.428  -3.789  0.00  0.00    +0.110 C 
ATOM     29  C   UNL     1       4.539   4.971  -3.442  0.00  0.00    +0.012 C 
ENDBRANCH  26  28
ENDBRANCH  25  26
ENDBRANCH  24  25
ENDBRANCH  22  24
ENDBRANCH   1  22
BRANCH   1  30
ATOM     30  O   UNL     1       0.673   5.107  -7.359  0.00  0.00    -0.418 OA
BRANCH  30  31
ATOM     31  C   UNL     1       0.659   4.663  -6.062  0.00  0.00    +0.512 C 
ATOM     32  O   UNL     1       1.533   3.810  -5.763  0.00  0.00    -0.203 OA
BRANCH  31  33
ATOM     33  O   UNL     1      -0.284   5.169  -5.204  0.00  0.00    -0.418 OA
BRANCH  33  35
ATOM     34  C   UNL     1      -2.403   5.557  -6.099  0.00  0.00    +0.051 C 
ATOM     35  C   UNL     1      -1.115   6.224  -5.686  0.00  0.00    +0.212 C 
ENDBRANCH  33  35
ENDBRANCH  31  33
ENDBRANCH  30  31
ENDBRANCH   1  30
TORSDOF 9
ENDMDL
MODEL 4
REMARK VINA RESULT:      -7.6      1.560      2.164
REMARK  Name = 
REMARK  9 active torsions:
REMARK  status: ('A' for Active; 'I' for Inactive)
REMARK    1  A    between atoms: C_2  and  O_3
REMARK    2  A    between atoms: O_3  and  C_4
REMARK    3  A    between atoms: C_4  and  O_6
REMARK    4  A    between atoms: O_6  and  C_7
REMARK    5  A    between atoms: C_7  and  C_8
REMARK    6  A    between atoms: C_8  and  C_10
REMARK    7  A    between atoms: C_10  and  O_11
REMARK    8  A    between atoms: O_11  and  C_12
REMARK    9  A    between atoms: C_12  and  C_14
REMARK                            x       y       z     vdW  Elec       q    Type
REMARK                         _______ _______ _______ _____ _____    ______ ____
ROOT
ATOM      1  C   UNL     1       3.151   5.571  -6.834  0.00  0.00    +0.193 C 
ATOM      2  C   UNL     1       3.507   5.890  -5.413  0.00  0.00    +0.043 C 
ATOM      3  C   UNL     1       1.975   5.821  -4.841  0.00  0.00    +0.004 C 
ATOM      4  C   UNL     1       2.495   5.555  -3.232  0.00  0.00    +0.003 C 
ATOM      5  C   UNL     1       2.867   7.189  -3.014  0.00  0.00    +0.038 C 
ATOM      6  C   UNL     1       4.497   6.920  -3.530  0.00  0.00    +0.153 C 
ATOM      7  O   UNL     1       4.854   8.404  -3.337  0.00  0.00    -0.223 OA
ATOM      8  C   UNL     1       3.227   7.009  -1.457  0.00  0.00    +0.036 C 
ATOM      9  C   UNL     1       1.963   6.857  -0.712  0.00  0.00    -0.038 C 
ATOM     10  C   UNL     1       1.988   7.171   0.584  0.00  0.00    +0.034 C 
ATOM     11  C   UNL     1       3.223   7.688   1.188  0.00  0.00    +0.195 C 
ATOM     12  C   UNL     1       4.186   8.314   0.275  0.00  0.00    +0.038 C 
ATOM     13  O   UNL     1       3.395   7.717   2.443  0.00  0.00    -0.287 OA
ATOM     14  C   UNL     1       1.071   5.743  -1.162  0.00  0.00    +0.022 C 
ATOM     15  C   UNL     1       4.099   5.832  -1.277  0.00  0.00    +0.009 C 
ATOM     16  C   UNL     1       3.883   8.264  -1.004  0.00  0.00    -0.020 C 
ATOM     17  C   UNL     1       0.991   5.756  -2.666  0.00  0.00    +0.004 C 
ATOM     18  C   UNL     1       1.939   4.219  -5.204  0.00  0.00    +0.004 C 
ATOM     19  C   UNL     1       4.232   4.705  -4.882  0.00  0.00    +0.004 C 
ATOM     20  C   UNL     1       4.057   7.209  -5.121  0.00  0.00    +0.037 C 
ATOM     21  C   UNL     1       2.440   4.266  -6.647  0.00  0.00    +0.048 C 
ENDROOT
BRANCH   1  22
ATOM     22  C   UNL     1       2.360   6.610  -7.512  0.00  0.00    +0.230 C 
ATOM     23  O   UNL     1       2.937   7.523  -8.105  0.00  0.00    -0.288 OA
BRANCH  22  24
ATOM     24  C   UNL     1       1.000   6.322  -8.077  0.00  0.00    +0.276 C 
BRANCH  24  25
ATOM     25  O   UNL     1       0.038   6.742  -7.111  0.00  0.00    -0.440 OA
BRANCH  25  26
ATOM     26  C   UNL     1      -0.987   5.824  -6.854  0.00  0.00    +0.317 C 
ATOM     27  O   UNL     1      -1.034   4.746  -7.518  0.00  0.00    -0.250 OA
BRANCH  26  28
ATOM     28  C   UNL     1      -1.766   6.016  -5.615  0.00  0.00    +0.110 C 
ATOM     29  C   UNL     1      -1.469   7.347  -4.969  0.00  0.00    +0.012 C 
ENDBRANCH  26  28
ENDBRANCH  25  26
ENDBRANCH  24  25
ENDBRANCH  22  24
ENDBRANCH   1  22
BRANCH   1  30
ATOM     30  O   UNL     1       4.394   5.467  -7.505  0.00  0.00    -0.418 OA
BRANCH  30  31
ATOM     31  C   UNL     1       4.546   5.036  -8.797  0.00  0.00    +0.512 C 
ATOM     32  O   UNL     1       3.928   3.984  -9.104  0.00  0.00    -0.203 OA
BRANCH  31  33
ATOM     33  O   UNL     1       5.341   5.766  -9.643  0.00  0.00    -0.418 OA
BRANCH  33  35
ATOM     34  C   UNL     1       7.335   6.745 -10.354  0.00  0.00    +0.051 C 
ATOM     35  C   UNL     1       6.753   5.679  -9.461  0.00  0.00    +0.212 C 
ENDBRANCH  33  35
ENDBRANCH  31  33
ENDBRANCH  30  31
ENDBRANCH   1  30
TORSDOF 9
ENDMDL
MODEL 5
REMARK VINA RESULT:      -7.5      2.161      2.966
REMARK  Name = 
REMARK  9 active torsions:
REMARK  status: ('A' for Active; 'I' for Inactive)
REMARK    1  A    between atoms: C_2  and  O_3
REMARK    2  A    between atoms: O_3  and  C_4
REMARK    3  A    between atoms: C_4  and  O_6
REMARK    4  A    between atoms: O_6  and  C_7
REMARK    5  A    between atoms: C_7  and  C_8
REMARK    6  A    between atoms: C_8  and  C_10
REMARK    7  A    between atoms: C_10  and  O_11
REMARK    8  A    between atoms: O_11  and  C_12
REMARK    9  A    between atoms: C_12  and  C_14
REMARK                            x       y       z     vdW  Elec       q    Type
REMARK                         _______ _______ _______ _____ _____    ______ ____
ROOT
ATOM      1  C   UNL     1       1.675   5.696  -7.169  0.00  0.00    +0.193 C 
ATOM      2  C   UNL     1       1.333   5.640  -5.710  0.00  0.00    +0.043 C 
ATOM      3  C   UNL     1      -0.096   6.427  -5.846  0.00  0.00    +0.004 C 
ATOM      4  C   UNL     1      -0.687   5.787  -4.373  0.00  0.00    +0.003 C 
ATOM      5  C   UNL     1       0.219   6.882  -3.459  0.00  0.00    +0.038 C 
ATOM      6  C   UNL     1       1.533   5.760  -3.358  0.00  0.00    +0.153 C 
ATOM      7  O   UNL     1       2.372   6.743  -2.524  0.00  0.00    -0.223 OA
ATOM      8  C   UNL     1      -0.421   6.409  -2.062  0.00  0.00    +0.036 C 
ATOM      9  C   UNL     1      -1.787   6.960  -1.976  0.00  0.00    -0.038 C 
ATOM     10  C   UNL     1      -2.302   7.101  -0.754  0.00  0.00    +0.034 C 
ATOM     11  C   UNL     1      -1.495   6.760   0.425  0.00  0.00    +0.195 C 
ATOM     12  C   UNL     1      -0.038   6.781   0.249  0.00  0.00    +0.038 C 
ATOM     13  O   UNL     1      -2.014   6.588   1.568  0.00  0.00    -0.287 OA
ATOM     14  C   UNL     1      -2.705   6.606  -3.104  0.00  0.00    +0.022 C 
ATOM     15  C   UNL     1      -0.433   4.934  -1.989  0.00  0.00    +0.009 C 
ATOM     16  C   UNL     1       0.391   7.014  -0.973  0.00  0.00    -0.020 C 
ATOM     17  C   UNL     1      -1.969   6.777  -4.407  0.00  0.00    +0.004 C 
ATOM     18  C   UNL     1      -0.670   5.175  -6.741  0.00  0.00    +0.004 C 
ATOM     19  C   UNL     1       1.028   4.218  -5.401  0.00  0.00    +0.004 C 
ATOM     20  C   UNL     1       2.183   6.371  -4.776  0.00  0.00    +0.037 C 
ATOM     21  C   UNL     1       0.465   5.033  -7.754  0.00  0.00    +0.048 C 
ENDROOT
BRANCH   1  22
ATOM     22  C   UNL     1       1.942   7.049  -7.681  0.00  0.00    +0.230 C 
ATOM     23  O   UNL     1       3.003   7.608  -7.398  0.00  0.00    -0.288 OA
BRANCH  22  24
ATOM     24  C   UNL     1       1.366   7.528  -8.981  0.00  0.00    +0.276 C 
BRANCH  24  25
ATOM     25  O   UNL     1       1.992   6.788 -10.027  0.00  0.00    -0.440 OA
BRANCH  25  26
ATOM     26  C   UNL     1       1.123   6.267 -10.992  0.00  0.00    +0.317 C 
ATOM     27  O   UNL     1       1.188   5.034 -11.281  0.00  0.00    -0.250 OA
BRANCH  26  28
ATOM     28  C   UNL     1      -0.024   7.106 -11.388  0.00  0.00    +0.110 C 
ATOM     29  C   UNL     1       0.123   7.622 -12.798  0.00  0.00    +0.012 C 
ENDBRANCH  26  28
ENDBRANCH  25  26
ENDBRANCH  24  25
ENDBRANCH  22  24
ENDBRANCH   1  22
BRANCH   1  30
ATOM     30  O   UNL     1       2.868   4.944  -7.291  0.00  0.00    -0.418 OA
BRANCH  30  31
ATOM     31  C   UNL     1       3.258   4.284  -8.428  0.00  0.00    +0.512 C 
ATOM     32  O   UNL     1       2.648   3.213  -8.680  0.00  0.00    -0.203 OA
BRANCH  31  33
ATOM     33  O   UNL     1       4.259   4.827  -9.192  0.00  0.00    -0.418 OA
BRANCH  33  35
ATOM     34  C   UNL     1       6.353   5.768  -9.607  0.00  0.00    +0.051 C 
ATOM     35  C   UNL     1       5.436   5.271  -8.518  0.00  0.00    +0.212 C 
ENDBRANCH  33  35
ENDBRANCH  31  33
ENDBRANCH  30  31
ENDBRANCH   1  30
TORSDOF 9
ENDMDL
MODEL 6
REMARK VINA RESULT:      -7.4      1.693      4.047
REMARK  Name = 
REMARK  9 active torsions:
REMARK  status: ('A' for Active; 'I' for Inactive)
REMARK    1  A    between atoms: C_2  and  O_3
REMARK    2  A    between atoms: O_3  and  C_4
REMARK    3  A    between atoms: C_4  and  O_6
REMARK    4  A    between atoms: O_6  and  C_7
REMARK    5  A    between atoms: C_7  and  C_8
REMARK    6  A    between atoms: C_8  and  C_10
REMARK    7  A    between atoms: C_10  and  O_11
REMARK    8  A    between atoms: O_11  and  C_12
REMARK    9  A    between atoms: C_12  and  C_14
REMARK                            x       y       z     vdW  Elec       q    Type
REMARK                         _______ _______ _______ _____ _____    ______ ____
ROOT
ATOM      1  C   UNL     1       1.983   5.709  -8.431  0.00  0.00    +0.193 C 
ATOM      2  C   UNL     1       1.961   5.834  -6.937  0.00  0.00    +0.043 C 
ATOM      3  C   UNL     1       3.497   6.379  -6.796  0.00  0.00    +0.004 C 
ATOM      4  C   UNL     1       3.201   7.075  -5.260  0.00  0.00    +0.003 C 
ATOM      5  C   UNL     1       3.300   5.575  -4.489  0.00  0.00    +0.038 C 
ATOM      6  C   UNL     1       1.593   5.341  -4.655  0.00  0.00    +0.153 C 
ATOM      7  O   UNL     1       1.664   3.973  -3.954  0.00  0.00    -0.223 OA
ATOM      8  C   UNL     1       3.170   6.204  -3.016  0.00  0.00    +0.036 C 
ATOM      9  C   UNL     1       4.459   6.835  -2.674  0.00  0.00    -0.038 C 
ATOM     10  C   UNL     1       4.730   6.983  -1.376  0.00  0.00    +0.034 C 
ATOM     11  C   UNL     1       3.786   6.481  -0.369  0.00  0.00    +0.195 C 
ATOM     12  C   UNL     1       2.877   5.413  -0.799  0.00  0.00    +0.038 C 
ATOM     13  O   UNL     1       3.837   6.850   0.842  0.00  0.00    -0.287 OA
ATOM     14  C   UNL     1       4.949   7.876  -3.631  0.00  0.00    +0.022 C 
ATOM     15  C   UNL     1       2.068   7.186  -2.985  0.00  0.00    +0.009 C 
ATOM     16  C   UNL     1       2.941   5.079  -2.070  0.00  0.00    -0.020 C 
ATOM     17  C   UNL     1       4.779   7.366  -5.038  0.00  0.00    +0.004 C 
ATOM     18  C   UNL     1       3.062   7.738  -7.611  0.00  0.00    +0.004 C 
ATOM     19  C   UNL     1       1.056   6.970  -6.620  0.00  0.00    +0.004 C 
ATOM     20  C   UNL     1       1.822   4.614  -6.147  0.00  0.00    +0.037 C 
ATOM     21  C   UNL     1       2.358   7.109  -8.812  0.00  0.00    +0.048 C 
ENDROOT
BRANCH   1  22
ATOM     22  C   UNL     1       2.888   4.669  -8.943  0.00  0.00    +0.230 C 
ATOM     23  O   UNL     1       2.552   3.486  -8.882  0.00  0.00    -0.288 OA
BRANCH  22  24
ATOM     24  C   UNL     1       3.845   4.941 -10.067  0.00  0.00    +0.276 C 
BRANCH  24  25
ATOM     25  O   UNL     1       5.159   4.968  -9.514  0.00  0.00    -0.440 OA
BRANCH  25  26
ATOM     26  C   UNL     1       5.963   6.032  -9.938  0.00  0.00    +0.317 C 
ATOM     27  O   UNL     1       7.213   5.982  -9.737  0.00  0.00    -0.250 OA
BRANCH  26  28
ATOM     28  C   UNL     1       5.358   7.002 -10.872  0.00  0.00    +0.110 C 
ATOM     29  C   UNL     1       6.368   8.011 -11.360  0.00  0.00    +0.012 C 
ENDBRANCH  26  28
ENDBRANCH  25  26
ENDBRANCH  24  25
ENDBRANCH  22  24
ENDBRANCH   1  22
BRANCH   1  30
ATOM     30  O   UNL     1       0.661   5.344  -8.784  0.00  0.00    -0.418 OA
BRANCH  30  31
ATOM     31  C   UNL     1       0.176   5.324 -10.066  0.00  0.00    +0.512 C 
ATOM     32  O   UNL     1      -0.226   4.209 -10.486  0.00  0.00    -0.203 OA
BRANCH  31  33
ATOM     33  O   UNL     1       0.161   6.495 -10.781  0.00  0.00    -0.418 OA
BRANCH  33  35
ATOM     34  C   UNL     1       0.142   7.631 -12.818  0.00  0.00    +0.051 C 
ATOM     35  C   UNL     1       0.781   6.491 -12.066  0.00  0.00    +0.212 C 
ENDBRANCH  33  35
ENDBRANCH  31  33
ENDBRANCH  30  31
ENDBRANCH   1  30
TORSDOF 9
ENDMDL
MODEL 7
REMARK VINA RESULT:      -7.4      2.552      8.903
REMARK  Name = 
REMARK  9 active torsions:
REMARK  status: ('A' for Active; 'I' for Inactive)
REMARK    1  A    between atoms: C_2  and  O_3
REMARK    2  A    between atoms: O_3  and  C_4
REMARK    3  A    between atoms: C_4  and  O_6
REMARK    4  A    between atoms: O_6  and  C_7
REMARK    5  A    between atoms: C_7  and  C_8
REMARK    6  A    between atoms: C_8  and  C_10
REMARK    7  A    between atoms: C_10  and  O_11
REMARK    8  A    between atoms: O_11  and  C_12
REMARK    9  A    between atoms: C_12  and  C_14
REMARK                            x       y       z     vdW  Elec       q    Type
REMARK                         _______ _______ _______ _____ _____    ______ ____
ROOT
ATOM      1  C   UNL     1       2.833   5.693  -7.645  0.00  0.00    +0.193 C 
ATOM      2  C   UNL     1       3.255   5.595  -9.080  0.00  0.00    +0.043 C 
ATOM      3  C   UNL     1       4.752   6.217  -8.854  0.00  0.00    +0.004 C 
ATOM      4  C   UNL     1       5.357   5.511 -10.292  0.00  0.00    +0.003 C 
ATOM      5  C   UNL     1       4.637   6.698 -11.254  0.00  0.00    +0.038 C 
ATOM      6  C   UNL     1       3.214   5.730 -11.440  0.00  0.00    +0.153 C 
ATOM      7  O   UNL     1       2.543   6.799 -12.319  0.00  0.00    -0.223 OA
ATOM      8  C   UNL     1       5.304   6.152 -12.611  0.00  0.00    +0.036 C 
ATOM      9  C   UNL     1       6.725   6.547 -12.612  0.00  0.00    -0.038 C 
ATOM     10  C   UNL     1       7.327   6.626 -13.800  0.00  0.00    +0.034 C 
ATOM     11  C   UNL     1       6.560   6.375 -15.026  0.00  0.00    +0.195 C 
ATOM     12  C   UNL     1       5.106   6.559 -14.940  0.00  0.00    +0.038 C 
ATOM     13  O   UNL     1       7.126   6.142 -16.136  0.00  0.00    -0.287 OA
ATOM     14  C   UNL     1       7.527   6.095 -11.432  0.00  0.00    +0.022 C 
ATOM     15  C   UNL     1       5.155   4.686 -12.689  0.00  0.00    +0.009 C 
ATOM     16  C   UNL     1       4.633   6.842 -13.746  0.00  0.00    -0.020 C 
ATOM     17  C   UNL     1       6.737   6.351 -10.175  0.00  0.00    +0.004 C 
ATOM     18  C   UNL     1       5.127   4.911  -7.931  0.00  0.00    +0.004 C 
ATOM     19  C   UNL     1       3.417   4.147  -9.377  0.00  0.00    +0.004 C 
ATOM     20  C   UNL     1       2.551   6.414 -10.061  0.00  0.00    +0.037 C 
ATOM     21  C   UNL     1       3.923   4.900  -6.990  0.00  0.00    +0.048 C 
ENDROOT
BRANCH   1  22
ATOM     22  C   UNL     1       2.688   7.069  -7.144  0.00  0.00    +0.230 C 
ATOM     23  O   UNL     1       1.951   7.857  -7.738  0.00  0.00    -0.288 OA
BRANCH  22  24
ATOM     24  C   UNL     1       2.831   7.396  -5.687  0.00  0.00    +0.276 C 
BRANCH  24  25
ATOM     25  O   UNL     1       4.203   7.700  -5.448  0.00  0.00    -0.440 OA
BRANCH  25  26
ATOM     26  C   UNL     1       4.763   7.085  -4.323  0.00  0.00    +0.317 C 
ATOM     27  O   UNL     1       5.946   7.383  -3.979  0.00  0.00    -0.250 OA
BRANCH  26  28
ATOM     28  C   UNL     1       3.843   6.366  -3.421  0.00  0.00    +0.110 C 
ATOM     29  C   UNL     1       4.270   4.933  -3.215  0.00  0.00    +0.012 C 
ENDBRANCH  26  28
ENDBRANCH  25  26
ENDBRANCH  24  25
ENDBRANCH  22  24
ENDBRANCH   1  22
BRANCH   1  30
ATOM     30  O   UNL     1       1.558   5.079  -7.599  0.00  0.00    -0.418 OA
BRANCH  30  31
ATOM     31  C   UNL     1       0.959   4.616  -6.456  0.00  0.00    +0.512 C 
ATOM     32  O   UNL     1       1.483   3.600  -5.932  0.00  0.00    -0.203 OA
BRANCH  31  33
ATOM     33  O   UNL     1      -0.142   5.280  -5.977  0.00  0.00    -0.418 OA
BRANCH  33  35
ATOM     34  C   UNL     1      -2.360   6.001  -5.978  0.00  0.00    +0.051 C 
ATOM     35  C   UNL     1      -1.298   5.328  -6.811  0.00  0.00    +0.212 C 
ENDBRANCH  33  35
ENDBRANCH  31  33
ENDBRANCH  30  31
ENDBRANCH   1  30
TORSDOF 9
ENDMDL
MODEL 8
REMARK VINA RESULT:      -7.3      2.017      8.751
REMARK  Name = 
REMARK  9 active torsions:
REMARK  status: ('A' for Active; 'I' for Inactive)
REMARK    1  A    between atoms: C_2  and  O_3
REMARK    2  A    between atoms: O_3  and  C_4
REMARK    3  A    between atoms: C_4  and  O_6
REMARK    4  A    between atoms: O_6  and  C_7
REMARK    5  A    between atoms: C_7  and  C_8
REMARK    6  A    between atoms: C_8  and  C_10
REMARK    7  A    between atoms: C_10  and  O_11
REMARK    8  A    between atoms: O_11  and  C_12
REMARK    9  A    between atoms: C_12  and  C_14
REMARK                            x       y       z     vdW  Elec       q    Type
REMARK                         _______ _______ _______ _____ _____    ______ ____
ROOT
ATOM      1  C   UNL     1       3.176   5.853  -3.092  0.00  0.00    +0.193 C 
ATOM      2  C   UNL     1       2.761   5.744  -4.528  0.00  0.00    +0.043 C 
ATOM      3  C   UNL     1       4.257   5.979  -5.149  0.00  0.00    +0.004 C 
ATOM      4  C   UNL     1       3.850   5.237  -6.638  0.00  0.00    +0.003 C 
ATOM      5  C   UNL     1       3.036   6.616  -7.177  0.00  0.00    +0.038 C 
ATOM      6  C   UNL     1       1.542   6.025  -6.534  0.00  0.00    +0.153 C 
ATOM      7  O   UNL     1       0.784   7.274  -7.019  0.00  0.00    -0.223 OA
ATOM      8  C   UNL     1       2.759   6.009  -8.640  0.00  0.00    +0.036 C 
ATOM      9  C   UNL     1       4.023   6.055  -9.399  0.00  0.00    -0.038 C 
ATOM     10  C   UNL     1       3.925   6.060 -10.730  0.00  0.00    +0.034 C 
ATOM     11  C   UNL     1       2.601   6.071 -11.366  0.00  0.00    +0.195 C 
ATOM     12  C   UNL     1       1.491   6.589 -10.558  0.00  0.00    +0.038 C 
ATOM     13  O   UNL     1       2.442   5.778 -12.588  0.00  0.00    -0.287 OA
ATOM     14  C   UNL     1       5.187   5.356  -8.770  0.00  0.00    +0.022 C 
ATOM     15  C   UNL     1       2.254   4.627  -8.523  0.00  0.00    +0.009 C 
ATOM     16  C   UNL     1       1.782   6.904  -9.315  0.00  0.00    -0.020 C 
ATOM     17  C   UNL     1       5.244   5.717  -7.309  0.00  0.00    +0.004 C 
ATOM     18  C   UNL     1       4.737   4.569  -4.458  0.00  0.00    +0.004 C 
ATOM     19  C   UNL     1       2.404   4.319  -4.759  0.00  0.00    +0.004 C 
ATOM     20  C   UNL     1       1.865   6.764  -5.065  0.00  0.00    +0.037 C 
ATOM     21  C   UNL     1       4.228   4.787  -3.034  0.00  0.00    +0.048 C 
ENDROOT
BRANCH   1  22
ATOM     22  C   UNL     1       3.635   7.192  -2.690  0.00  0.00    +0.230 C 
ATOM     23  O   UNL     1       2.820   8.110  -2.589  0.00  0.00    -0.288 OA
BRANCH  22  24
ATOM     24  C   UNL     1       4.832   7.382  -1.804  0.00  0.00    +0.276 C 
BRANCH  24  25
ATOM     25  O   UNL     1       4.405   8.114  -0.658  0.00  0.00    -0.440 OA
BRANCH  25  26
ATOM     26  C   UNL     1       4.628   7.481   0.571  0.00  0.00    +0.317 C 
ATOM     27  O   UNL     1       4.834   6.231   0.595  0.00  0.00    -0.250 OA
BRANCH  26  28
ATOM     28  C   UNL     1       4.923   8.346   1.730  0.00  0.00    +0.110 C 
ATOM     29  C   UNL     1       6.347   8.180   2.201  0.00  0.00    +0.012 C 
ENDBRANCH  26  28
ENDBRANCH  25  26
ENDBRANCH  24  25
ENDBRANCH  22  24
ENDBRANCH   1  22
BRANCH   1  30
ATOM     30  O   UNL     1       2.005   5.558  -2.352  0.00  0.00    -0.418 OA
BRANCH  30  31
ATOM     31  C   UNL     1       1.990   5.210  -1.026  0.00  0.00    +0.512 C 
ATOM     32  O   UNL     1       2.360   4.038  -0.759  0.00  0.00    -0.203 OA
BRANCH  31  33
ATOM     33  O   UNL     1       1.585   6.144  -0.107  0.00  0.00    -0.418 OA
BRANCH  33  35
ATOM     34  C   UNL     1      -0.133   7.204   1.061  0.00  0.00    +0.051 C 
ATOM     35  C   UNL     1       0.314   6.760  -0.308  0.00  0.00    +0.212 C 
ENDBRANCH  33  35
ENDBRANCH  31  33
ENDBRANCH  30  31
ENDBRANCH   1  30
TORSDOF 9
ENDMDL
MODEL 9
REMARK VINA RESULT:      -7.0      2.440      7.981
REMARK  Name = 
REMARK  9 active torsions:
REMARK  status: ('A' for Active; 'I' for Inactive)
REMARK    1  A    between atoms: C_2  and  O_3
REMARK    2  A    between atoms: O_3  and  C_4
REMARK    3  A    between atoms: C_4  and  O_6
REMARK    4  A    between atoms: O_6  and  C_7
REMARK    5  A    between atoms: C_7  and  C_8
REMARK    6  A    between atoms: C_8  and  C_10
REMARK    7  A    between atoms: C_10  and  O_11
REMARK    8  A    between atoms: O_11  and  C_12
REMARK    9  A    between atoms: C_12  and  C_14
REMARK                            x       y       z     vdW  Elec       q    Type
REMARK                         _______ _______ _______ _____ _____    ______ ____
ROOT
ATOM      1  C   UNL     1       3.344   5.817  -3.408  0.00  0.00    +0.193 C 
ATOM      2  C   UNL     1       2.850   5.357  -4.746  0.00  0.00    +0.043 C 
ATOM      3  C   UNL     1       3.187   6.752  -5.534  0.00  0.00    +0.004 C 
ATOM      4  C   UNL     1       3.215   5.983  -7.063  0.00  0.00    +0.003 C 
ATOM      5  C   UNL     1       1.528   5.944  -7.146  0.00  0.00    +0.038 C 
ATOM      6  C   UNL     1       1.496   4.375  -6.416  0.00  0.00    +0.153 C 
ATOM      7  O   UNL     1      -0.040   4.321  -6.484  0.00  0.00    -0.223 OA
ATOM      8  C   UNL     1       1.509   5.355  -8.642  0.00  0.00    +0.036 C 
ATOM      9  C   UNL     1       1.859   6.450  -9.567  0.00  0.00    -0.038 C 
ATOM     10  C   UNL     1       1.447   6.325 -10.830  0.00  0.00    +0.034 C 
ATOM     11  C   UNL     1       0.643   5.161 -11.225  0.00  0.00    +0.195 C 
ATOM     12  C   UNL     1      -0.095   4.481 -10.154  0.00  0.00    +0.038 C 
ATOM     13  O   UNL     1       0.481   4.838 -12.440  0.00  0.00    -0.287 OA
ATOM     14  C   UNL     1       3.164   7.134  -9.304  0.00  0.00    +0.022 C 
ATOM     15  C   UNL     1       2.464   4.235  -8.753  0.00  0.00    +0.009 C 
ATOM     16  C   UNL     1       0.115   4.930  -8.936  0.00  0.00    -0.020 C 
ATOM     17  C   UNL     1       3.284   7.409  -7.828  0.00  0.00    +0.004 C 
ATOM     18  C   UNL     1       4.785   6.491  -5.258  0.00  0.00    +0.004 C 
ATOM     19  C   UNL     1       3.816   4.333  -5.225  0.00  0.00    +0.004 C 
ATOM     20  C   UNL     1       1.427   5.069  -4.892  0.00  0.00    +0.037 C 
ATOM     21  C   UNL     1       4.749   6.203  -3.757  0.00  0.00    +0.048 C 
ENDROOT
BRANCH   1  22
ATOM     22  C   UNL     1       2.545   6.893  -2.800  0.00  0.00    +0.230 C 
ATOM     23  O   UNL     1       3.045   8.007  -2.642  0.00  0.00    -0.288 OA
BRANCH  22  24
ATOM     24  C   UNL     1       1.052   6.944  -2.946  0.00  0.00    +0.276 C 
BRANCH  24  25
ATOM     25  O   UNL     1       0.488   6.752  -1.651  0.00  0.00    -0.440 OA
BRANCH  25  26
ATOM     26  C   UNL     1      -0.698   6.009  -1.621  0.00  0.00    +0.317 C 
ATOM     27  O   UNL     1      -0.643   4.750  -1.758  0.00  0.00    -0.250 OA
BRANCH  26  28
ATOM     28  C   UNL     1      -1.907   6.690  -1.118  0.00  0.00    +0.110 C 
ATOM     29  C   UNL     1      -2.996   6.735  -2.162  0.00  0.00    +0.012 C 
ENDBRANCH  26  28
ENDBRANCH  25  26
ENDBRANCH  24  25
ENDBRANCH  22  24
ENDBRANCH   1  22
BRANCH   1  30
ATOM     30  O   UNL     1       3.243   4.679  -2.572  0.00  0.00    -0.418 OA
BRANCH  30  31
ATOM     31  C   UNL     1       3.264   4.716  -1.202  0.00  0.00    +0.512 C 
ATOM     32  O   UNL     1       2.284   4.183  -0.621  0.00  0.00    -0.203 OA
BRANCH  31  33
ATOM     33  O   UNL     1       4.329   5.314  -0.577  0.00  0.00    -0.418 OA
BRANCH  33  35
ATOM     34  C   UNL     1       5.289   7.340   0.066  0.00  0.00    +0.051 C 
ATOM     35  C   UNL     1       4.064   6.474   0.211  0.00  0.00    +0.212 C 
ENDBRANCH  33  35
ENDBRANCH  31  33
ENDBRANCH  30  31
ENDBRANCH   1  30
TORSDOF 9
ENDMDL
