MODEL 1
REMARK VINA RESULT:      -7.6      0.000      0.000
REMARK  Name = 
REMARK  8 active torsions:
REMARK  status: ('A' for Active; 'I' for Inactive)
REMARK    1  A    between atoms: C_2  and  C_3
REMARK    2  A    between atoms: C_2  and  N_11
REMARK    3  A    between atoms: C_3  and  O_4
REMARK    4  A    between atoms: O_4  and  C_5
REMARK    5  A    between atoms: N_11  and  C_12
REMARK    6  A    between atoms: N_11  and  C_15
REMARK    7  A    between atoms: C_12  and  C_13
REMARK    8  A    between atoms: C_15  and  C_16
REMARK                            x       y       z     vdW  Elec       q    Type
REMARK                         _______ _______ _______ _____ _____    ______ ____
ROOT
ATOM      1  N   UNL     1       3.577   5.783  -7.547  0.00  0.00    -0.266 NA
ENDROOT
BRANCH   1   3
ATOM      2  C   UNL     1       2.685   3.752  -8.497  0.00  0.00    +0.021 C 
ATOM      3  C   UNL     1       2.126   5.195  -7.864  0.00  0.00    +0.102 C 
BRANCH   3   4
ATOM      4  C   UNL     1       2.024   4.521  -6.340  0.00  0.00    +0.221 C 
BRANCH   4   5
ATOM      5  O   UNL     1       0.649   4.308  -6.144  0.00  0.00    -0.474 OA
BRANCH   5   6
ATOM      6  C   UNL     1      -0.204   5.399  -6.187  0.00  0.00    +0.139 A 
ATOM      7  C   UNL     1      -1.459   5.297  -6.768  0.00  0.00    +0.037 A 
ATOM      8  C   UNL     1      -2.511   6.024  -6.266  0.00  0.00    +0.003 A 
ATOM      9  C   UNL     1      -2.354   6.907  -5.203  0.00  0.00    +0.000 A 
ATOM     10  C   UNL     1      -1.040   7.217  -4.874  0.00  0.00    +0.003 A 
ATOM     11  C   UNL     1       0.016   6.556  -5.449  0.00  0.00    +0.037 A 
ENDBRANCH   5   6
ENDBRANCH   4   5
ENDBRANCH   3   4
ENDBRANCH   1   3
BRANCH   1  12
ATOM     12  C   UNL     1       4.357   5.057  -8.551  0.00  0.00    +0.099 C 
BRANCH  12  13
ATOM     13  C   UNL     1       5.259   5.984  -9.303  0.00  0.00    -0.006 A 
ATOM     14  C   UNL     1       6.609   5.652  -9.319  0.00  0.00    -0.003 A 
ATOM     15  C   UNL     1       7.517   6.359 -10.056  0.00  0.00    -0.000 A 
ATOM     16  C   UNL     1       7.053   7.362 -10.894  0.00  0.00    -0.000 A 
ATOM     17  C   UNL     1       5.694   7.516 -11.090  0.00  0.00    -0.000 A 
ATOM     18  C   UNL     1       4.790   6.792 -10.328  0.00  0.00    -0.003 A 
ENDBRANCH  12  13
ENDBRANCH   1  12
BRANCH   1  19
ATOM     19  C   UNL     1       3.917   5.503  -6.226  0.00  0.00    +0.090 C 
BRANCH  19  20
ATOM     20  C   UNL     1       4.604   6.560  -5.437  0.00  0.00    +0.112 C 
ATOM     21 CL   UNL     1       3.402   7.229  -4.294  0.00  0.00    -0.112 Cl
ENDBRANCH  19  20
ENDBRANCH   1  19
TORSDOF 8
ENDMDL
MODEL 2
REMARK VINA RESULT:      -7.5      1.911      2.846
REMARK  Name = 
REMARK  8 active torsions:
REMARK  status: ('A' for Active; 'I' for Inactive)
REMARK    1  A    between atoms: C_2  and  C_3
REMARK    2  A    between atoms: C_2  and  N_11
REMARK    3  A    between atoms: C_3  and  O_4
REMARK    4  A    between atoms: O_4  and  C_5
REMARK    5  A    between atoms: N_11  and  C_12
REMARK    6  A    between atoms: N_11  and  C_15
REMARK    7  A    between atoms: C_12  and  C_13
REMARK    8  A    between atoms: C_15  and  C_16
REMARK                            x       y       z     vdW  Elec       q    Type
REMARK                         _______ _______ _______ _____ _____    ______ ____
ROOT
ATOM      1  N   UNL     1       3.315   5.569  -8.629  0.00  0.00    -0.266 NA
ENDROOT
BRANCH   1   3
ATOM      2  C   UNL     1       2.280   7.638  -7.944  0.00  0.00    +0.021 C 
ATOM      3  C   UNL     1       3.263   6.450  -7.298  0.00  0.00    +0.102 C 
BRANCH   3   4
ATOM      4  C   UNL     1       1.931   5.607  -6.746  0.00  0.00    +0.221 C 
BRANCH   4   5
ATOM      5  O   UNL     1       1.353   6.456  -5.788  0.00  0.00    -0.474 OA
BRANCH   5   6
ATOM      6  C   UNL     1       0.021   6.267  -5.453  0.00  0.00    +0.139 A 
ATOM      7  C   UNL     1      -0.640   7.172  -4.637  0.00  0.00    +0.037 A 
ATOM      8  C   UNL     1      -1.978   7.421  -4.828  0.00  0.00    +0.003 A 
ATOM      9  C   UNL     1      -2.718   6.758  -5.801  0.00  0.00    +0.000 A 
ATOM     10  C   UNL     1      -2.103   5.645  -6.363  0.00  0.00    +0.003 A 
ATOM     11  C   UNL     1      -0.792   5.341  -6.094  0.00  0.00    +0.037 A 
ENDBRANCH   5   6
ENDBRANCH   4   5
ENDBRANCH   3   4
ENDBRANCH   1   3
BRANCH   1  12
ATOM     12  C   UNL     1       3.645   6.615  -9.599  0.00  0.00    +0.099 C 
BRANCH  12  13
ATOM     13  C   UNL     1       5.060   6.486 -10.068  0.00  0.00    -0.006 A 
ATOM     14  C   UNL     1       5.544   7.520 -10.860  0.00  0.00    -0.003 A 
ATOM     15  C   UNL     1       6.849   7.570 -11.263  0.00  0.00    -0.000 A 
ATOM     16  C   UNL     1       7.731   6.619 -10.771  0.00  0.00    -0.000 A 
ATOM     17  C   UNL     1       7.320   5.756  -9.774  0.00  0.00    -0.000 A 
ATOM     18  C   UNL     1       5.990   5.719  -9.383  0.00  0.00    -0.003 A 
ENDBRANCH  12  13
ENDBRANCH   1  12
BRANCH   1  19
ATOM     19  C   UNL     1       2.084   4.951  -8.830  0.00  0.00    +0.090 C 
BRANCH  19  20
ATOM     20  C   UNL     1       1.506   4.964 -10.200  0.00  0.00    +0.112 C 
ATOM     21 CL   UNL     1      -0.052   5.838 -10.105  0.00  0.00    -0.112 Cl
ENDBRANCH  19  20
ENDBRANCH   1  19
TORSDOF 8
ENDMDL
MODEL 3
REMARK VINA RESULT:      -7.5      2.004      7.258
REMARK  Name = 
REMARK  8 active torsions:
REMARK  status: ('A' for Active; 'I' for Inactive)
REMARK    1  A    between atoms: C_2  and  C_3
REMARK    2  A    between atoms: C_2  and  N_11
REMARK    3  A    between atoms: C_3  and  O_4
REMARK    4  A    between atoms: O_4  and  C_5
REMARK    5  A    between atoms: N_11  and  C_12
REMARK    6  A    between atoms: N_11  and  C_15
REMARK    7  A    between atoms: C_12  and  C_13
REMARK    8  A    between atoms: C_15  and  C_16
REMARK                            x       y       z     vdW  Elec       q    Type
REMARK                         _______ _______ _______ _____ _____    ______ ____
ROOT
ATOM      1  N   UNL     1       1.695   5.610  -7.697  0.00  0.00    -0.266 NA
ENDROOT
BRANCH   1   3
ATOM      2  C   UNL     1       3.257   5.010  -5.958  0.00  0.00    +0.021 C 
ATOM      3  C   UNL     1       3.164   6.056  -7.258  0.00  0.00    +0.102 C 
BRANCH   3   4
ATOM      4  C   UNL     1       3.853   4.915  -8.264  0.00  0.00    +0.221 C 
BRANCH   4   5
ATOM      5  O   UNL     1       5.220   5.236  -8.273  0.00  0.00    -0.474 OA
BRANCH   5   6
ATOM      6  C   UNL     1       5.779   5.720  -9.445  0.00  0.00    +0.139 A 
ATOM      7  C   UNL     1       4.997   6.368 -10.390  0.00  0.00    +0.037 A 
ATOM      8  C   UNL     1       5.529   7.391 -11.139  0.00  0.00    +0.003 A 
ATOM      9  C   UNL     1       6.857   7.781 -11.013  0.00  0.00    +0.000 A 
ATOM     10  C   UNL     1       7.672   6.904 -10.306  0.00  0.00    +0.003 A 
ATOM     11  C   UNL     1       7.151   5.825  -9.638  0.00  0.00    +0.037 A 
ENDBRANCH   5   6
ENDBRANCH   4   5
ENDBRANCH   3   4
ENDBRANCH   1   3
BRANCH   1  12
ATOM     12  C   UNL     1       1.248   4.990  -6.448  0.00  0.00    +0.099 C 
BRANCH  12  13
ATOM     13  C   UNL     1      -0.089   5.520  -6.034  0.00  0.00    -0.006 A 
ATOM     14  C   UNL     1      -0.083   6.685  -5.276  0.00  0.00    -0.003 A 
ATOM     15  C   UNL     1      -1.239   7.324  -4.926  0.00  0.00    -0.000 A 
ATOM     16  C   UNL     1      -2.438   6.853  -5.440  0.00  0.00    -0.000 A 
ATOM     17  C   UNL     1      -2.427   5.867  -6.409  0.00  0.00    -0.000 A 
ATOM     18  C   UNL     1      -1.243   5.229  -6.745  0.00  0.00    -0.003 A 
ENDBRANCH  12  13
ENDBRANCH   1  12
BRANCH   1  19
ATOM     19  C   UNL     1       1.773   4.745  -8.784  0.00  0.00    +0.090 C 
BRANCH  19  20
ATOM     20  C   UNL     1       0.845   4.965  -9.926  0.00  0.00    +0.112 C 
ATOM     21 CL   UNL     1       0.590   6.730 -10.065  0.00  0.00    -0.112 Cl
ENDBRANCH  19  20
ENDBRANCH   1  19
TORSDOF 8
ENDMDL
MODEL 4
REMARK VINA RESULT:      -7.3      2.489      7.788
REMARK  Name = 
REMARK  8 active torsions:
REMARK  status: ('A' for Active; 'I' for Inactive)
REMARK    1  A    between atoms: C_2  and  C_3
REMARK    2  A    between atoms: C_2  and  N_11
REMARK    3  A    between atoms: C_3  and  O_4
REMARK    4  A    between atoms: O_4  and  C_5
REMARK    5  A    between atoms: N_11  and  C_12
REMARK    6  A    between atoms: N_11  and  C_15
REMARK    7  A    between atoms: C_12  and  C_13
REMARK    8  A    between atoms: C_15  and  C_16
REMARK                            x       y       z     vdW  Elec       q    Type
REMARK                         _______ _______ _______ _____ _____    ______ ____
ROOT
ATOM      1  N   UNL     1       1.786   6.081  -8.283  0.00  0.00    -0.266 NA
ENDROOT
BRANCH   1   3
ATOM      2  C   UNL     1       3.152   4.131  -8.674  0.00  0.00    +0.021 C 
ATOM      3  C   UNL     1       3.242   5.585  -7.853  0.00  0.00    +0.102 C 
BRANCH   3   4
ATOM      4  C   UNL     1       3.929   6.326  -9.183  0.00  0.00    +0.221 C 
BRANCH   4   5
ATOM      5  O   UNL     1       5.109   5.600  -9.416  0.00  0.00    -0.474 OA
BRANCH   5   6
ATOM      6  C   UNL     1       6.129   6.206 -10.134  0.00  0.00    +0.139 A 
ATOM      7  C   UNL     1       7.419   5.698 -10.100  0.00  0.00    +0.037 A 
ATOM      8  C   UNL     1       8.223   5.787 -11.211  0.00  0.00    +0.003 A 
ATOM      9  C   UNL     1       7.799   6.414 -12.377  0.00  0.00    +0.000 A 
ATOM     10  C   UNL     1       6.646   7.181 -12.257  0.00  0.00    +0.003 A 
ATOM     11  C   UNL     1       5.895   7.168 -11.109  0.00  0.00    +0.037 A 
ENDBRANCH   5   6
ENDBRANCH   4   5
ENDBRANCH   3   4
ENDBRANCH   1   3
BRANCH   1  12
ATOM     12  C   UNL     1       0.972   5.146  -7.505  0.00  0.00    +0.099 C 
BRANCH  12  13
ATOM     13  C   UNL     1      -0.121   5.863  -6.777  0.00  0.00    -0.006 A 
ATOM     14  C   UNL     1      -1.396   5.321  -6.891  0.00  0.00    -0.003 A 
ATOM     15  C   UNL     1      -2.458   5.821  -6.191  0.00  0.00    -0.000 A 
ATOM     16  C   UNL     1      -2.225   6.823  -5.261  0.00  0.00    -0.000 A 
ATOM     17  C   UNL     1      -0.927   7.176  -4.946  0.00  0.00    -0.000 A 
ATOM     18  C   UNL     1       0.136   6.660  -5.672  0.00  0.00    -0.003 A 
ENDBRANCH  12  13
ENDBRANCH   1  12
BRANCH   1  19
ATOM     19  C   UNL     1       1.644   5.973  -9.664  0.00  0.00    +0.090 C 
BRANCH  19  20
ATOM     20  C   UNL     1       0.280   6.108 -10.243  0.00  0.00    +0.112 C 
ATOM     21 CL   UNL     1      -0.141   4.529 -10.970  0.00  0.00    -0.112 Cl
ENDBRANCH  19  20
ENDBRANCH   1  19
TORSDOF 8
ENDMDL
MODEL 5
REMARK VINA RESULT:      -7.2      2.638      3.406
REMARK  Name = 
REMARK  8 active torsions:
REMARK  status: ('A' for Active; 'I' for Inactive)
REMARK    1  A    between atoms: C_2  and  C_3
REMARK    2  A    between atoms: C_2  and  N_11
REMARK    3  A    between atoms: C_3  and  O_4
REMARK    4  A    between atoms: O_4  and  C_5
REMARK    5  A    between atoms: N_11  and  C_12
REMARK    6  A    between atoms: N_11  and  C_15
REMARK    7  A    between atoms: C_12  and  C_13
REMARK    8  A    between atoms: C_15  and  C_16
REMARK                            x       y       z     vdW  Elec       q    Type
REMARK                         _______ _______ _______ _____ _____    ______ ____
ROOT
ATOM      1  N   UNL     1       3.053   5.346 -10.656  0.00  0.00    -0.266 NA
ENDROOT
BRANCH   1   3
ATOM      2  C   UNL     1       2.913   3.998  -8.659  0.00  0.00    +0.021 C 
ATOM      3  C   UNL     1       1.906   4.561  -9.869  0.00  0.00    +0.102 C 
BRANCH   3   4
ATOM      4  C   UNL     1       1.538   5.921  -8.971  0.00  0.00    +0.221 C 
BRANCH   4   5
ATOM      5  O   UNL     1       0.175   5.778  -8.665  0.00  0.00    -0.474 OA
BRANCH   5   6
ATOM      6  C   UNL     1      -0.204   5.732  -7.333  0.00  0.00    +0.139 A 
ATOM      7  C   UNL     1       0.505   6.432  -6.369  0.00  0.00    +0.037 A 
ATOM      8  C   UNL     1      -0.150   6.962  -5.282  0.00  0.00    +0.003 A 
ATOM      9  C   UNL     1      -1.515   6.784  -5.088  0.00  0.00    +0.000 A 
ATOM     10  C   UNL     1      -2.111   5.817  -5.889  0.00  0.00    +0.003 A 
ATOM     11  C   UNL     1      -1.425   5.216  -6.914  0.00  0.00    +0.037 A 
ENDBRANCH   5   6
ENDBRANCH   4   5
ENDBRANCH   3   4
ENDBRANCH   1   3
BRANCH   1  12
ATOM     12  C   UNL     1       3.578   6.166  -9.562  0.00  0.00    +0.099 C 
BRANCH  12  13
ATOM     13  C   UNL     1       4.992   6.574  -9.829  0.00  0.00    -0.006 A 
ATOM     14  C   UNL     1       5.976   5.659  -9.471  0.00  0.00    -0.003 A 
ATOM     15  C   UNL     1       7.295   5.869  -9.759  0.00  0.00    -0.000 A 
ATOM     16  C   UNL     1       7.639   6.972 -10.526  0.00  0.00    -0.000 A 
ATOM     17  C   UNL     1       6.647   7.733 -11.114  0.00  0.00    -0.000 A 
ATOM     18  C   UNL     1       5.314   7.505 -10.805  0.00  0.00    -0.003 A 
ENDBRANCH  12  13
ENDBRANCH   1  12
BRANCH   1  19
ATOM     19  C   UNL     1       2.492   6.062 -11.709  0.00  0.00    +0.090 C 
BRANCH  19  20
ATOM     20  C   UNL     1       2.789   5.621 -13.098  0.00  0.00    +0.112 C 
ATOM     21 CL   UNL     1       4.470   5.011 -13.107  0.00  0.00    -0.112 Cl
ENDBRANCH  19  20
ENDBRANCH   1  19
TORSDOF 8
ENDMDL
MODEL 6
REMARK VINA RESULT:      -7.2      1.509      7.080
REMARK  Name = 
REMARK  8 active torsions:
REMARK  status: ('A' for Active; 'I' for Inactive)
REMARK    1  A    between atoms: C_2  and  C_3
REMARK    2  A    between atoms: C_2  and  N_11
REMARK    3  A    between atoms: C_3  and  O_4
REMARK    4  A    between atoms: O_4  and  C_5
REMARK    5  A    between atoms: N_11  and  C_12
REMARK    6  A    between atoms: N_11  and  C_15
REMARK    7  A    between atoms: C_12  and  C_13
REMARK    8  A    between atoms: C_15  and  C_16
REMARK                            x       y       z     vdW  Elec       q    Type
REMARK                         _______ _______ _______ _____ _____    ______ ____
ROOT
ATOM      1  N   UNL     1       2.323   5.854  -6.524  0.00  0.00    -0.266 NA
ENDROOT
BRANCH   1   3
ATOM      2  C   UNL     1       2.091   6.014  -8.921  0.00  0.00    +0.021 C 
ATOM      3  C   UNL     1       2.797   5.004  -7.791  0.00  0.00    +0.102 C 
BRANCH   3   4
ATOM      4  C   UNL     1       4.229   5.860  -7.877  0.00  0.00    +0.221 C 
BRANCH   4   5
ATOM      5  O   UNL     1       5.075   5.047  -8.648  0.00  0.00    -0.474 OA
BRANCH   5   6
ATOM      6  C   UNL     1       5.792   5.630  -9.682  0.00  0.00    +0.139 A 
ATOM      7  C   UNL     1       5.141   6.294 -10.710  0.00  0.00    +0.037 A 
ATOM      8  C   UNL     1       5.728   7.386 -11.305  0.00  0.00    +0.003 A 
ATOM      9  C   UNL     1       6.991   7.833 -10.935  0.00  0.00    +0.000 A 
ATOM     10  C   UNL     1       7.728   6.957 -10.147  0.00  0.00    +0.003 A 
ATOM     11  C   UNL     1       7.168   5.815  -9.633  0.00  0.00    +0.037 A 
ENDBRANCH   5   6
ENDBRANCH   4   5
ENDBRANCH   3   4
ENDBRANCH   1   3
BRANCH   1  12
ATOM     12  C   UNL     1       1.146   6.508  -7.099  0.00  0.00    +0.099 C 
BRANCH  12  13
ATOM     13  C   UNL     1      -0.067   6.266  -6.258  0.00  0.00    -0.006 A 
ATOM     14  C   UNL     1      -0.280   7.156  -5.211  0.00  0.00    -0.003 A 
ATOM     15  C   UNL     1      -1.406   7.104  -4.438  0.00  0.00    -0.000 A 
ATOM     16  C   UNL     1      -2.407   6.210  -4.785  0.00  0.00    -0.000 A 
ATOM     17  C   UNL     1      -2.323   5.517  -5.977  0.00  0.00    -0.000 A 
ATOM     18  C   UNL     1      -1.170   5.580  -6.745  0.00  0.00    -0.003 A 
ENDBRANCH  12  13
ENDBRANCH   1  12
BRANCH   1  19
ATOM     19  C   UNL     1       3.341   6.718  -6.133  0.00  0.00    +0.090 C 
BRANCH  19  20
ATOM     20  C   UNL     1       3.411   7.122  -4.702  0.00  0.00    +0.112 C 
ATOM     21 CL   UNL     1       5.094   7.636  -4.383  0.00  0.00    -0.112 Cl
ENDBRANCH  19  20
ENDBRANCH   1  19
TORSDOF 8
ENDMDL
MODEL 7
REMARK VINA RESULT:      -7.2      1.723      6.953
REMARK  Name = 
REMARK  8 active torsions:
REMARK  status: ('A' for Active; 'I' for Inactive)
REMARK    1  A    between atoms: C_2  and  C_3
REMARK    2  A    between atoms: C_2  and  N_11
REMARK    3  A    between atoms: C_3  and  O_4
REMARK    4  A    between atoms: O_4  and  C_5
REMARK    5  A    between atoms: N_11  and  C_12
REMARK    6  A    between atoms: N_11  and  C_15
REMARK    7  A    between atoms: C_12  and  C_13
REMARK    8  A    between atoms: C_15  and  C_16
REMARK                            x       y       z     vdW  Elec       q    Type
REMARK                         _______ _______ _______ _____ _____    ______ ____
ROOT
ATOM      1  N   UNL     1       2.334   5.943  -5.287  0.00  0.00    -0.266 NA
ENDROOT
BRANCH   1   3
ATOM      2  C   UNL     1       4.716   6.288  -5.465  0.00  0.00    +0.021 C 
ATOM      3  C   UNL     1       3.304   6.903  -6.117  0.00  0.00    +0.102 C 
BRANCH   3   4
ATOM      4  C   UNL     1       3.373   5.807  -7.376  0.00  0.00    +0.221 C 
BRANCH   4   5
ATOM      5  O   UNL     1       3.528   6.603  -8.523  0.00  0.00    -0.474 OA
BRANCH   5   6
ATOM      6  C   UNL     1       4.566   6.315  -9.395  0.00  0.00    +0.139 A 
ATOM      7  C   UNL     1       4.753   7.063 -10.547  0.00  0.00    +0.037 A 
ATOM      8  C   UNL     1       6.022   7.285 -11.025  0.00  0.00    +0.003 A 
ATOM      9  C   UNL     1       7.145   6.744 -10.409  0.00  0.00    +0.000 A 
ATOM     10  C   UNL     1       6.890   5.751  -9.470  0.00  0.00    +0.003 A 
ATOM     11  C   UNL     1       5.612   5.462  -9.064  0.00  0.00    +0.037 A 
ENDBRANCH   5   6
ENDBRANCH   4   5
ENDBRANCH   3   4
ENDBRANCH   1   3
BRANCH   1  12
ATOM     12  C   UNL     1       1.373   6.935  -4.800  0.00  0.00    +0.099 C 
BRANCH  12  13
ATOM     13  C   UNL     1       0.018   6.705  -5.391  0.00  0.00    -0.006 A 
ATOM     14  C   UNL     1      -0.116   5.589  -6.209  0.00  0.00    -0.003 A 
ATOM     15  C   UNL     1      -1.325   5.213  -6.724  0.00  0.00    -0.000 A 
ATOM     16  C   UNL     1      -2.459   5.902  -6.322  0.00  0.00    -0.000 A 
ATOM     17  C   UNL     1      -2.370   6.832  -5.304  0.00  0.00    -0.000 A 
ATOM     18  C   UNL     1      -1.133   7.203  -4.800  0.00  0.00    -0.003 A 
ENDBRANCH  12  13
ENDBRANCH   1  12
BRANCH   1  19
ATOM     19  C   UNL     1       3.058   5.292  -4.293  0.00  0.00    +0.090 C 
BRANCH  19  20
ATOM     20  C   UNL     1       2.574   5.390  -2.890  0.00  0.00    +0.112 C 
ATOM     21 CL   UNL     1       3.951   4.972  -1.828  0.00  0.00    -0.112 Cl
ENDBRANCH  19  20
ENDBRANCH   1  19
TORSDOF 8
ENDMDL
MODEL 8
REMARK VINA RESULT:      -7.2      1.628      7.107
REMARK  Name = 
REMARK  8 active torsions:
REMARK  status: ('A' for Active; 'I' for Inactive)
REMARK    1  A    between atoms: C_2  and  C_3
REMARK    2  A    between atoms: C_2  and  N_11
REMARK    3  A    between atoms: C_3  and  O_4
REMARK    4  A    between atoms: O_4  and  C_5
REMARK    5  A    between atoms: N_11  and  C_12
REMARK    6  A    between atoms: N_11  and  C_15
REMARK    7  A    between atoms: C_12  and  C_13
REMARK    8  A    between atoms: C_15  and  C_16
REMARK                            x       y       z     vdW  Elec       q    Type
REMARK                         _______ _______ _______ _____ _____    ______ ____
ROOT
ATOM      1  N   UNL     1       2.000   5.127  -7.423  0.00  0.00    -0.266 NA
ENDROOT
BRANCH   1   3
ATOM      2  C   UNL     1       2.011   4.971  -9.831  0.00  0.00    +0.021 C 
ATOM      3  C   UNL     1       2.304   3.994  -8.507  0.00  0.00    +0.102 C 
BRANCH   3   4
ATOM      4  C   UNL     1       3.925   4.399  -8.530  0.00  0.00    +0.221 C 
BRANCH   4   5
ATOM      5  O   UNL     1       4.098   5.076  -9.749  0.00  0.00    -0.474 OA
BRANCH   5   6
ATOM      6  C   UNL     1       5.106   6.022  -9.844  0.00  0.00    +0.139 A 
ATOM      7  C   UNL     1       6.381   5.749  -9.372  0.00  0.00    +0.037 A 
ATOM      8  C   UNL     1       7.478   6.283 -10.007  0.00  0.00    +0.003 A 
ATOM      9  C   UNL     1       7.354   7.134 -11.098  0.00  0.00    +0.000 A 
ATOM     10  C   UNL     1       6.076   7.631 -11.325  0.00  0.00    +0.003 A 
ATOM     11  C   UNL     1       4.993   7.167 -10.622  0.00  0.00    +0.037 A 
ENDBRANCH   5   6
ENDBRANCH   4   5
ENDBRANCH   3   4
ENDBRANCH   1   3
BRANCH   1  12
ATOM     12  C   UNL     1       0.947   4.454  -6.660  0.00  0.00    +0.099 C 
BRANCH  12  13
ATOM     13  C   UNL     1      -0.105   5.426  -6.226  0.00  0.00    -0.006 A 
ATOM     14  C   UNL     1      -1.387   5.206  -6.716  0.00  0.00    -0.003 A 
ATOM     15  C   UNL     1      -2.453   5.959  -6.311  0.00  0.00    -0.000 A 
ATOM     16  C   UNL     1      -2.261   6.890  -5.300  0.00  0.00    -0.000 A 
ATOM     17  C   UNL     1      -1.059   6.923  -4.620  0.00  0.00    -0.000 A 
ATOM     18  C   UNL     1       0.011   6.154  -5.051  0.00  0.00    -0.003 A 
ENDBRANCH  12  13
ENDBRANCH   1  12
BRANCH   1  19
ATOM     19  C   UNL     1       1.601   6.295  -8.067  0.00  0.00    +0.090 C 
BRANCH  19  20
ATOM     20  C   UNL     1       2.232   7.577  -7.653  0.00  0.00    +0.112 C 
ATOM     21 CL   UNL     1       3.323   7.208  -6.285  0.00  0.00    -0.112 Cl
ENDBRANCH  19  20
ENDBRANCH   1  19
TORSDOF 8
ENDMDL
MODEL 9
REMARK VINA RESULT:      -7.1      2.723      3.981
REMARK  Name = 
REMARK  8 active torsions:
REMARK  status: ('A' for Active; 'I' for Inactive)
REMARK    1  A    between atoms: C_2  and  C_3
REMARK    2  A    between atoms: C_2  and  N_11
REMARK    3  A    between atoms: C_3  and  O_4
REMARK    4  A    between atoms: O_4  and  C_5
REMARK    5  A    between atoms: N_11  and  C_12
REMARK    6  A    between atoms: N_11  and  C_15
REMARK    7  A    between atoms: C_12  and  C_13
REMARK    8  A    between atoms: C_15  and  C_16
REMARK                            x       y       z     vdW  Elec       q    Type
REMARK                         _______ _______ _______ _____ _____    ______ ____
ROOT
ATOM      1  N   UNL     1       3.772   5.464  -8.121  0.00  0.00    -0.266 NA
ENDROOT
BRANCH   1   3
ATOM      2  C   UNL     1       2.216   3.795  -7.337  0.00  0.00    +0.021 C 
ATOM      3  C   UNL     1       2.875   4.319  -8.781  0.00  0.00    +0.102 C 
BRANCH   3   4
ATOM      4  C   UNL     1       1.610   5.387  -9.005  0.00  0.00    +0.221 C 
BRANCH   4   5
ATOM      5  O   UNL     1       0.729   4.709  -9.864  0.00  0.00    -0.474 OA
BRANCH   5   6
ATOM      6  C   UNL     1       0.274   5.364 -10.998  0.00  0.00    +0.139 A 
ATOM      7  C   UNL     1      -0.425   6.557 -10.895  0.00  0.00    +0.037 A 
ATOM      8  C   UNL     1      -0.290   7.520 -11.867  0.00  0.00    +0.003 A 
ATOM      9  C   UNL     1       0.504   7.323 -12.991  0.00  0.00    +0.000 A 
ATOM     10  C   UNL     1       0.916   6.013 -13.209  0.00  0.00    +0.003 A 
ATOM     11  C   UNL     1       0.694   5.030 -12.279  0.00  0.00    +0.037 A 
ENDBRANCH   5   6
ENDBRANCH   4   5
ENDBRANCH   3   4
ENDBRANCH   1   3
BRANCH   1  12
ATOM     12  C   UNL     1       5.102   4.928  -8.417  0.00  0.00    +0.099 C 
BRANCH  12  13
ATOM     13  C   UNL     1       5.778   5.728  -9.486  0.00  0.00    -0.006 A 
ATOM     14  C   UNL     1       4.991   6.669 -10.142  0.00  0.00    -0.003 A 
ATOM     15  C   UNL     1       5.516   7.532 -11.062  0.00  0.00    -0.000 A 
ATOM     16  C   UNL     1       6.889   7.538 -11.257  0.00  0.00    -0.000 A 
ATOM     17  C   UNL     1       7.703   6.803 -10.418  0.00  0.00    -0.000 A 
ATOM     18  C   UNL     1       7.150   5.930  -9.494  0.00  0.00    -0.003 A 
ENDBRANCH  12  13
ENDBRANCH   1  12
BRANCH   1  19
ATOM     19  C   UNL     1       3.472   5.571  -6.766  0.00  0.00    +0.090 C 
BRANCH  19  20
ATOM     20  C   UNL     1       4.508   6.132  -5.858  0.00  0.00    +0.112 C 
ATOM     21 CL   UNL     1       4.755   4.943  -4.545  0.00  0.00    -0.112 Cl
ENDBRANCH  19  20
ENDBRANCH   1  19
TORSDOF 8
ENDMDL
