MODEL 1
REMARK VINA RESULT:      -8.6      0.000      0.000
REMARK  Name = 
REMARK  2 active torsions:
REMARK  status: ('A' for Active; 'I' for Inactive)
REMARK    1  A    between atoms: N_19  and  C_20
REMARK    2  A    between atoms: C_20  and  C_21
REMARK                            x       y       z     vdW  Elec       q    Type
REMARK                         _______ _______ _______ _____ _____    ______ ____
ROOT
ATOM      1  O   UNL     1       2.245   5.640  -4.068  0.00  0.00    -0.292 OA
ATOM      2  C   UNL     1       2.215   5.465  -5.000  0.00  0.00    +0.191 C 
ATOM      3  C   UNL     1       2.695   6.778  -5.825  0.00  0.00    +0.228 C 
ATOM      4  O   UNL     1       1.509   7.604  -5.272  0.00  0.00    -0.468 OA
ATOM      5  C   UNL     1       0.388   6.856  -5.494  0.00  0.00    +0.173 A 
ATOM      6  C   UNL     1       0.506   6.460  -6.806  0.00  0.00    +0.017 A 
ATOM      7  C   UNL     1      -0.190   5.360  -7.319  0.00  0.00    -0.021 A 
ATOM      8  C   UNL     1      -1.479   5.245  -6.807  0.00  0.00    -0.001 A 
ATOM      9  C   UNL     1      -1.850   6.004  -5.698  0.00  0.00    +0.045 A 
ATOM     10  C   UNL     1       0.110   5.258  -8.743  0.00  0.00    +0.045 C 
ATOM     11  C   UNL     1       1.588   4.568  -8.938  0.00  0.00    +0.090 C 
ATOM     12  N   UNL     1       2.057   5.737  -9.865  0.00  0.00    -0.271 NA
ATOM     13  C   UNL     1       2.858   6.664  -9.361  0.00  0.00    +0.073 C 
ATOM     14  C   UNL     1       2.322   7.444  -8.179  0.00  0.00    +0.028 C 
ATOM     15  C   UNL     1       2.321   5.115  -7.586  0.00  0.00    +0.148 C 
ATOM     16  O   UNL     1       3.696   4.929  -7.797  0.00  0.00    -0.224 OA
ATOM     17  C   UNL     1       1.986   3.918  -6.702  0.00  0.00    +0.040 C 
ATOM     18  C   UNL     1      -0.925   6.798  -5.018  0.00  0.00    +0.229 A 
ATOM     19  O   UNL     1      -0.968   6.832  -3.616  0.00  0.00    -0.283 OA
ATOM     20  C   UNL     1       1.893   6.401  -7.200  0.00  0.00    +0.094 C 
ATOM     21  C   UNL     1       2.822   4.174  -5.453  0.00  0.00    +0.071 C 
ENDROOT
BRANCH  12  22
ATOM     22  C   UNL     1       1.301   5.773 -11.015  0.00  0.00    +0.072 C 
BRANCH  22  23
ATOM     23  C   UNL     1       1.050   7.058 -11.696  0.00  0.00    +0.016 C 
ATOM     24  C   UNL     1      -0.436   7.490 -11.671  0.00  0.00    +0.001 C 
ATOM     25  C   UNL     1       0.363   7.249 -12.970  0.00  0.00    +0.001 C 
ENDBRANCH  22  23
ENDBRANCH  12  22
TORSDOF 2
ENDMDL
MODEL 2
REMARK VINA RESULT:      -8.2      2.554      6.104
REMARK  Name = 
REMARK  2 active torsions:
REMARK  status: ('A' for Active; 'I' for Inactive)
REMARK    1  A    between atoms: N_19  and  C_20
REMARK    2  A    between atoms: C_20  and  C_21
REMARK                            x       y       z     vdW  Elec       q    Type
REMARK                         _______ _______ _______ _____ _____    ______ ____
ROOT
ATOM      1  O   UNL     1       2.039   5.393 -11.160  0.00  0.00    -0.292 OA
ATOM      2  C   UNL     1       2.105   5.298 -10.219  0.00  0.00    +0.191 C 
ATOM      3  C   UNL     1       1.680   6.686  -9.492  0.00  0.00    +0.228 C 
ATOM      4  O   UNL     1       2.855   7.439 -10.161  0.00  0.00    -0.468 OA
ATOM      5  C   UNL     1       3.973   6.692  -9.921  0.00  0.00    +0.173 A 
ATOM      6  C   UNL     1       3.903   6.412  -8.575  0.00  0.00    +0.017 A 
ATOM      7  C   UNL     1       4.602   5.347  -7.997  0.00  0.00    -0.021 A 
ATOM      8  C   UNL     1       5.866   5.164  -8.548  0.00  0.00    -0.001 A 
ATOM      9  C   UNL     1       6.203   5.818  -9.733  0.00  0.00    +0.045 A 
ATOM     10  C   UNL     1       4.360   5.373  -6.559  0.00  0.00    +0.045 C 
ATOM     11  C   UNL     1       2.880   4.730  -6.247  0.00  0.00    +0.090 C 
ATOM     12  N   UNL     1       2.469   5.983  -5.405  0.00  0.00    -0.271 NA
ATOM     13  C   UNL     1       1.662   6.879  -5.956  0.00  0.00    +0.073 C 
ATOM     14  C   UNL     1       2.161   7.545  -7.221  0.00  0.00    +0.028 C 
ATOM     15  C   UNL     1       2.101   5.174  -7.610  0.00  0.00    +0.148 C 
ATOM     16  O   UNL     1       0.733   5.032  -7.329  0.00  0.00    -0.224 OA
ATOM     17  C   UNL     1       2.380   3.899  -8.400  0.00  0.00    +0.040 C 
ATOM     18  C   UNL     1       5.264   6.569 -10.441  0.00  0.00    +0.229 A 
ATOM     19  O   UNL     1       5.249   6.481 -11.842  0.00  0.00    -0.283 OA
ATOM     20  C   UNL     1       2.532   6.414  -8.123  0.00  0.00    +0.094 C 
ATOM     21  C   UNL     1       1.498   4.062  -9.632  0.00  0.00    +0.071 C 
ENDROOT
BRANCH  12  22
ATOM     22  C   UNL     1       3.272   6.103  -4.294  0.00  0.00    +0.072 C 
BRANCH  22  23
ATOM     23  C   UNL     1       3.547   7.435  -3.721  0.00  0.00    +0.016 C 
ATOM     24  C   UNL     1       4.984   7.940  -3.997  0.00  0.00    +0.001 C 
ATOM     25  C   UNL     1       4.409   7.731  -2.579  0.00  0.00    +0.001 C 
ENDBRANCH  22  23
ENDBRANCH  12  22
TORSDOF 2
ENDMDL
MODEL 3
REMARK VINA RESULT:      -8.1      2.756      5.747
REMARK  Name = 
REMARK  2 active torsions:
REMARK  status: ('A' for Active; 'I' for Inactive)
REMARK    1  A    between atoms: N_19  and  C_20
REMARK    2  A    between atoms: C_20  and  C_21
REMARK                            x       y       z     vdW  Elec       q    Type
REMARK                         _______ _______ _______ _____ _____    ______ ____
ROOT
ATOM      1  O   UNL     1       1.404   4.717  -8.460  0.00  0.00    -0.292 OA
ATOM      2  C   UNL     1       1.940   5.148  -7.807  0.00  0.00    +0.191 C 
ATOM      3  C   UNL     1       2.560   4.050  -6.786  0.00  0.00    +0.228 C 
ATOM      4  O   UNL     1       1.146   3.642  -6.309  0.00  0.00    -0.468 OA
ATOM      5  C   UNL     1       0.506   4.803  -5.980  0.00  0.00    +0.173 A 
ATOM      6  C   UNL     1       1.417   5.477  -5.201  0.00  0.00    +0.017 A 
ATOM      7  C   UNL     1       1.348   6.860  -4.998  0.00  0.00    -0.021 A 
ATOM      8  C   UNL     1       0.042   7.326  -4.873  0.00  0.00    -0.001 A 
ATOM      9  C   UNL     1      -1.022   6.493  -5.216  0.00  0.00    +0.045 A 
ATOM     10  C   UNL     1       2.417   7.238  -4.080  0.00  0.00    +0.045 C 
ATOM     11  C   UNL     1       3.837   7.308  -4.902  0.00  0.00    +0.090 C 
ATOM     12  N   UNL     1       4.532   6.369  -3.862  0.00  0.00    -0.271 NA
ATOM     13  C   UNL     1       4.723   5.098  -4.184  0.00  0.00    +0.073 C 
ATOM     14  C   UNL     1       3.480   4.292  -4.501  0.00  0.00    +0.028 C 
ATOM     15  C   UNL     1       3.559   6.153  -6.020  0.00  0.00    +0.148 C 
ATOM     16  O   UNL     1       4.816   5.829  -6.554  0.00  0.00    -0.224 OA
ATOM     17  C   UNL     1       3.002   7.076  -7.099  0.00  0.00    +0.040 C 
ATOM     18  C   UNL     1      -0.809   5.239  -5.789  0.00  0.00    +0.229 A 
ATOM     19  O   UNL     1      -1.647   4.824  -6.836  0.00  0.00    -0.283 OA
ATOM     20  C   UNL     1       2.766   5.091  -5.541  0.00  0.00    +0.094 C 
ATOM     21  C   UNL     1       2.917   6.163  -8.317  0.00  0.00    +0.071 C 
ENDROOT
BRANCH  12  22
ATOM     22  C   UNL     1       4.573   6.967  -2.623  0.00  0.00    +0.072 C 
BRANCH  22  23
ATOM     23  C   UNL     1       4.409   6.154  -1.403  0.00  0.00    +0.016 C 
ATOM     24  C   UNL     1       3.228   6.609  -0.512  0.00  0.00    +0.001 C 
ATOM     25  C   UNL     1       4.696   6.571  -0.033  0.00  0.00    +0.001 C 
ENDBRANCH  22  23
ENDBRANCH  12  22
TORSDOF 2
ENDMDL
MODEL 4
REMARK VINA RESULT:      -7.8      2.401      4.093
REMARK  Name = 
REMARK  2 active torsions:
REMARK  status: ('A' for Active; 'I' for Inactive)
REMARK    1  A    between atoms: N_19  and  C_20
REMARK    2  A    between atoms: C_20  and  C_21
REMARK                            x       y       z     vdW  Elec       q    Type
REMARK                         _______ _______ _______ _____ _____    ______ ____
ROOT
ATOM      1  O   UNL     1       0.014   6.667  -3.711  0.00  0.00    -0.292 OA
ATOM      2  C   UNL     1       0.492   6.544  -4.520  0.00  0.00    +0.191 C 
ATOM      3  C   UNL     1       0.745   4.962  -4.779  0.00  0.00    +0.228 C 
ATOM      4  O   UNL     1       1.594   4.850  -3.490  0.00  0.00    -0.468 OA
ATOM      5  C   UNL     1       2.519   5.853  -3.555  0.00  0.00    +0.173 A 
ATOM      6  C   UNL     1       3.032   5.751  -4.828  0.00  0.00    +0.017 A 
ATOM      7  C   UNL     1       3.690   6.815  -5.455  0.00  0.00    -0.021 A 
ATOM      8  C   UNL     1       4.483   7.554  -4.582  0.00  0.00    -0.001 A 
ATOM      9  C   UNL     1       4.351   7.369  -3.207  0.00  0.00    +0.045 A 
ATOM     10  C   UNL     1       4.159   6.354  -6.757  0.00  0.00    +0.045 C 
ATOM     11  C   UNL     1       2.902   6.348  -7.815  0.00  0.00    +0.090 C 
ATOM     12  N   UNL     1       3.194   4.865  -8.216  0.00  0.00    -0.271 NA
ATOM     13  C   UNL     1       2.422   3.910  -7.716  0.00  0.00    +0.073 C 
ATOM     14  C   UNL     1       2.394   3.791  -6.207  0.00  0.00    +0.028 C 
ATOM     15  C   UNL     1       1.683   6.013  -6.783  0.00  0.00    +0.148 C 
ATOM     16  O   UNL     1       0.609   5.600  -7.586  0.00  0.00    -0.224 OA
ATOM     17  C   UNL     1       1.298   7.458  -6.485  0.00  0.00    +0.040 C 
ATOM     18  C   UNL     1       3.362   6.539  -2.676  0.00  0.00    +0.229 A 
ATOM     19  O   UNL     1       2.677   6.958  -1.526  0.00  0.00    -0.283 OA
ATOM     20  C   UNL     1       2.064   5.165  -5.724  0.00  0.00    +0.094 C 
ATOM     21  C   UNL     1      -0.005   7.309  -5.708  0.00  0.00    +0.071 C 
ENDROOT
BRANCH  12  22
ATOM     22  C   UNL     1       4.429   4.760  -8.814  0.00  0.00    +0.072 C 
BRANCH  22  23
ATOM     23  C   UNL     1       4.639   5.290 -10.175  0.00  0.00    +0.016 C 
ATOM     24  C   UNL     1       6.097   5.737 -10.444  0.00  0.00    +0.001 C 
ATOM     25  C   UNL     1       4.881   6.684 -10.539  0.00  0.00    +0.001 C 
ENDBRANCH  22  23
ENDBRANCH  12  22
TORSDOF 2
ENDMDL
MODEL 5
REMARK VINA RESULT:      -7.3      1.846      2.567
REMARK  Name = 
REMARK  2 active torsions:
REMARK  status: ('A' for Active; 'I' for Inactive)
REMARK    1  A    between atoms: N_19  and  C_20
REMARK    2  A    between atoms: C_20  and  C_21
REMARK                            x       y       z     vdW  Elec       q    Type
REMARK                         _______ _______ _______ _____ _____    ______ ____
ROOT
ATOM      1  O   UNL     1       4.738   5.982  -3.133  0.00  0.00    -0.292 OA
ATOM      2  C   UNL     1       4.263   5.745  -3.918  0.00  0.00    +0.191 C 
ATOM      3  C   UNL     1       4.061   7.051  -4.859  0.00  0.00    +0.228 C 
ATOM      4  O   UNL     1       3.216   7.752  -3.768  0.00  0.00    -0.468 OA
ATOM      5  C   UNL     1       2.260   6.852  -3.391  0.00  0.00    +0.173 A 
ATOM      6  C   UNL     1       1.750   6.389  -4.582  0.00  0.00    +0.017 A 
ATOM      7  C   UNL     1       1.058   5.177  -4.677  0.00  0.00    -0.021 A 
ATOM      8  C   UNL     1       0.242   4.929  -3.578  0.00  0.00    -0.001 A 
ATOM      9  C   UNL     1       0.381   5.705  -2.428  0.00  0.00    +0.045 A 
ATOM     10  C   UNL     1       0.603   5.021  -6.055  0.00  0.00    +0.045 C 
ATOM     11  C   UNL     1       1.858   4.517  -6.987  0.00  0.00    +0.090 C 
ATOM     12  N   UNL     1       1.614   5.674  -8.011  0.00  0.00    -0.271 NA
ATOM     13  C   UNL     1       2.416   6.728  -7.980  0.00  0.00    +0.073 C 
ATOM     14  C   UNL     1       2.449   7.508  -6.682  0.00  0.00    +0.028 C 
ATOM     15  C   UNL     1       3.088   5.243  -6.196  0.00  0.00    +0.148 C 
ATOM     16  O   UNL     1       4.175   5.223  -7.085  0.00  0.00    -0.224 OA
ATOM     17  C   UNL     1       3.427   4.073  -5.279  0.00  0.00    +0.040 C 
ATOM     18  C   UNL     1       1.396   6.655  -2.310  0.00  0.00    +0.229 A 
ATOM     19  O   UNL     1       2.068   6.775  -1.084  0.00  0.00    -0.283 OA
ATOM     20  C   UNL     1       2.735   6.485  -5.632  0.00  0.00    +0.094 C 
ATOM     21  C   UNL     1       4.735   4.516  -4.632  0.00  0.00    +0.071 C 
ENDROOT
BRANCH  12  22
ATOM     22  C   UNL     1       0.383   5.536  -8.610  0.00  0.00    +0.072 C 
BRANCH  22  23
ATOM     23  C   UNL     1       0.232   5.782 -10.058  0.00  0.00    +0.016 C 
ATOM     24  C   UNL     1      -0.082   4.504 -10.871  0.00  0.00    +0.001 C 
ATOM     25  C   UNL     1       1.164   5.385 -11.110  0.00  0.00    +0.001 C 
ENDBRANCH  22  23
ENDBRANCH  12  22
TORSDOF 2
ENDMDL
MODEL 6
REMARK VINA RESULT:      -7.3      2.978      5.508
REMARK  Name = 
REMARK  2 active torsions:
REMARK  status: ('A' for Active; 'I' for Inactive)
REMARK    1  A    between atoms: N_19  and  C_20
REMARK    2  A    between atoms: C_20  and  C_21
REMARK                            x       y       z     vdW  Elec       q    Type
REMARK                         _______ _______ _______ _____ _____    ______ ____
ROOT
ATOM      1  O   UNL     1       4.297   5.956  -7.301  0.00  0.00    -0.292 OA
ATOM      2  C   UNL     1       3.476   5.718  -6.893  0.00  0.00    +0.191 C 
ATOM      3  C   UNL     1       2.447   6.972  -6.944  0.00  0.00    +0.228 C 
ATOM      4  O   UNL     1       3.391   7.829  -6.068  0.00  0.00    -0.468 OA
ATOM      5  C   UNL     1       3.702   7.062  -4.980  0.00  0.00    +0.173 A 
ATOM      6  C   UNL     1       2.486   6.577  -4.557  0.00  0.00    +0.017 A 
ATOM      7  C   UNL     1       2.377   5.440  -3.748  0.00  0.00    -0.021 A 
ATOM      8  C   UNL     1       3.385   5.354  -2.793  0.00  0.00    -0.001 A 
ATOM      9  C   UNL     1       4.499   6.187  -2.889  0.00  0.00    +0.045 A 
ATOM     10  C   UNL     1       0.966   5.240  -3.435  0.00  0.00    +0.045 C 
ATOM     11  C   UNL     1       0.218   4.546  -4.721  0.00  0.00    +0.090 C 
ATOM     12  N   UNL     1      -0.891   5.649  -4.724  0.00  0.00    -0.271 NA
ATOM     13  C   UNL     1      -0.823   6.614  -5.631  0.00  0.00    +0.073 C 
ATOM     14  C   UNL     1       0.425   7.472  -5.607  0.00  0.00    +0.028 C 
ATOM     15  C   UNL     1       1.106   5.189  -5.929  0.00  0.00    +0.148 C 
ATOM     16  O   UNL     1       0.355   4.995  -7.099  0.00  0.00    -0.224 OA
ATOM     17  C   UNL     1       2.120   4.055  -6.031  0.00  0.00    +0.040 C 
ATOM     18  C   UNL     1       4.683   7.031  -3.985  0.00  0.00    +0.229 A 
ATOM     19  O   UNL     1       5.971   7.162  -4.526  0.00  0.00    -0.283 OA
ATOM     20  C   UNL     1       1.555   6.497  -5.658  0.00  0.00    +0.094 C 
ATOM     21  C   UNL     1       2.891   4.400  -7.300  0.00  0.00    +0.071 C 
ENDROOT
BRANCH  12  22
ATOM     22  C   UNL     1      -1.622   5.602  -3.559  0.00  0.00    +0.072 C 
BRANCH  22  23
ATOM     23  C   UNL     1      -2.525   6.715  -3.207  0.00  0.00    +0.016 C 
ATOM     24  C   UNL     1      -2.653   6.946  -1.682  0.00  0.00    +0.001 C 
ATOM     25  C   UNL     1      -3.848   6.603  -2.597  0.00  0.00    +0.001 C 
ENDBRANCH  22  23
ENDBRANCH  12  22
TORSDOF 2
ENDMDL
MODEL 7
REMARK VINA RESULT:      -7.3      2.831      4.302
REMARK  Name = 
REMARK  2 active torsions:
REMARK  status: ('A' for Active; 'I' for Inactive)
REMARK    1  A    between atoms: N_19  and  C_20
REMARK    2  A    between atoms: C_20  and  C_21
REMARK                            x       y       z     vdW  Elec       q    Type
REMARK                         _______ _______ _______ _____ _____    ______ ____
ROOT
ATOM      1  O   UNL     1       5.685   6.576  -3.735  0.00  0.00    -0.292 OA
ATOM      2  C   UNL     1       4.926   6.177  -4.139  0.00  0.00    +0.191 C 
ATOM      3  C   UNL     1       4.219   7.232  -5.149  0.00  0.00    +0.228 C 
ATOM      4  O   UNL     1       3.911   8.201  -3.982  0.00  0.00    -0.468 OA
ATOM      5  C   UNL     1       3.301   7.450  -3.017  0.00  0.00    +0.173 A 
ATOM      6  C   UNL     1       2.343   6.739  -3.702  0.00  0.00    +0.017 A 
ATOM      7  C   UNL     1       1.779   5.565  -3.193  0.00  0.00    -0.021 A 
ATOM      8  C   UNL     1       1.572   5.613  -1.817  0.00  0.00    -0.001 A 
ATOM      9  C   UNL     1       2.158   6.632  -1.068  0.00  0.00    +0.045 A 
ATOM     10  C   UNL     1       0.762   5.106  -4.133  0.00  0.00    +0.045 C 
ATOM     11  C   UNL     1       1.492   4.351  -5.396  0.00  0.00    +0.090 C 
ATOM     12  N   UNL     1       0.722   5.242  -6.426  0.00  0.00    -0.271 NA
ATOM     13  C   UNL     1       1.368   6.244  -7.004  0.00  0.00    +0.073 C 
ATOM     14  C   UNL     1       1.926   7.306  -6.080  0.00  0.00    +0.028 C 
ATOM     15  C   UNL     1       2.887   5.197  -5.444  0.00  0.00    +0.148 C 
ATOM     16  O   UNL     1       3.450   4.928  -6.702  0.00  0.00    -0.224 OA
ATOM     17  C   UNL     1       3.694   4.264  -4.547  0.00  0.00    +0.040 C 
ATOM     18  C   UNL     1       3.040   7.546  -1.647  0.00  0.00    +0.229 A 
ATOM     19  O   UNL     1       4.184   7.926  -0.929  0.00  0.00    -0.283 OA
ATOM     20  C   UNL     1       2.735   6.549  -5.078  0.00  0.00    +0.094 C 
ATOM     21  C   UNL     1       5.114   4.798  -4.692  0.00  0.00    +0.071 C 
ENDROOT
BRANCH  12  22
ATOM     22  C   UNL     1      -0.633   5.012  -6.344  0.00  0.00    +0.072 C 
BRANCH  22  23
ATOM     23  C   UNL     1      -1.586   6.113  -6.588  0.00  0.00    +0.016 C 
ATOM     24  C   UNL     1      -2.146   6.742  -5.289  0.00  0.00    +0.001 C 
ATOM     25  C   UNL     1      -3.029   6.079  -6.368  0.00  0.00    +0.001 C 
ENDBRANCH  22  23
ENDBRANCH  12  22
TORSDOF 2
ENDMDL
MODEL 8
REMARK VINA RESULT:      -7.2      2.579      4.903
REMARK  Name = 
REMARK  2 active torsions:
REMARK  status: ('A' for Active; 'I' for Inactive)
REMARK    1  A    between atoms: N_19  and  C_20
REMARK    2  A    between atoms: C_20  and  C_21
REMARK                            x       y       z     vdW  Elec       q    Type
REMARK                         _______ _______ _______ _____ _____    ______ ____
ROOT
ATOM      1  O   UNL     1       4.615   6.060  -6.527  0.00  0.00    -0.292 OA
ATOM      2  C   UNL     1       3.932   6.161  -7.176  0.00  0.00    +0.191 C 
ATOM      3  C   UNL     1       3.346   4.708  -7.596  0.00  0.00    +0.228 C 
ATOM      4  O   UNL     1       4.723   4.272  -8.153  0.00  0.00    -0.468 OA
ATOM      5  C   UNL     1       5.126   5.272  -8.993  0.00  0.00    +0.173 A 
ATOM      6  C   UNL     1       4.021   5.517  -9.775  0.00  0.00    +0.017 A 
ATOM      7  C   UNL     1       3.851   6.718 -10.471  0.00  0.00    -0.021 A 
ATOM      8  C   UNL     1       5.039   7.212 -11.001  0.00  0.00    -0.001 A 
ATOM      9  C   UNL     1       6.255   6.670 -10.589  0.00  0.00    +0.045 A 
ATOM     10  C   UNL     1       2.616   6.624 -11.244  0.00  0.00    +0.045 C 
ATOM     11  C   UNL     1       1.334   6.878 -10.249  0.00  0.00    +0.090 C 
ATOM     12  N   UNL     1       0.648   5.557 -10.729  0.00  0.00    -0.271 NA
ATOM     13  C   UNL     1       0.700   4.492  -9.941  0.00  0.00    +0.073 C 
ATOM     14  C   UNL     1       2.083   3.979  -9.597  0.00  0.00    +0.028 C 
ATOM     15  C   UNL     1       1.942   6.264  -8.864  0.00  0.00    +0.148 C 
ATOM     16  O   UNL     1       0.837   6.061  -8.022  0.00  0.00    -0.224 OA
ATOM     17  C   UNL     1       2.501   7.573  -8.317  0.00  0.00    +0.040 C 
ATOM     18  C   UNL     1       6.318   5.714  -9.573  0.00  0.00    +0.229 A 
ATOM     19  O   UNL     1       7.350   5.805  -8.627  0.00  0.00    -0.283 OA
ATOM     20  C   UNL     1       2.809   5.173  -9.069  0.00  0.00    +0.094 C 
ATOM     21  C   UNL     1       2.896   7.205  -6.892  0.00  0.00    +0.071 C 
ENDROOT
BRANCH  12  22
ATOM     22  C   UNL     1       0.340   5.632 -12.069  0.00  0.00    +0.072 C 
BRANCH  22  23
ATOM     23  C   UNL     1       0.599   4.479 -12.953  0.00  0.00    +0.016 C 
ATOM     24  C   UNL     1       1.680   4.755 -14.026  0.00  0.00    +0.001 C 
ATOM     25  C   UNL     1       0.225   4.360 -14.360  0.00  0.00    +0.001 C 
ENDBRANCH  22  23
ENDBRANCH  12  22
TORSDOF 2
ENDMDL
MODEL 9
REMARK VINA RESULT:      -6.9      1.896      5.334
REMARK  Name = 
REMARK  2 active torsions:
REMARK  status: ('A' for Active; 'I' for Inactive)
REMARK    1  A    between atoms: N_19  and  C_20
REMARK    2  A    between atoms: C_20  and  C_21
REMARK                            x       y       z     vdW  Elec       q    Type
REMARK                         _______ _______ _______ _____ _____    ______ ____
ROOT
ATOM      1  O   UNL     1       3.965   6.332  -9.545  0.00  0.00    -0.292 OA
ATOM      2  C   UNL     1       3.346   6.377  -8.829  0.00  0.00    +0.191 C 
ATOM      3  C   UNL     1       3.460   5.041  -7.915  0.00  0.00    +0.228 C 
ATOM      4  O   UNL     1       3.030   4.146  -9.102  0.00  0.00    -0.468 OA
ATOM      5  C   UNL     1       1.889   4.705  -9.605  0.00  0.00    +0.173 A 
ATOM      6  C   UNL     1       1.113   4.936  -8.493  0.00  0.00    +0.017 A 
ATOM      7  C   UNL     1       0.060   5.857  -8.496  0.00  0.00    -0.021 A 
ATOM      8  C   UNL     1      -0.648   5.870  -9.693  0.00  0.00    -0.001 A 
ATOM      9  C   UNL     1      -0.124   5.222 -10.811  0.00  0.00    +0.045 A 
ATOM     10  C   UNL     1      -0.588   5.809  -7.190  0.00  0.00    +0.045 C 
ATOM     11  C   UNL     1       0.311   6.655  -6.106  0.00  0.00    +0.090 C 
ATOM     12  N   UNL     1       0.327   5.445  -5.115  0.00  0.00    -0.271 NA
ATOM     13  C   UNL     1       1.424   4.706  -5.036  0.00  0.00    +0.073 C 
ATOM     14  C   UNL     1       1.869   4.025  -6.313  0.00  0.00    +0.028 C 
ATOM     15  C   UNL     1       1.797   6.392  -6.726  0.00  0.00    +0.148 C 
ATOM     16  O   UNL     1       2.700   6.728  -5.705  0.00  0.00    -0.224 OA
ATOM     17  C   UNL     1       1.852   7.641  -7.599  0.00  0.00    +0.040 C 
ATOM     18  C   UNL     1       1.150   4.652 -10.790  0.00  0.00    +0.229 A 
ATOM     19  O   UNL     1       1.972   4.799 -11.918  0.00  0.00    -0.283 OA
ATOM     20  C   UNL     1       1.938   5.124  -7.323  0.00  0.00    +0.094 C 
ATOM     21  C   UNL     1       3.302   7.665  -8.068  0.00  0.00    +0.071 C 
ENDROOT
BRANCH  12  22
ATOM     22  C   UNL     1      -0.947   5.159  -4.682  0.00  0.00    +0.072 C 
BRANCH  22  23
ATOM     23  C   UNL     1      -1.496   5.842  -3.494  0.00  0.00    +0.016 C 
ATOM     24  C   UNL     1      -2.986   5.515  -3.228  0.00  0.00    +0.001 C 
ATOM     25  C   UNL     1      -2.457   6.943  -3.489  0.00  0.00    +0.001 C 
ENDBRANCH  22  23
ENDBRANCH  12  22
TORSDOF 2
ENDMDL
