MODEL 1
REMARK VINA RESULT:      -9.8      0.000      0.000
REMARK  Name = 
REMARK  7 active torsions:
REMARK  status: ('A' for Active; 'I' for Inactive)
REMARK    1  A    between atoms: C_2  and  C_3
REMARK    2  A    between atoms: N_10  and  C_11
REMARK    3  A    between atoms: C_11  and  C_12
REMARK    4  A    between atoms: C_12  and  C_13
REMARK    5  A    between atoms: C_16  and  S_17
REMARK    6  A    between atoms: S_17  and  N_20
REMARK    7  A    between atoms: N_23  and  C_24
REMARK                            x       y       z     vdW  Elec       q    Type
REMARK                         _______ _______ _______ _____ _____    ______ ____
ROOT
ATOM      1  C   UNL     1       0.351   5.932 -12.378  0.00  0.00    -0.020 A 
ATOM      2  C   UNL     1       0.413   7.004 -11.514  0.00  0.00    -0.003 A 
ATOM      3  C   UNL     1       0.487   6.760 -10.153  0.00  0.00    +0.020 A 
ATOM      4  C   UNL     1       0.603   5.484  -9.645  0.00  0.00    +0.129 A 
ATOM      5  C   UNL     1       0.758   4.429 -10.535  0.00  0.00    +0.020 A 
ATOM      6  C   UNL     1       0.333   4.662 -11.837  0.00  0.00    -0.003 A 
ENDROOT
BRANCH   4   7
ATOM      7  S   UNL     1       1.409   5.341  -8.086  0.00  0.00    +0.104 S 
ATOM      8  O   UNL     1       2.368   6.487  -7.880  0.00  0.00    -0.146 OA
ATOM      9  O   UNL     1       2.146   4.034  -8.087  0.00  0.00    -0.146 OA
BRANCH   7  10
ATOM     10  N   UNL     1       0.264   5.378  -6.799  0.00  0.00    -0.071 NA
ATOM     11  C   UNL     1       0.502   4.940  -5.616  0.00  0.00    +0.371 C 
ATOM     12  N   UNL     1      -0.400   5.348  -4.587  0.00  0.00    -0.185 NA
ATOM     13  O   UNL     1       1.825   4.608  -5.324  0.00  0.00    -0.244 OA
BRANCH  12  14
ATOM     14  C   UNL     1      -1.619   6.089  -4.894  0.00  0.00    +0.097 C 
ATOM     15  C   UNL     1      -1.428   7.503  -4.423  0.00  0.00    +0.022 C 
ATOM     16  C   UNL     1      -2.329   7.880  -3.280  0.00  0.00    +0.002 C 
ATOM     17  C   UNL     1      -2.354   6.860  -2.177  0.00  0.00    +0.000 C 
ATOM     18  C   UNL     1      -1.285   7.061  -1.144  0.00  0.00    +0.000 C 
ATOM     19  C   UNL     1      -2.371   5.441  -2.676  0.00  0.00    +0.002 C 
ATOM     20  C   UNL     1      -2.802   5.496  -4.137  0.00  0.00    +0.022 C 
ENDBRANCH  12  14
ENDBRANCH   7  10
ENDBRANCH   4   7
BRANCH   1  21
ATOM     21  C   UNL     1       0.346   6.124 -13.857  0.00  0.00    +0.050 C 
BRANCH  21  22
ATOM     22  C   UNL     1       1.671   5.781 -14.478  0.00  0.00    +0.121 C 
BRANCH  22  28
ATOM     23  C   UNL     1       6.746   6.598 -11.189  0.00  0.00    +0.026 C 
ATOM     24  C   UNL     1       5.901   6.869 -12.359  0.00  0.00    +0.252 C 
ATOM     25  O   UNL     1       6.280   7.390 -13.436  0.00  0.00    -0.270 OA
ATOM     26  N   UNL     1       4.608   6.288 -12.153  0.00  0.00    -0.206 N 
ATOM     27  C   UNL     1       3.735   5.721 -13.137  0.00  0.00    +0.329 C 
ATOM     28  N   UNL     1       2.713   6.499 -13.771  0.00  0.00    -0.188 NA
ATOM     29  O   UNL     1       3.974   4.592 -13.661  0.00  0.00    -0.250 OA
ATOM     30  C   UNL     1       4.540   6.074 -10.710  0.00  0.00    +0.125 C 
ATOM     31  C   UNL     1       5.961   6.038 -10.283  0.00  0.00    -0.023 C 
ATOM     32  C   UNL     1       6.440   5.471  -8.999  0.00  0.00    +0.028 C 
BRANCH  23  34
ATOM     33  C   UNL     1       8.774   5.603 -12.226  0.00  0.00    +0.005 C 
ATOM     34  C   UNL     1       8.241   6.538 -11.151  0.00  0.00    +0.030 C 
ENDBRANCH  23  34
ENDBRANCH  22  28
ENDBRANCH  21  22
ENDBRANCH   1  21
TORSDOF 7
ENDMDL
MODEL 2
REMARK VINA RESULT:      -9.8      3.196     10.545
REMARK  Name = 
REMARK  7 active torsions:
REMARK  status: ('A' for Active; 'I' for Inactive)
REMARK    1  A    between atoms: C_2  and  C_3
REMARK    2  A    between atoms: N_10  and  C_11
REMARK    3  A    between atoms: C_11  and  C_12
REMARK    4  A    between atoms: C_12  and  C_13
REMARK    5  A    between atoms: C_16  and  S_17
REMARK    6  A    between atoms: S_17  and  N_20
REMARK    7  A    between atoms: N_23  and  C_24
REMARK                            x       y       z     vdW  Elec       q    Type
REMARK                         _______ _______ _______ _____ _____    ______ ____
ROOT
ATOM      1  C   UNL     1       4.665   6.705  -2.615  0.00  0.00    -0.020 A 
ATOM      2  C   UNL     1       4.482   7.677  -3.575  0.00  0.00    -0.003 A 
ATOM      3  C   UNL     1       4.359   7.292  -4.898  0.00  0.00    +0.020 A 
ATOM      4  C   UNL     1       4.312   5.966  -5.272  0.00  0.00    +0.129 A 
ATOM      5  C   UNL     1       4.279   4.998  -4.275  0.00  0.00    +0.020 A 
ATOM      6  C   UNL     1       4.750   5.391  -3.029  0.00  0.00    -0.003 A 
ENDROOT
BRANCH   4   7
ATOM      7  S   UNL     1       3.443   5.610  -6.761  0.00  0.00    +0.104 S 
ATOM      8  O   UNL     1       2.355   6.630  -6.994  0.00  0.00    -0.146 OA
ATOM      9  O   UNL     1       2.852   4.239  -6.613  0.00  0.00    -0.146 OA
BRANCH   7  10
ATOM     10  N   UNL     1       4.505   5.657  -8.116  0.00  0.00    -0.071 NA
ATOM     11  C   UNL     1       4.313   4.996  -9.200  0.00  0.00    +0.371 C 
ATOM     12  N   UNL     1       5.073   5.398 -10.341  0.00  0.00    -0.185 NA
ATOM     13  O   UNL     1       3.073   4.374  -9.344  0.00  0.00    -0.244 OA
BRANCH  12  14
ATOM     14  C   UNL     1       6.130   6.398 -10.236  0.00  0.00    +0.097 C 
ATOM     15  C   UNL     1       5.809   7.507 -11.197  0.00  0.00    +0.022 C 
ATOM     16  C   UNL     1       6.789   7.617 -12.333  0.00  0.00    +0.002 C 
ATOM     17  C   UNL     1       7.094   6.300 -12.988  0.00  0.00    +0.000 C 
ATOM     18  C   UNL     1       6.148   5.944 -14.097  0.00  0.00    +0.000 C 
ATOM     19  C   UNL     1       7.241   5.166 -12.012  0.00  0.00    +0.002 C 
ATOM     20  C   UNL     1       7.470   5.795 -10.642  0.00  0.00    +0.022 C 
ENDBRANCH  12  14
ENDBRANCH   7  10
ENDBRANCH   4   7
BRANCH   1  21
ATOM     21  C   UNL     1       4.730   7.046  -1.164  0.00  0.00    +0.050 C 
BRANCH  21  22
ATOM     22  C   UNL     1       3.628   6.392  -0.378  0.00  0.00    +0.121 C 
BRANCH  22  28
ATOM     23  C   UNL     1      -1.704   6.022  -3.321  0.00  0.00    +0.026 C 
ATOM     24  C   UNL     1      -0.893   6.359  -2.145  0.00  0.00    +0.252 C 
ATOM     25  O   UNL     1      -1.325   6.539  -0.980  0.00  0.00    -0.270 OA
ATOM     26  N   UNL     1       0.495   6.279  -2.490  0.00  0.00    -0.206 N 
ATOM     27  C   UNL     1       1.585   5.878  -1.652  0.00  0.00    +0.329 C 
ATOM     28  N   UNL     1       2.355   6.833  -0.912  0.00  0.00    -0.188 NA
ATOM     29  O   UNL     1       1.766   4.662  -1.339  0.00  0.00    -0.250 OA
ATOM     30  C   UNL     1       0.503   6.343  -3.948  0.00  0.00    +0.125 C 
ATOM     31  C   UNL     1      -0.862   5.912  -4.336  0.00  0.00    -0.023 C 
ATOM     32  C   UNL     1      -1.243   5.440  -5.690  0.00  0.00    +0.028 C 
BRANCH  23  34
ATOM     33  C   UNL     1      -4.067   6.463  -2.689  0.00  0.00    +0.005 C 
ATOM     34  C   UNL     1      -3.099   5.479  -3.330  0.00  0.00    +0.030 C 
ENDBRANCH  23  34
ENDBRANCH  22  28
ENDBRANCH  21  22
ENDBRANCH   1  21
TORSDOF 7
ENDMDL
MODEL 3
REMARK VINA RESULT:      -9.5      3.085     10.746
REMARK  Name = 
REMARK  7 active torsions:
REMARK  status: ('A' for Active; 'I' for Inactive)
REMARK    1  A    between atoms: C_2  and  C_3
REMARK    2  A    between atoms: N_10  and  C_11
REMARK    3  A    between atoms: C_11  and  C_12
REMARK    4  A    between atoms: C_12  and  C_13
REMARK    5  A    between atoms: C_16  and  S_17
REMARK    6  A    between atoms: S_17  and  N_20
REMARK    7  A    between atoms: N_23  and  C_24
REMARK                            x       y       z     vdW  Elec       q    Type
REMARK                         _______ _______ _______ _____ _____    ______ ____
ROOT
ATOM      1  C   UNL     1       3.801   5.623  -4.581  0.00  0.00    -0.020 A 
ATOM      2  C   UNL     1       2.980   4.634  -5.078  0.00  0.00    -0.003 A 
ATOM      3  C   UNL     1       2.192   4.914  -6.181  0.00  0.00    +0.020 A 
ATOM      4  C   UNL     1       2.277   6.113  -6.854  0.00  0.00    +0.129 A 
ATOM      5  C   UNL     1       3.262   7.017  -6.475  0.00  0.00    +0.020 A 
ATOM      6  C   UNL     1       3.770   6.861  -5.192  0.00  0.00    -0.003 A 
ENDROOT
BRANCH   4   7
ATOM      7  S   UNL     1       1.838   6.079  -8.559  0.00  0.00    +0.104 S 
ATOM      8  O   UNL     1       0.933   7.238  -8.895  0.00  0.00    -0.146 OA
ATOM      9  O   UNL     1       1.137   4.776  -8.810  0.00  0.00    -0.146 OA
BRANCH   7  10
ATOM     10  N   UNL     1       3.239   6.201  -9.555  0.00  0.00    -0.071 NA
ATOM     11  C   UNL     1       4.163   5.310  -9.605  0.00  0.00    +0.371 C 
ATOM     12  N   UNL     1       5.065   5.382 -10.710  0.00  0.00    -0.185 NA
ATOM     13  O   UNL     1       3.899   4.097  -8.968  0.00  0.00    -0.244 OA
BRANCH  12  14
ATOM     14  C   UNL     1       5.038   6.504 -11.641  0.00  0.00    +0.097 C 
ATOM     15  C   UNL     1       5.606   6.029 -12.949  0.00  0.00    +0.022 C 
ATOM     16  C   UNL     1       6.914   6.680 -13.304  0.00  0.00    +0.002 C 
ATOM     17  C   UNL     1       7.901   6.696 -12.172  0.00  0.00    +0.000 C 
ATOM     18  C   UNL     1       8.757   5.465 -12.099  0.00  0.00    +0.000 C 
ATOM     19  C   UNL     1       7.276   7.005 -10.839  0.00  0.00    +0.002 C 
ATOM     20  C   UNL     1       5.919   7.637 -11.128  0.00  0.00    +0.022 C 
ENDBRANCH  12  14
ENDBRANCH   7  10
ENDBRANCH   4   7
BRANCH   1  21
ATOM     21  C   UNL     1       4.731   5.364  -3.443  0.00  0.00    +0.050 C 
BRANCH  21  22
ATOM     22  C   UNL     1       4.002   4.910  -2.209  0.00  0.00    +0.121 C 
BRANCH  22  28
ATOM     23  C   UNL     1      -1.272   7.258  -0.235  0.00  0.00    +0.026 C 
ATOM     24  C   UNL     1       0.191   7.140  -0.194  0.00  0.00    +0.252 C 
ATOM     25  O   UNL     1       0.933   7.505   0.751  0.00  0.00    -0.270 OA
ATOM     26  N   UNL     1       0.635   6.383  -1.326  0.00  0.00    -0.206 N 
ATOM     27  C   UNL     1       1.751   5.488  -1.398  0.00  0.00    +0.329 C 
ATOM     28  N   UNL     1       3.041   5.929  -1.839  0.00  0.00    -0.188 NA
ATOM     29  O   UNL     1       1.716   4.342  -0.856  0.00  0.00    -0.250 OA
ATOM     30  C   UNL     1      -0.488   6.442  -2.256  0.00  0.00    +0.125 C 
ATOM     31  C   UNL     1      -1.656   6.749  -1.394  0.00  0.00    -0.023 C 
ATOM     32  C   UNL     1      -3.071   6.537  -1.786  0.00  0.00    +0.028 C 
BRANCH  23  34
ATOM     33  C   UNL     1      -2.074   8.907   1.443  0.00  0.00    +0.005 C 
ATOM     34  C   UNL     1      -2.192   7.482   0.925  0.00  0.00    +0.030 C 
ENDBRANCH  23  34
ENDBRANCH  22  28
ENDBRANCH  21  22
ENDBRANCH   1  21
TORSDOF 7
ENDMDL
MODEL 4
REMARK VINA RESULT:      -9.4      3.490      5.615
REMARK  Name = 
REMARK  7 active torsions:
REMARK  status: ('A' for Active; 'I' for Inactive)
REMARK    1  A    between atoms: C_2  and  C_3
REMARK    2  A    between atoms: N_10  and  C_11
REMARK    3  A    between atoms: C_11  and  C_12
REMARK    4  A    between atoms: C_12  and  C_13
REMARK    5  A    between atoms: C_16  and  S_17
REMARK    6  A    between atoms: S_17  and  N_20
REMARK    7  A    between atoms: N_23  and  C_24
REMARK                            x       y       z     vdW  Elec       q    Type
REMARK                         _______ _______ _______ _____ _____    ______ ____
ROOT
ATOM      1  C   UNL     1      -0.842   5.655  -6.316  0.00  0.00    -0.020 A 
ATOM      2  C   UNL     1       0.118   6.221  -5.503  0.00  0.00    -0.003 A 
ATOM      3  C   UNL     1      -0.252   6.660  -4.244  0.00  0.00    +0.020 A 
ATOM      4  C   UNL     1      -1.519   6.458  -3.741  0.00  0.00    +0.129 A 
ATOM      5  C   UNL     1      -2.412   5.696  -4.485  0.00  0.00    +0.020 A 
ATOM      6  C   UNL     1      -2.136   5.586  -5.842  0.00  0.00    -0.003 A 
ENDROOT
BRANCH   4   7
ATOM      7  S   UNL     1      -1.653   6.363  -1.989  0.00  0.00    +0.104 S 
ATOM      8  O   UNL     1      -2.294   5.060  -1.578  0.00  0.00    -0.146 OA
ATOM      9  O   UNL     1      -2.494   7.523  -1.545  0.00  0.00    -0.146 OA
BRANCH   7  10
ATOM     10  N   UNL     1      -0.098   6.438  -1.251  0.00  0.00    -0.071 NA
ATOM     11  C   UNL     1       0.660   5.418  -1.073  0.00  0.00    +0.371 C 
ATOM     12  N   UNL     1       2.032   5.681  -0.776  0.00  0.00    -0.185 NA
ATOM     13  O   UNL     1       0.274   4.232  -1.698  0.00  0.00    -0.244 OA
BRANCH  12  14
ATOM     14  C   UNL     1       2.509   7.037  -0.527  0.00  0.00    +0.097 C 
ATOM     15  C   UNL     1       2.524   7.767  -1.841  0.00  0.00    +0.022 C 
ATOM     16  C   UNL     1       3.907   8.123  -2.312  0.00  0.00    +0.002 C 
ATOM     17  C   UNL     1       4.880   6.982  -2.229  0.00  0.00    +0.000 C 
ATOM     18  C   UNL     1       4.898   6.114  -3.453  0.00  0.00    +0.000 C 
ATOM     19  C   UNL     1       4.730   6.158  -0.979  0.00  0.00    +0.002 C 
ATOM     20  C   UNL     1       3.936   7.005   0.010  0.00  0.00    +0.022 C 
ENDBRANCH  12  14
ENDBRANCH   7  10
ENDBRANCH   4   7
BRANCH   1  21
ATOM     21  C   UNL     1      -0.494   5.093  -7.654  0.00  0.00    +0.050 C 
BRANCH  21  22
ATOM     22  C   UNL     1       0.074   6.136  -8.575  0.00  0.00    +0.121 C 
BRANCH  22  28
ATOM     23  C   UNL     1       5.998   6.062 -10.034  0.00  0.00    +0.026 C 
ATOM     24  C   UNL     1       4.802   5.455  -9.437  0.00  0.00    +0.252 C 
ATOM     25  O   UNL     1       4.790   4.501  -8.621  0.00  0.00    -0.270 OA
ATOM     26  N   UNL     1       3.652   6.232  -9.791  0.00  0.00    -0.206 N 
ATOM     27  C   UNL     1       2.476   6.463  -9.007  0.00  0.00    +0.329 C 
ATOM     28  N   UNL     1       1.314   5.635  -9.134  0.00  0.00    -0.188 NA
ATOM     29  O   UNL     1       2.489   7.246  -8.009  0.00  0.00    -0.250 OA
ATOM     30  C   UNL     1       4.092   7.013 -10.943  0.00  0.00    +0.125 C 
ATOM     31  C   UNL     1       5.570   7.034 -10.822  0.00  0.00    -0.023 C 
ATOM     32  C   UNL     1       6.458   8.002 -11.512  0.00  0.00    +0.028 C 
BRANCH  23  34
ATOM     33  C   UNL     1       8.284   5.262 -10.597  0.00  0.00    +0.005 C 
ATOM     34  C   UNL     1       7.410   5.938  -9.551  0.00  0.00    +0.030 C 
ENDBRANCH  23  34
ENDBRANCH  22  28
ENDBRANCH  21  22
ENDBRANCH   1  21
TORSDOF 7
ENDMDL
MODEL 5
REMARK VINA RESULT:      -9.4      3.476      5.450
REMARK  Name = 
REMARK  7 active torsions:
REMARK  status: ('A' for Active; 'I' for Inactive)
REMARK    1  A    between atoms: C_2  and  C_3
REMARK    2  A    between atoms: N_10  and  C_11
REMARK    3  A    between atoms: C_11  and  C_12
REMARK    4  A    between atoms: C_12  and  C_13
REMARK    5  A    between atoms: C_16  and  S_17
REMARK    6  A    between atoms: S_17  and  N_20
REMARK    7  A    between atoms: N_23  and  C_24
REMARK                            x       y       z     vdW  Elec       q    Type
REMARK                         _______ _______ _______ _____ _____    ______ ____
ROOT
ATOM      1  C   UNL     1       3.767   6.665  -5.319  0.00  0.00    -0.020 A 
ATOM      2  C   UNL     1       3.483   5.386  -4.890  0.00  0.00    -0.003 A 
ATOM      3  C   UNL     1       3.820   5.028  -3.596  0.00  0.00    +0.020 A 
ATOM      4  C   UNL     1       4.335   5.937  -2.696  0.00  0.00    +0.129 A 
ATOM      5  C   UNL     1       4.413   7.272  -3.075  0.00  0.00    +0.020 A 
ATOM      6  C   UNL     1       4.406   7.518  -4.442  0.00  0.00    -0.003 A 
ENDROOT
BRANCH   4   7
ATOM      7  S   UNL     1       4.025   5.605  -0.996  0.00  0.00    +0.104 S 
ATOM      8  O   UNL     1       4.806   6.557  -0.122  0.00  0.00    -0.146 OA
ATOM      9  O   UNL     1       4.447   4.189  -0.736  0.00  0.00    -0.146 OA
BRANCH   7  10
ATOM     10  N   UNL     1       2.354   5.805  -0.627  0.00  0.00    -0.071 NA
ATOM     11  C   UNL     1       1.811   6.936  -0.355  0.00  0.00    +0.371 C 
ATOM     12  N   UNL     1       0.385   6.995  -0.414  0.00  0.00    -0.185 NA
ATOM     13  O   UNL     1       2.588   8.074  -0.572  0.00  0.00    -0.244 OA
BRANCH  12  14
ATOM     14  C   UNL     1      -0.417   5.794  -0.614  0.00  0.00    +0.097 C 
ATOM     15  C   UNL     1      -0.347   5.431  -2.070  0.00  0.00    +0.022 C 
ATOM     16  C   UNL     1      -1.661   5.574  -2.787  0.00  0.00    +0.002 C 
ATOM     17  C   UNL     1      -2.356   6.876  -2.508  0.00  0.00    +0.000 C 
ATOM     18  C   UNL     1      -1.954   7.986  -3.434  0.00  0.00    +0.000 C 
ATOM     19  C   UNL     1      -2.264   7.306  -1.069  0.00  0.00    +0.002 C 
ATOM     20  C   UNL     1      -1.876   6.069  -0.267  0.00  0.00    +0.022 C 
ENDBRANCH  12  14
ENDBRANCH   7  10
ENDBRANCH   4   7
BRANCH   1  21
ATOM     21  C   UNL     1       3.362   7.138  -6.675  0.00  0.00    +0.050 C 
BRANCH  21  22
ATOM     22  C   UNL     1       3.339   6.021  -7.681  0.00  0.00    +0.121 C 
BRANCH  22  28
ATOM     23  C   UNL     1       6.694   6.034 -12.777  0.00  0.00    +0.026 C 
ATOM     24  C   UNL     1       5.418   6.173 -12.064  0.00  0.00    +0.252 C 
ATOM     25  O   UNL     1       4.276   6.122 -12.582  0.00  0.00    -0.270 OA
ATOM     26  N   UNL     1       5.666   6.202 -10.653  0.00  0.00    -0.206 N 
ATOM     27  C   UNL     1       4.835   5.687  -9.607  0.00  0.00    +0.329 C 
ATOM     28  N   UNL     1       3.878   6.513  -8.933  0.00  0.00    -0.188 NA
ATOM     29  O   UNL     1       4.735   4.441  -9.394  0.00  0.00    -0.250 OA
ATOM     30  C   UNL     1       7.084   6.533 -10.548  0.00  0.00    +0.125 C 
ATOM     31  C   UNL     1       7.646   6.139 -11.864  0.00  0.00    -0.023 C 
ATOM     32  C   UNL     1       9.088   5.913 -12.129  0.00  0.00    +0.028 C 
BRANCH  23  34
ATOM     33  C   UNL     1       6.884   6.553 -15.200  0.00  0.00    +0.005 C 
ATOM     34  C   UNL     1       6.907   5.459 -14.143  0.00  0.00    +0.030 C 
ENDBRANCH  23  34
ENDBRANCH  22  28
ENDBRANCH  21  22
ENDBRANCH   1  21
TORSDOF 7
ENDMDL
MODEL 6
REMARK VINA RESULT:      -9.3      1.823      2.529
REMARK  Name = 
REMARK  7 active torsions:
REMARK  status: ('A' for Active; 'I' for Inactive)
REMARK    1  A    between atoms: C_2  and  C_3
REMARK    2  A    between atoms: N_10  and  C_11
REMARK    3  A    between atoms: C_11  and  C_12
REMARK    4  A    between atoms: C_12  and  C_13
REMARK    5  A    between atoms: C_16  and  S_17
REMARK    6  A    between atoms: S_17  and  N_20
REMARK    7  A    between atoms: N_23  and  C_24
REMARK                            x       y       z     vdW  Elec       q    Type
REMARK                         _______ _______ _______ _____ _____    ______ ____
ROOT
ATOM      1  C   UNL     1       0.781   5.400 -10.740  0.00  0.00    -0.020 A 
ATOM      2  C   UNL     1       1.403   4.358 -10.084  0.00  0.00    -0.003 A 
ATOM      3  C   UNL     1       2.185   4.641  -8.978  0.00  0.00    +0.020 A 
ATOM      4  C   UNL     1       2.280   5.912  -8.455  0.00  0.00    +0.129 A 
ATOM      5  C   UNL     1       1.478   6.911  -8.994  0.00  0.00    +0.020 A 
ATOM      6  C   UNL     1       1.000   6.682 -10.277  0.00  0.00    -0.003 A 
ENDROOT
BRANCH   4   7
ATOM      7  S   UNL     1       2.642   6.018  -6.735  0.00  0.00    +0.104 S 
ATOM      8  O   UNL     1       3.159   7.393  -6.388  0.00  0.00    -0.146 OA
ATOM      9  O   UNL     1       3.679   4.977  -6.435  0.00  0.00    -0.146 OA
BRANCH   7  10
ATOM     10  N   UNL     1       1.226   5.738  -5.793  0.00  0.00    -0.071 NA
ATOM     11  C   UNL     1       1.246   5.342  -4.572  0.00  0.00    +0.371 C 
ATOM     12  N   UNL     1       0.034   5.488  -3.830  0.00  0.00    -0.185 NA
ATOM     13  O   UNL     1       2.486   5.342  -3.932  0.00  0.00    -0.244 OA
BRANCH  12  14
ATOM     14  C   UNL     1      -1.205   5.912  -4.474  0.00  0.00    +0.097 C 
ATOM     15  C   UNL     1      -1.346   7.393  -4.268  0.00  0.00    +0.022 C 
ATOM     16  C   UNL     1      -2.505   7.767  -3.386  0.00  0.00    +0.002 C 
ATOM     17  C   UNL     1      -2.580   6.959  -2.122  0.00  0.00    +0.000 C 
ATOM     18  C   UNL     1      -1.784   7.535  -0.989  0.00  0.00    +0.000 C 
ATOM     19  C   UNL     1      -2.264   5.502  -2.325  0.00  0.00    +0.002 C 
ATOM     20  C   UNL     1      -2.400   5.229  -3.819  0.00  0.00    +0.022 C 
ENDBRANCH  12  14
ENDBRANCH   7  10
ENDBRANCH   4   7
BRANCH   1  21
ATOM     21  C   UNL     1      -0.135   5.157 -11.892  0.00  0.00    +0.050 C 
BRANCH  21  22
ATOM     22  C   UNL     1       0.595   4.630 -13.096  0.00  0.00    +0.121 C 
BRANCH  22  28
ATOM     23  C   UNL     1       6.054   6.563 -15.017  0.00  0.00    +0.026 C 
ATOM     24  C   UNL     1       4.587   6.561 -15.070  0.00  0.00    +0.252 C 
ATOM     25  O   UNL     1       3.884   6.987 -16.018  0.00  0.00    -0.270 OA
ATOM     26  N   UNL     1       4.075   5.836 -13.946  0.00  0.00    -0.206 N 
ATOM     27  C   UNL     1       2.892   5.032 -13.887  0.00  0.00    +0.329 C 
ATOM     28  N   UNL     1       1.637   5.571 -13.453  0.00  0.00    -0.188 NA
ATOM     29  O   UNL     1       2.841   3.889 -14.434  0.00  0.00    -0.250 OA
ATOM     30  C   UNL     1       5.192   5.802 -13.006  0.00  0.00    +0.125 C 
ATOM     31  C   UNL     1       6.387   6.021 -13.858  0.00  0.00    -0.023 C 
ATOM     32  C   UNL     1       7.778   5.695 -13.456  0.00  0.00    +0.028 C 
BRANCH  23  34
ATOM     33  C   UNL     1       7.027   8.160 -16.655  0.00  0.00    +0.005 C 
ATOM     34  C   UNL     1       6.998   6.719 -16.169  0.00  0.00    +0.030 C 
ENDBRANCH  23  34
ENDBRANCH  22  28
ENDBRANCH  21  22
ENDBRANCH   1  21
TORSDOF 7
ENDMDL
MODEL 7
REMARK VINA RESULT:      -9.2      3.207      4.964
REMARK  Name = 
REMARK  7 active torsions:
REMARK  status: ('A' for Active; 'I' for Inactive)
REMARK    1  A    between atoms: C_2  and  C_3
REMARK    2  A    between atoms: N_10  and  C_11
REMARK    3  A    between atoms: C_11  and  C_12
REMARK    4  A    between atoms: C_12  and  C_13
REMARK    5  A    between atoms: C_16  and  S_17
REMARK    6  A    between atoms: S_17  and  N_20
REMARK    7  A    between atoms: N_23  and  C_24
REMARK                            x       y       z     vdW  Elec       q    Type
REMARK                         _______ _______ _______ _____ _____    ______ ____
ROOT
ATOM      1  C   UNL     1      -0.477   5.415  -7.332  0.00  0.00    -0.020 A 
ATOM      2  C   UNL     1      -1.740   5.782  -6.921  0.00  0.00    -0.003 A 
ATOM      3  C   UNL     1      -2.046   5.720  -5.572  0.00  0.00    +0.020 A 
ATOM      4  C   UNL     1      -1.100   5.403  -4.622  0.00  0.00    +0.129 A 
ATOM      5  C   UNL     1       0.220   5.247  -5.028  0.00  0.00    +0.020 A 
ATOM      6  C   UNL     1       0.414   4.971  -6.375  0.00  0.00    -0.003 A 
ENDROOT
BRANCH   4   7
ATOM      7  S   UNL     1      -1.369   6.058  -3.011  0.00  0.00    +0.104 S 
ATOM      8  O   UNL     1      -2.113   5.064  -2.154  0.00  0.00    -0.146 OA
ATOM      9  O   UNL     1      -2.172   7.315  -3.171  0.00  0.00    -0.146 OA
BRANCH   7  10
ATOM     10  N   UNL     1       0.129   6.404  -2.233  0.00  0.00    -0.071 NA
ATOM     11  C   UNL     1       0.780   5.556  -1.522  0.00  0.00    +0.371 C 
ATOM     12  N   UNL     1       2.144   5.868  -1.239  0.00  0.00    -0.185 NA
ATOM     13  O   UNL     1       0.337   4.233  -1.561  0.00  0.00    -0.244 OA
BRANCH  12  14
ATOM     14  C   UNL     1       2.719   7.159  -1.600  0.00  0.00    +0.097 C 
ATOM     15  C   UNL     1       2.598   7.315  -3.089  0.00  0.00    +0.022 C 
ATOM     16  C   UNL     1       3.923   7.321  -3.800  0.00  0.00    +0.002 C 
ATOM     17  C   UNL     1       4.838   6.211  -3.369  0.00  0.00    +0.000 C 
ATOM     18  C   UNL     1       4.650   4.939  -4.141  0.00  0.00    +0.000 C 
ATOM     19  C   UNL     1       4.812   5.957  -1.886  0.00  0.00    +0.002 C 
ATOM     20  C   UNL     1       4.201   7.196  -1.241  0.00  0.00    +0.022 C 
ENDBRANCH  12  14
ENDBRANCH   7  10
ENDBRANCH   4   7
BRANCH   1  21
ATOM     21  C   UNL     1      -0.059   5.529  -8.760  0.00  0.00    +0.050 C 
BRANCH  21  22
ATOM     22  C   UNL     1       1.095   4.623  -9.086  0.00  0.00    +0.121 C 
BRANCH  22  28
ATOM     23  C   UNL     1       6.024   6.352 -12.240  0.00  0.00    +0.026 C 
ATOM     24  C   UNL     1       4.726   5.674 -12.131  0.00  0.00    +0.252 C 
ATOM     25  O   UNL     1       4.273   4.819 -12.931  0.00  0.00    -0.270 OA
ATOM     26  N   UNL     1       4.124   6.006 -10.875  0.00  0.00    -0.206 N 
ATOM     27  C   UNL     1       3.287   5.179 -10.058  0.00  0.00    +0.329 C 
ATOM     28  N   UNL     1       1.859   5.217 -10.165  0.00  0.00    -0.188 NA
ATOM     29  O   UNL     1       3.765   4.217  -9.384  0.00  0.00    -0.250 OA
ATOM     30  C   UNL     1       4.832   7.210 -10.448  0.00  0.00    +0.125 C 
ATOM     31  C   UNL     1       6.112   7.160 -11.196  0.00  0.00    -0.023 C 
ATOM     32  C   UNL     1       7.328   7.930 -10.837  0.00  0.00    +0.028 C 
BRANCH  23  34
ATOM     33  C   UNL     1       6.935   6.194 -14.547  0.00  0.00    +0.005 C 
ATOM     34  C   UNL     1       7.195   5.930 -13.072  0.00  0.00    +0.030 C 
ENDBRANCH  23  34
ENDBRANCH  22  28
ENDBRANCH  21  22
ENDBRANCH   1  21
TORSDOF 7
ENDMDL
MODEL 8
REMARK VINA RESULT:      -9.2      2.284      9.833
REMARK  Name = 
REMARK  7 active torsions:
REMARK  status: ('A' for Active; 'I' for Inactive)
REMARK    1  A    between atoms: C_2  and  C_3
REMARK    2  A    between atoms: N_10  and  C_11
REMARK    3  A    between atoms: C_11  and  C_12
REMARK    4  A    between atoms: C_12  and  C_13
REMARK    5  A    between atoms: C_16  and  S_17
REMARK    6  A    between atoms: S_17  and  N_20
REMARK    7  A    between atoms: N_23  and  C_24
REMARK                            x       y       z     vdW  Elec       q    Type
REMARK                         _______ _______ _______ _____ _____    ______ ____
ROOT
ATOM      1  C   UNL     1       0.283   5.488  -9.572  0.00  0.00    -0.020 A 
ATOM      2  C   UNL     1      -0.082   4.358 -10.272  0.00  0.00    -0.003 A 
ATOM      3  C   UNL     1       0.052   4.355 -11.650  0.00  0.00    +0.020 A 
ATOM      4  C   UNL     1       0.631   5.405 -12.330  0.00  0.00    +0.129 A 
ATOM      5  C   UNL     1       1.191   6.442 -11.593  0.00  0.00    +0.020 A 
ATOM      6  C   UNL     1       0.735   6.578 -10.288  0.00  0.00    -0.003 A 
ENDROOT
BRANCH   4   7
ATOM      7  S   UNL     1       1.401   5.007 -13.862  0.00  0.00    +0.104 S 
ATOM      8  O   UNL     1       1.048   6.031 -14.912  0.00  0.00    -0.146 OA
ATOM      9  O   UNL     1       0.906   3.650 -14.267  0.00  0.00    -0.146 OA
BRANCH   7  10
ATOM     10  N   UNL     1       3.116   4.991 -13.700  0.00  0.00    -0.071 NA
ATOM     11  C   UNL     1       3.906   5.745 -14.374  0.00  0.00    +0.371 C 
ATOM     12  N   UNL     1       5.245   5.867 -13.891  0.00  0.00    -0.185 NA
ATOM     13  O   UNL     1       3.315   6.764 -15.122  0.00  0.00    -0.244 OA
BRANCH  12  14
ATOM     14  C   UNL     1       5.732   5.049 -12.786  0.00  0.00    +0.097 C 
ATOM     15  C   UNL     1       5.120   5.577 -11.520  0.00  0.00    +0.022 C 
ATOM     16  C   UNL     1       6.122   6.189 -10.580  0.00  0.00    +0.002 C 
ATOM     17  C   UNL     1       7.069   7.142 -11.253  0.00  0.00    +0.000 C 
ATOM     18  C   UNL     1       6.561   8.552 -11.317  0.00  0.00    +0.000 C 
ATOM     19  C   UNL     1       7.534   6.668 -12.603  0.00  0.00    +0.002 C 
ATOM     20  C   UNL     1       7.246   5.173 -12.665  0.00  0.00    +0.022 C 
ENDBRANCH  12  14
ENDBRANCH   7  10
ENDBRANCH   4   7
BRANCH   1  21
ATOM     21  C   UNL     1       0.234   5.529  -8.081  0.00  0.00    +0.050 C 
BRANCH  21  22
ATOM     22  C   UNL     1      -1.176   5.493  -7.560  0.00  0.00    +0.121 C 
BRANCH  22  28
ATOM     23  C   UNL     1      -0.838   5.696  -1.471  0.00  0.00    +0.026 C 
ATOM     24  C   UNL     1      -1.490   5.285  -2.721  0.00  0.00    +0.252 C 
ATOM     25  O   UNL     1      -2.678   4.894  -2.838  0.00  0.00    -0.270 OA
ATOM     26  N   UNL     1      -0.618   5.563  -3.822  0.00  0.00    -0.206 N 
ATOM     27  C   UNL     1      -0.982   5.958  -5.150  0.00  0.00    +0.329 C 
ATOM     28  N   UNL     1      -1.153   4.996  -6.199  0.00  0.00    -0.188 NA
ATOM     29  O   UNL     1      -1.399   7.129  -5.402  0.00  0.00    -0.250 OA
ATOM     30  C   UNL     1       0.697   5.710  -3.206  0.00  0.00    +0.125 C 
ATOM     31  C   UNL     1       0.398   6.041  -1.791  0.00  0.00    -0.023 C 
ATOM     32  C   UNL     1       1.364   6.657  -0.848  0.00  0.00    +0.028 C 
BRANCH  23  34
ATOM     33  C   UNL     1      -2.062   7.494  -0.267  0.00  0.00    +0.005 C 
ATOM     34  C   UNL     1      -1.507   6.079  -0.188  0.00  0.00    +0.030 C 
ENDBRANCH  23  34
ENDBRANCH  22  28
ENDBRANCH  21  22
ENDBRANCH   1  21
TORSDOF 7
ENDMDL
MODEL 9
REMARK VINA RESULT:      -9.2      3.448      5.975
REMARK  Name = 
REMARK  7 active torsions:
REMARK  status: ('A' for Active; 'I' for Inactive)
REMARK    1  A    between atoms: C_2  and  C_3
REMARK    2  A    between atoms: N_10  and  C_11
REMARK    3  A    between atoms: C_11  and  C_12
REMARK    4  A    between atoms: C_12  and  C_13
REMARK    5  A    between atoms: C_16  and  S_17
REMARK    6  A    between atoms: S_17  and  N_20
REMARK    7  A    between atoms: N_23  and  C_24
REMARK                            x       y       z     vdW  Elec       q    Type
REMARK                         _______ _______ _______ _____ _____    ______ ____
ROOT
ATOM      1  C   UNL     1       4.125   6.322  -5.323  0.00  0.00    -0.020 A 
ATOM      2  C   UNL     1       3.834   5.036  -4.920  0.00  0.00    -0.003 A 
ATOM      3  C   UNL     1       4.020   4.697  -3.591  0.00  0.00    +0.020 A 
ATOM      4  C   UNL     1       4.387   5.628  -2.644  0.00  0.00    +0.129 A 
ATOM      5  C   UNL     1       4.466   6.963  -3.022  0.00  0.00    +0.020 A 
ATOM      6  C   UNL     1       4.620   7.202  -4.382  0.00  0.00    -0.003 A 
ENDROOT
BRANCH   4   7
ATOM      7  S   UNL     1       3.880   5.295  -0.991  0.00  0.00    +0.104 S 
ATOM      8  O   UNL     1       4.565   6.234  -0.029  0.00  0.00    -0.146 OA
ATOM      9  O   UNL     1       4.253   3.873  -0.691  0.00  0.00    -0.146 OA
BRANCH   7  10
ATOM     10  N   UNL     1       2.180   5.513  -0.817  0.00  0.00    -0.071 NA
ATOM     11  C   UNL     1       1.626   6.640  -0.548  0.00  0.00    +0.371 C 
ATOM     12  N   UNL     1       0.220   6.735  -0.776  0.00  0.00    -0.185 NA
ATOM     13  O   UNL     1       2.443   7.770  -0.605  0.00  0.00    -0.244 OA
BRANCH  12  14
ATOM     14  C   UNL     1      -0.572   5.565  -1.139  0.00  0.00    +0.097 C 
ATOM     15  C   UNL     1      -0.405   5.337  -2.615  0.00  0.00    +0.022 C 
ATOM     16  C   UNL     1      -1.667   5.558  -3.402  0.00  0.00    +0.002 C 
ATOM     17  C   UNL     1      -2.374   6.836  -3.051  0.00  0.00    +0.000 C 
ATOM     18  C   UNL     1      -1.906   8.022  -3.841  0.00  0.00    +0.000 C 
ATOM     19  C   UNL     1      -2.378   7.131  -1.575  0.00  0.00    +0.002 C 
ATOM     20  C   UNL     1      -2.050   5.822  -0.867  0.00  0.00    +0.022 C 
ENDBRANCH  12  14
ENDBRANCH   7  10
ENDBRANCH   4   7
BRANCH   1  21
ATOM     21  C   UNL     1       3.876   6.773  -6.724  0.00  0.00    +0.050 C 
BRANCH  21  22
ATOM     22  C   UNL     1       2.409   6.854  -7.040  0.00  0.00    +0.121 C 
BRANCH  22  28
ATOM     23  C   UNL     1       2.083   6.002 -13.073  0.00  0.00    +0.026 C 
ATOM     24  C   UNL     1       1.552   6.520 -11.806  0.00  0.00    +0.252 C 
ATOM     25  O   UNL     1       0.366   6.874 -11.595  0.00  0.00    -0.270 OA
ATOM     26  N   UNL     1       2.553   6.399 -10.790  0.00  0.00    -0.206 N 
ATOM     27  C   UNL     1       2.359   6.137  -9.395  0.00  0.00    +0.329 C 
ATOM     28  N   UNL     1       2.255   7.199  -8.439  0.00  0.00    -0.188 NA
ATOM     29  O   UNL     1       2.034   4.985  -8.977  0.00  0.00    -0.250 OA
ATOM     30  C   UNL     1       3.799   6.238 -11.535  0.00  0.00    +0.125 C 
ATOM     31  C   UNL     1       3.363   5.744 -12.864  0.00  0.00    -0.023 C 
ATOM     32  C   UNL     1       4.250   5.067 -13.843  0.00  0.00    +0.028 C 
BRANCH  23  34
ATOM     33  C   UNL     1       0.659   4.123 -13.861  0.00  0.00    +0.005 C 
ATOM     34  C   UNL     1       1.297   5.455 -14.225  0.00  0.00    +0.030 C 
ENDBRANCH  23  34
ENDBRANCH  22  28
ENDBRANCH  21  22
ENDBRANCH   1  21
TORSDOF 7
ENDMDL
