MODEL 1
REMARK VINA RESULT:      -9.0      0.000      0.000
REMARK  Name = 
REMARK  10 active torsions:
REMARK  status: ('A' for Active; 'I' for Inactive)
REMARK    1  A    between atoms: C_2  and  O_3
REMARK    2  A    between atoms: O_3  and  C_4
REMARK    3  A    between atoms: C_4  and  C_6
REMARK    4  A    between atoms: C_6  and  C_7
REMARK    5  A    between atoms: C_6  and  N_15
REMARK    6  A    between atoms: C_7  and  C_8
REMARK    7  A    between atoms: C_8  and  C_9
REMARK    8  A    between atoms: N_15  and  C_16
REMARK    9  A    between atoms: N_25  and  C_26
REMARK   10  A    between atoms: C_26  and  C_27
REMARK                            x       y       z     vdW  Elec       q    Type
REMARK                         _______ _______ _______ _____ _____    ______ ____
ROOT
ATOM      1  C   UNL     1       1.055   6.239  -6.237  0.00  0.00    +0.150 C 
ATOM      2  C   UNL     1       1.585   5.864  -4.769  0.00  0.00    +0.246 C 
ATOM      3  O   UNL     1       2.594   5.215  -4.669  0.00  0.00    -0.273 OA
ATOM      4  N   UNL     1       0.718   5.766  -3.628  0.00  0.00    -0.247 N 
ATOM      5  C   UNL     1      -0.712   5.876  -3.635  0.00  0.00    +0.050 A 
ATOM      6  C   UNL     1      -1.598   5.755  -4.701  0.00  0.00    -0.008 A 
ATOM      7  C   UNL     1      -2.933   5.584  -4.456  0.00  0.00    -0.003 A 
ATOM      8  C   UNL     1      -3.376   5.839  -3.172  0.00  0.00    -0.000 A 
ATOM      9  C   UNL     1      -2.524   6.330  -2.197  0.00  0.00    +0.001 A 
ATOM     10  C   UNL     1      -1.274   5.503  -6.138  0.00  0.00    +0.030 C 
ATOM     11  C   UNL     1      -1.196   6.550  -2.521  0.00  0.00    +0.015 A 
ATOM     12  C   UNL     1       0.110   4.891  -6.305  0.00  0.00    +0.031 C 
ENDROOT
BRANCH   1  13
ATOM     13  N   UNL     1       2.230   5.526  -7.009  0.00  0.00    -0.201 NA
BRANCH  13  14
ATOM     14  C   UNL     1       1.801   5.971  -8.464  0.00  0.00    +0.172 C 
BRANCH  14  15
ATOM     15  C   UNL     1       2.205   4.572  -9.154  0.00  0.00    +0.333 C 
ATOM     16  O   UNL     1       2.673   3.663  -8.482  0.00  0.00    -0.249 OA
BRANCH  15  17
ATOM     17  O   UNL     1       1.111   4.197  -9.949  0.00  0.00    -0.448 OA
BRANCH  17  19
ATOM     18  C   UNL     1       0.234   5.558 -11.744  0.00  0.00    +0.051 C 
ATOM     19  C   UNL     1       0.124   5.167 -10.291  0.00  0.00    +0.209 C 
ENDBRANCH  17  19
ENDBRANCH  15  17
ENDBRANCH  14  15
BRANCH  14  20
ATOM     20  C   UNL     1       3.267   6.666  -8.724  0.00  0.00    +0.033 C 
BRANCH  20  21
ATOM     21  C   UNL     1       3.533   6.704 -10.175  0.00  0.00    +0.028 C 
BRANCH  21  22
ATOM     22  C   UNL     1       4.999   6.627 -10.352  0.00  0.00    -0.022 A 
ATOM     23  C   UNL     1       5.685   7.511 -11.171  0.00  0.00    -0.004 A 
ATOM     24  C   UNL     1       7.035   7.690 -10.958  0.00  0.00    -0.000 A 
ATOM     25  C   UNL     1       7.783   6.849 -10.176  0.00  0.00    -0.000 A 
ATOM     26  C   UNL     1       7.128   5.819  -9.517  0.00  0.00    -0.000 A 
ATOM     27  C   UNL     1       5.764   5.655  -9.723  0.00  0.00    -0.004 A 
ENDBRANCH  21  22
ENDBRANCH  20  21
ENDBRANCH  14  20
ENDBRANCH  13  14
ENDBRANCH   1  13
BRANCH   4  28
ATOM     28  C   UNL     1       1.402   6.180  -2.463  0.00  0.00    +0.213 C 
BRANCH  28  29
ATOM     29  C   UNL     1       1.763   5.179  -1.466  0.00  0.00    +0.385 C 
ATOM     30  O   UNL     1       2.439   5.682  -0.342  0.00  0.00    -0.244 OA
ATOM     31  O   UNL     1       1.012   4.208  -1.132  0.00  0.00    -0.244 OA
ENDBRANCH  28  29
ENDBRANCH   4  28
TORSDOF 10
ENDMDL
MODEL 2
REMARK VINA RESULT:      -8.9      1.736      9.019
REMARK  Name = 
REMARK  10 active torsions:
REMARK  status: ('A' for Active; 'I' for Inactive)
REMARK    1  A    between atoms: C_2  and  O_3
REMARK    2  A    between atoms: O_3  and  C_4
REMARK    3  A    between atoms: C_4  and  C_6
REMARK    4  A    between atoms: C_6  and  C_7
REMARK    5  A    between atoms: C_6  and  N_15
REMARK    6  A    between atoms: C_7  and  C_8
REMARK    7  A    between atoms: C_8  and  C_9
REMARK    8  A    between atoms: N_15  and  C_16
REMARK    9  A    between atoms: N_25  and  C_26
REMARK   10  A    between atoms: C_26  and  C_27
REMARK                            x       y       z     vdW  Elec       q    Type
REMARK                         _______ _______ _______ _____ _____    ______ ____
ROOT
ATOM      1  C   UNL     1       2.834   5.783  -8.089  0.00  0.00    +0.150 C 
ATOM      2  C   UNL     1       2.482   5.625  -9.648  0.00  0.00    +0.246 C 
ATOM      3  O   UNL     1       1.561   4.916  -9.962  0.00  0.00    -0.273 OA
ATOM      4  N   UNL     1       3.455   5.807 -10.689  0.00  0.00    -0.247 N 
ATOM      5  C   UNL     1       4.858   6.042 -10.510  0.00  0.00    +0.050 A 
ATOM      6  C   UNL     1       5.652   5.815  -9.390  0.00  0.00    -0.008 A 
ATOM      7  C   UNL     1       7.014   5.811  -9.515  0.00  0.00    -0.003 A 
ATOM      8  C   UNL     1       7.542   6.326 -10.684  0.00  0.00    -0.000 A 
ATOM      9  C   UNL     1       6.734   6.902 -11.650  0.00  0.00    +0.001 A 
ATOM     10  C   UNL     1       5.227   5.288  -8.057  0.00  0.00    +0.030 C 
ATOM     11  C   UNL     1       5.366   6.941 -11.438  0.00  0.00    +0.015 A 
ATOM     12  C   UNL     1       3.907   4.534  -8.144  0.00  0.00    +0.031 C 
ENDROOT
BRANCH   1  13
ATOM     13  N   UNL     1       1.677   4.843  -7.577  0.00  0.00    -0.201 NA
BRANCH  13  14
ATOM     14  C   UNL     1       1.088   5.835  -6.497  0.00  0.00    +0.172 C 
BRANCH  14  15
ATOM     15  C   UNL     1       1.843   5.140  -5.255  0.00  0.00    +0.333 C 
ATOM     16  O   UNL     1       2.924   5.567  -4.870  0.00  0.00    -0.249 OA
BRANCH  15  17
ATOM     17  O   UNL     1       0.883   5.004  -4.239  0.00  0.00    -0.448 OA
BRANCH  17  19
ATOM     18  C   UNL     1       0.337   5.045  -1.885  0.00  0.00    +0.051 C 
ATOM     19  C   UNL     1       1.027   5.745  -3.031  0.00  0.00    +0.209 C 
ENDBRANCH  17  19
ENDBRANCH  15  17
ENDBRANCH  14  15
BRANCH  14  20
ATOM     20  C   UNL     1      -0.269   4.921  -6.343  0.00  0.00    +0.033 C 
BRANCH  20  21
ATOM     21  C   UNL     1      -1.445   5.742  -6.695  0.00  0.00    +0.028 C 
BRANCH  21  22
ATOM     22  C   UNL     1      -2.088   6.150  -5.428  0.00  0.00    -0.022 A 
ATOM     23  C   UNL     1      -2.892   5.285  -4.702  0.00  0.00    -0.004 A 
ATOM     24  C   UNL     1      -3.085   5.539  -3.361  0.00  0.00    -0.000 A 
ATOM     25  C   UNL     1      -2.761   6.735  -2.775  0.00  0.00    -0.000 A 
ATOM     26  C   UNL     1      -2.144   7.697  -3.561  0.00  0.00    -0.000 A 
ATOM     27  C   UNL     1      -1.935   7.428  -4.907  0.00  0.00    -0.004 A 
ENDBRANCH  21  22
ENDBRANCH  20  21
ENDBRANCH  14  20
ENDBRANCH  13  14
ENDBRANCH   1  13
BRANCH   4  28
ATOM     28  C   UNL     1       2.839   6.356 -11.836  0.00  0.00    +0.213 C 
BRANCH  28  29
ATOM     29  C   UNL     1       2.683   5.518 -13.020  0.00  0.00    +0.385 C 
ATOM     30  O   UNL     1       1.354   5.194 -13.342  0.00  0.00    -0.244 OA
ATOM     31  O   UNL     1       3.375   5.650 -14.079  0.00  0.00    -0.244 OA
ENDBRANCH  28  29
ENDBRANCH   4  28
TORSDOF 10
ENDMDL
MODEL 3
REMARK VINA RESULT:      -8.7      2.425      9.222
REMARK  Name = 
REMARK  10 active torsions:
REMARK  status: ('A' for Active; 'I' for Inactive)
REMARK    1  A    between atoms: C_2  and  O_3
REMARK    2  A    between atoms: O_3  and  C_4
REMARK    3  A    between atoms: C_4  and  C_6
REMARK    4  A    between atoms: C_6  and  C_7
REMARK    5  A    between atoms: C_6  and  N_15
REMARK    6  A    between atoms: C_7  and  C_8
REMARK    7  A    between atoms: C_8  and  C_9
REMARK    8  A    between atoms: N_15  and  C_16
REMARK    9  A    between atoms: N_25  and  C_26
REMARK   10  A    between atoms: C_26  and  C_27
REMARK                            x       y       z     vdW  Elec       q    Type
REMARK                         _______ _______ _______ _____ _____    ______ ____
ROOT
ATOM      1  C   UNL     1       3.931   6.215  -8.862  0.00  0.00    +0.150 C 
ATOM      2  C   UNL     1       3.481   5.858 -10.362  0.00  0.00    +0.246 C 
ATOM      3  O   UNL     1       2.479   5.211 -10.524  0.00  0.00    -0.273 OA
ATOM      4  N   UNL     1       4.408   5.776 -11.456  0.00  0.00    -0.247 N 
ATOM      5  C   UNL     1       5.835   5.885 -11.370  0.00  0.00    +0.050 A 
ATOM      6  C   UNL     1       6.663   5.750 -10.261  0.00  0.00    -0.008 A 
ATOM      7  C   UNL     1       8.009   5.583 -10.436  0.00  0.00    -0.003 A 
ATOM      8  C   UNL     1       8.520   5.855 -11.691  0.00  0.00    -0.000 A 
ATOM      9  C   UNL     1       7.721   6.359 -12.704  0.00  0.00    +0.001 A 
ATOM     10  C   UNL     1       6.262   5.480  -8.846  0.00  0.00    +0.030 C 
ATOM     11  C   UNL     1       6.378   6.574 -12.448  0.00  0.00    +0.015 A 
ATOM     12  C   UNL     1       4.872   4.866  -8.762  0.00  0.00    +0.031 C 
ENDROOT
BRANCH   1  13
ATOM     13  N   UNL     1       2.717   5.491  -8.164  0.00  0.00    -0.201 NA
BRANCH  13  14
ATOM     14  C   UNL     1       3.013   5.995  -6.696  0.00  0.00    +0.172 C 
BRANCH  14  15
ATOM     15  C   UNL     1       2.464   4.658  -5.984  0.00  0.00    +0.333 C 
ATOM     16  O   UNL     1       2.129   3.692  -6.657  0.00  0.00    -0.249 OA
BRANCH  15  17
ATOM     17  O   UNL     1       3.376   4.358  -4.959  0.00  0.00    -0.448 OA
BRANCH  17  19
ATOM     18  C   UNL     1       4.736   5.748  -3.523  0.00  0.00    +0.051 C 
ATOM     19  C   UNL     1       4.600   5.083  -4.871  0.00  0.00    +0.209 C 
ENDBRANCH  17  19
ENDBRANCH  15  17
ENDBRANCH  14  15
BRANCH  14  20
ATOM     20  C   UNL     1       1.566   6.772  -6.631  0.00  0.00    +0.033 C 
BRANCH  20  21
ATOM     21  C   UNL     1       1.121   6.847  -5.226  0.00  0.00    +0.028 C 
BRANCH  21  22
ATOM     22  C   UNL     1      -0.353   6.732  -5.229  0.00  0.00    -0.022 A 
ATOM     23  C   UNL     1      -1.161   7.641  -4.563  0.00  0.00    -0.004 A 
ATOM     24  C   UNL     1      -2.476   7.760  -4.954  0.00  0.00    -0.000 A 
ATOM     25  C   UNL     1      -3.097   6.846  -5.766  0.00  0.00    -0.000 A 
ATOM     26  C   UNL     1      -2.337   5.800  -6.268  0.00  0.00    -0.000 A 
ATOM     27  C   UNL     1      -1.007   5.697  -5.884  0.00  0.00    -0.004 A 
ENDBRANCH  21  22
ENDBRANCH  20  21
ENDBRANCH  14  20
ENDBRANCH  13  14
ENDBRANCH   1  13
BRANCH   4  28
ATOM     28  C   UNL     1       3.787   6.205 -12.651  0.00  0.00    +0.213 C 
BRANCH  28  29
ATOM     29  C   UNL     1       3.487   5.218 -13.681  0.00  0.00    +0.385 C 
ATOM     30  O   UNL     1       3.108   5.756 -14.923  0.00  0.00    -0.244 OA
ATOM     31  O   UNL     1       4.147   4.143 -13.848  0.00  0.00    -0.244 OA
ENDBRANCH  28  29
ENDBRANCH   4  28
TORSDOF 10
ENDMDL
MODEL 4
REMARK VINA RESULT:      -8.7      1.477      1.944
REMARK  Name = 
REMARK  10 active torsions:
REMARK  status: ('A' for Active; 'I' for Inactive)
REMARK    1  A    between atoms: C_2  and  O_3
REMARK    2  A    between atoms: O_3  and  C_4
REMARK    3  A    between atoms: C_4  and  C_6
REMARK    4  A    between atoms: C_6  and  C_7
REMARK    5  A    between atoms: C_6  and  N_15
REMARK    6  A    between atoms: C_7  and  C_8
REMARK    7  A    between atoms: C_8  and  C_9
REMARK    8  A    between atoms: N_15  and  C_16
REMARK    9  A    between atoms: N_25  and  C_26
REMARK   10  A    between atoms: C_26  and  C_27
REMARK                            x       y       z     vdW  Elec       q    Type
REMARK                         _______ _______ _______ _____ _____    ______ ____
ROOT
ATOM      1  C   UNL     1       0.404   5.931  -7.166  0.00  0.00    +0.150 C 
ATOM      2  C   UNL     1       1.147   5.192  -5.949  0.00  0.00    +0.246 C 
ATOM      3  O   UNL     1       1.852   4.248  -6.192  0.00  0.00    -0.273 OA
ATOM      4  N   UNL     1       0.645   5.209  -4.603  0.00  0.00    -0.247 N 
ATOM      5  C   UNL     1      -0.601   5.770  -4.167  0.00  0.00    +0.050 A 
ATOM      6  C   UNL     1      -1.727   6.098  -4.915  0.00  0.00    -0.008 A 
ATOM      7  C   UNL     1      -2.917   6.329  -4.281  0.00  0.00    -0.003 A 
ATOM      8  C   UNL     1      -2.877   6.519  -2.913  0.00  0.00    -0.000 A 
ATOM      9  C   UNL     1      -1.676   6.562  -2.224  0.00  0.00    +0.001 A 
ATOM     10  C   UNL     1      -1.915   5.972  -6.393  0.00  0.00    +0.030 C 
ATOM     11  C   UNL     1      -0.497   6.391  -2.929  0.00  0.00    +0.015 A 
ATOM     12  C   UNL     1      -0.933   4.981  -7.003  0.00  0.00    +0.031 C 
ENDROOT
BRANCH   1  13
ATOM     13  N   UNL     1       0.998   5.002  -8.292  0.00  0.00    -0.201 NA
BRANCH  13  14
ATOM     14  C   UNL     1       1.221   6.132  -9.374  0.00  0.00    +0.172 C 
BRANCH  14  15
ATOM     15  C   UNL     1       0.739   5.224 -10.614  0.00  0.00    +0.333 C 
ATOM     16  O   UNL     1       0.541   4.026 -10.464  0.00  0.00    -0.249 OA
BRANCH  15  17
ATOM     17  O   UNL     1      -0.327   5.914 -11.213  0.00  0.00    -0.448 OA
BRANCH  17  19
ATOM     18  C   UNL     1       0.274   7.555 -12.882  0.00  0.00    +0.051 C 
ATOM     19  C   UNL     1      -0.206   7.310 -11.472  0.00  0.00    +0.209 C 
ENDBRANCH  17  19
ENDBRANCH  15  17
ENDBRANCH  14  15
BRANCH  14  20
ATOM     20  C   UNL     1       2.805   5.723  -9.529  0.00  0.00    +0.033 C 
BRANCH  20  21
ATOM     21  C   UNL     1       3.390   6.476 -10.656  0.00  0.00    +0.028 C 
BRANCH  21  22
ATOM     22  C   UNL     1       4.828   6.652 -10.363  0.00  0.00    -0.022 A 
ATOM     23  C   UNL     1       5.481   5.890  -9.407  0.00  0.00    -0.004 A 
ATOM     24  C   UNL     1       6.851   5.769  -9.486  0.00  0.00    -0.000 A 
ATOM     25  C   UNL     1       7.625   6.576 -10.279  0.00  0.00    -0.000 A 
ATOM     26  C   UNL     1       6.982   7.500 -11.089  0.00  0.00    -0.000 A 
ATOM     27  C   UNL     1       5.599   7.604 -11.018  0.00  0.00    -0.004 A 
ENDBRANCH  21  22
ENDBRANCH  20  21
ENDBRANCH  14  20
ENDBRANCH  13  14
ENDBRANCH   1  13
BRANCH   4  28
ATOM     28  C   UNL     1       1.720   5.205  -3.685  0.00  0.00    +0.213 C 
BRANCH  28  29
ATOM     29  C   UNL     1       2.887   6.033  -3.966  0.00  0.00    +0.385 C 
ATOM     30  O   UNL     1       2.852   7.317  -3.396  0.00  0.00    -0.244 OA
ATOM     31  O   UNL     1       4.080   5.592  -3.989  0.00  0.00    -0.244 OA
ENDBRANCH  28  29
ENDBRANCH   4  28
TORSDOF 10
ENDMDL
MODEL 5
REMARK VINA RESULT:      -8.5      1.948      3.497
REMARK  Name = 
REMARK  10 active torsions:
REMARK  status: ('A' for Active; 'I' for Inactive)
REMARK    1  A    between atoms: C_2  and  O_3
REMARK    2  A    between atoms: O_3  and  C_4
REMARK    3  A    between atoms: C_4  and  C_6
REMARK    4  A    between atoms: C_6  and  C_7
REMARK    5  A    between atoms: C_6  and  N_15
REMARK    6  A    between atoms: C_7  and  C_8
REMARK    7  A    between atoms: C_8  and  C_9
REMARK    8  A    between atoms: N_15  and  C_16
REMARK    9  A    between atoms: N_25  and  C_26
REMARK   10  A    between atoms: C_26  and  C_27
REMARK                            x       y       z     vdW  Elec       q    Type
REMARK                         _______ _______ _______ _____ _____    ______ ____
ROOT
ATOM      1  C   UNL     1       2.257   5.170  -6.732  0.00  0.00    +0.150 C 
ATOM      2  C   UNL     1       1.169   5.186  -5.552  0.00  0.00    +0.246 C 
ATOM      3  O   UNL     1       0.001   5.198  -5.844  0.00  0.00    -0.273 OA
ATOM      4  N   UNL     1       1.444   5.714  -4.244  0.00  0.00    -0.247 N 
ATOM      5  C   UNL     1       2.644   6.381  -3.832  0.00  0.00    +0.050 A 
ATOM      6  C   UNL     1       3.635   6.969  -4.611  0.00  0.00    -0.008 A 
ATOM      7  C   UNL     1       4.537   7.819  -4.031  0.00  0.00    -0.003 A 
ATOM      8  C   UNL     1       4.605   7.821  -2.651  0.00  0.00    -0.000 A 
ATOM      9  C   UNL     1       3.858   6.939  -1.889  0.00  0.00    +0.001 A 
ATOM     10  C   UNL     1       3.713   7.029  -6.103  0.00  0.00    +0.030 C 
ATOM     11  C   UNL     1       3.013   6.052  -2.534  0.00  0.00    +0.015 A 
ATOM     12  C   UNL     1       2.351   6.815  -6.747  0.00  0.00    +0.031 C 
ENDROOT
BRANCH   1  13
ATOM     13  N   UNL     1       1.206   5.160  -7.906  0.00  0.00    -0.201 NA
BRANCH  13  14
ATOM     14  C   UNL     1       1.956   6.189  -8.842  0.00  0.00    +0.172 C 
BRANCH  14  15
ATOM     15  C   UNL     1       0.956   5.987 -10.089  0.00  0.00    +0.333 C 
ATOM     16  O   UNL     1       0.101   5.112 -10.061  0.00  0.00    -0.249 OA
BRANCH  15  17
ATOM     17  O   UNL     1       0.464   7.263 -10.407  0.00  0.00    -0.448 OA
BRANCH  17  19
ATOM     18  C   UNL     1       0.384   7.355 -12.821  0.00  0.00    +0.051 C 
ATOM     19  C   UNL     1      -0.397   7.426 -11.531  0.00  0.00    +0.209 C 
ENDBRANCH  17  19
ENDBRANCH  15  17
ENDBRANCH  14  15
BRANCH  14  20
ATOM     20  C   UNL     1       3.008   5.029  -9.338  0.00  0.00    +0.033 C 
BRANCH  20  21
ATOM     21  C   UNL     1       3.603   5.435 -10.627  0.00  0.00    +0.028 C 
BRANCH  21  22
ATOM     22  C   UNL     1       4.904   6.069 -10.326  0.00  0.00    -0.022 A 
ATOM     23  C   UNL     1       5.777   5.542  -9.386  0.00  0.00    -0.004 A 
ATOM     24  C   UNL     1       7.110   5.882  -9.465  0.00  0.00    -0.000 A 
ATOM     25  C   UNL     1       7.570   6.918 -10.236  0.00  0.00    -0.000 A 
ATOM     26  C   UNL     1       6.653   7.598 -11.025  0.00  0.00    -0.000 A 
ATOM     27  C   UNL     1       5.314   7.237 -10.955  0.00  0.00    -0.004 A 
ENDBRANCH  21  22
ENDBRANCH  20  21
ENDBRANCH  14  20
ENDBRANCH  13  14
ENDBRANCH   1  13
BRANCH   4  28
ATOM     28  C   UNL     1       0.730   4.983  -3.267  0.00  0.00    +0.213 C 
BRANCH  28  29
ATOM     29  C   UNL     1      -0.314   5.660  -2.507  0.00  0.00    +0.385 C 
ATOM     30  O   UNL     1      -0.914   6.747  -3.165  0.00  0.00    -0.244 OA
ATOM     31  O   UNL     1      -1.169   5.057  -1.782  0.00  0.00    -0.244 OA
ENDBRANCH  28  29
ENDBRANCH   4  28
TORSDOF 10
ENDMDL
MODEL 6
REMARK VINA RESULT:      -8.3      2.243      8.448
REMARK  Name = 
REMARK  10 active torsions:
REMARK  status: ('A' for Active; 'I' for Inactive)
REMARK    1  A    between atoms: C_2  and  O_3
REMARK    2  A    between atoms: O_3  and  C_4
REMARK    3  A    between atoms: C_4  and  C_6
REMARK    4  A    between atoms: C_6  and  C_7
REMARK    5  A    between atoms: C_6  and  N_15
REMARK    6  A    between atoms: C_7  and  C_8
REMARK    7  A    between atoms: C_8  and  C_9
REMARK    8  A    between atoms: N_15  and  C_16
REMARK    9  A    between atoms: N_25  and  C_26
REMARK   10  A    between atoms: C_26  and  C_27
REMARK                            x       y       z     vdW  Elec       q    Type
REMARK                         _______ _______ _______ _____ _____    ______ ____
ROOT
ATOM      1  C   UNL     1       1.571   5.051  -8.907  0.00  0.00    +0.150 C 
ATOM      2  C   UNL     1       3.024   5.305  -9.541  0.00  0.00    +0.246 C 
ATOM      3  O   UNL     1       3.944   5.538  -8.800  0.00  0.00    -0.273 OA
ATOM      4  N   UNL     1       3.216   5.799 -10.876  0.00  0.00    -0.247 N 
ATOM      5  C   UNL     1       2.189   6.229 -11.780  0.00  0.00    +0.050 A 
ATOM      6  C   UNL     1       0.875   6.595 -11.508  0.00  0.00    -0.008 A 
ATOM      7  C   UNL     1       0.149   7.266 -12.453  0.00  0.00    -0.003 A 
ATOM      8  C   UNL     1       0.654   7.286 -13.740  0.00  0.00    -0.000 A 
ATOM      9  C   UNL     1       1.799   6.584 -14.078  0.00  0.00    +0.001 A 
ATOM     10  C   UNL     1       0.182   6.605 -10.183  0.00  0.00    +0.030 C 
ATOM     11  C   UNL     1       2.454   5.864 -13.094  0.00  0.00    +0.015 A 
ATOM     12  C   UNL     1       1.173   6.645  -9.029  0.00  0.00    +0.031 C 
ENDROOT
BRANCH   1  13
ATOM     13  N   UNL     1       2.029   5.219  -7.408  0.00  0.00    -0.201 NA
BRANCH  13  14
ATOM     14  C   UNL     1       0.972   6.324  -7.008  0.00  0.00    +0.172 C 
BRANCH  14  15
ATOM     15  C   UNL     1       1.707   6.717  -5.629  0.00  0.00    +0.333 C 
ATOM     16  O   UNL     1       1.483   6.085  -4.606  0.00  0.00    -0.249 OA
BRANCH  15  17
ATOM     17  O   UNL     1       3.070   6.851  -5.937  0.00  0.00    -0.448 OA
BRANCH  17  19
ATOM     18  C   UNL     1       4.725   7.690  -4.387  0.00  0.00    +0.051 C 
ATOM     19  C   UNL     1       4.050   6.473  -4.973  0.00  0.00    +0.209 C 
ENDBRANCH  17  19
ENDBRANCH  15  17
ENDBRANCH  14  15
BRANCH  14  20
ATOM     20  C   UNL     1       0.000   5.195  -6.313  0.00  0.00    +0.033 C 
BRANCH  20  21
ATOM     21  C   UNL     1      -1.406   5.502  -6.640  0.00  0.00    +0.028 C 
BRANCH  21  22
ATOM     22  C   UNL     1      -2.045   5.994  -5.400  0.00  0.00    -0.022 A 
ATOM     23  C   UNL     1      -2.821   5.171  -4.599  0.00  0.00    -0.004 A 
ATOM     24  C   UNL     1      -3.006   5.523  -3.280  0.00  0.00    -0.000 A 
ATOM     25  C   UNL     1      -2.703   6.768  -2.793  0.00  0.00    -0.000 A 
ATOM     26  C   UNL     1      -2.116   7.680  -3.658  0.00  0.00    -0.000 A 
ATOM     27  C   UNL     1      -1.916   7.311  -4.981  0.00  0.00    -0.004 A 
ENDBRANCH  21  22
ENDBRANCH  20  21
ENDBRANCH  14  20
ENDBRANCH  13  14
ENDBRANCH   1  13
BRANCH   4  28
ATOM     28  C   UNL     1       4.390   5.244 -11.434  0.00  0.00    +0.213 C 
BRANCH  28  29
ATOM     29  C   UNL     1       5.608   6.047 -11.452  0.00  0.00    +0.385 C 
ATOM     30  O   UNL     1       5.428   7.400 -11.120  0.00  0.00    -0.244 OA
ATOM     31  O   UNL     1       6.736   5.636 -11.032  0.00  0.00    -0.244 OA
ENDBRANCH  28  29
ENDBRANCH   4  28
TORSDOF 10
ENDMDL
MODEL 7
REMARK VINA RESULT:      -8.1      1.892      2.578
REMARK  Name = 
REMARK  10 active torsions:
REMARK  status: ('A' for Active; 'I' for Inactive)
REMARK    1  A    between atoms: C_2  and  O_3
REMARK    2  A    between atoms: O_3  and  C_4
REMARK    3  A    between atoms: C_4  and  C_6
REMARK    4  A    between atoms: C_6  and  C_7
REMARK    5  A    between atoms: C_6  and  N_15
REMARK    6  A    between atoms: C_7  and  C_8
REMARK    7  A    between atoms: C_8  and  C_9
REMARK    8  A    between atoms: N_15  and  C_16
REMARK    9  A    between atoms: N_25  and  C_26
REMARK   10  A    between atoms: C_26  and  C_27
REMARK                            x       y       z     vdW  Elec       q    Type
REMARK                         _______ _______ _______ _____ _____    ______ ____
ROOT
ATOM      1  C   UNL     1       2.027   6.005  -6.282  0.00  0.00    +0.150 C 
ATOM      2  C   UNL     1       3.178   5.647  -5.221  0.00  0.00    +0.246 C 
ATOM      3  O   UNL     1       4.128   5.010  -5.595  0.00  0.00    -0.273 OA
ATOM      4  N   UNL     1       2.934   5.550  -3.809  0.00  0.00    -0.247 N 
ATOM      5  C   UNL     1       1.660   5.644  -3.158  0.00  0.00    +0.050 A 
ATOM      6  C   UNL     1       0.384   5.505  -3.696  0.00  0.00    -0.008 A 
ATOM      7  C   UNL     1      -0.686   5.323  -2.864  0.00  0.00    -0.003 A 
ATOM      8  C   UNL     1      -0.492   5.584  -1.520  0.00  0.00    -0.000 A 
ATOM      9  C   UNL     1       0.706   6.092  -1.048  0.00  0.00    +0.001 A 
ATOM     10  C   UNL     1       0.015   5.245  -5.121  0.00  0.00    +0.030 C 
ATOM     11  C   UNL     1       1.733   6.322  -1.948  0.00  0.00    +0.015 A 
ATOM     12  C   UNL     1       1.174   4.646  -5.904  0.00  0.00    +0.031 C 
ENDROOT
BRANCH   1  13
ATOM     13  N   UNL     1       2.725   5.297  -7.506  0.00  0.00    -0.201 NA
BRANCH  13  14
ATOM     14  C   UNL     1       2.762   6.557  -8.459  0.00  0.00    +0.172 C 
BRANCH  14  15
ATOM     15  C   UNL     1       1.951   5.843  -9.654  0.00  0.00    +0.333 C 
ATOM     16  O   UNL     1       1.533   4.701  -9.522  0.00  0.00    -0.249 OA
BRANCH  15  17
ATOM     17  O   UNL     1       0.982   6.767 -10.075  0.00  0.00    -0.448 OA
BRANCH  17  19
ATOM     18  C   UNL     1      -0.753   7.526 -11.578  0.00  0.00    +0.051 C 
ATOM     19  C   UNL     1       0.533   6.750 -11.428  0.00  0.00    +0.209 C 
ENDBRANCH  17  19
ENDBRANCH  15  17
ENDBRANCH  14  15
BRANCH  14  20
ATOM     20  C   UNL     1       4.239   6.124  -9.035  0.00  0.00    +0.033 C 
BRANCH  20  21
ATOM     21  C   UNL     1       4.524   6.894 -10.262  0.00  0.00    +0.028 C 
BRANCH  21  22
ATOM     22  C   UNL     1       5.940   6.654 -10.609  0.00  0.00    -0.022 A 
ATOM     23  C   UNL     1       6.791   5.950  -9.771  0.00  0.00    -0.004 A 
ATOM     24  C   UNL     1       7.921   5.377 -10.313  0.00  0.00    -0.000 A 
ATOM     25  C   UNL     1       8.392   5.696 -11.561  0.00  0.00    -0.000 A 
ATOM     26  C   UNL     1       7.648   6.578 -12.330  0.00  0.00    -0.000 A 
ATOM     27  C   UNL     1       6.500   7.137 -11.784  0.00  0.00    -0.004 A 
ENDBRANCH  21  22
ENDBRANCH  20  21
ENDBRANCH  14  20
ENDBRANCH  13  14
ENDBRANCH   1  13
BRANCH   4  28
ATOM     28  C   UNL     1       4.072   5.981  -3.090  0.00  0.00    +0.213 C 
BRANCH  28  29
ATOM     29  C   UNL     1       4.710   7.235  -3.470  0.00  0.00    +0.385 C 
ATOM     30  O   UNL     1       4.363   8.340  -2.674  0.00  0.00    -0.244 OA
ATOM     31  O   UNL     1       5.920   7.329  -3.851  0.00  0.00    -0.244 OA
ENDBRANCH  28  29
ENDBRANCH   4  28
TORSDOF 10
ENDMDL
MODEL 8
REMARK VINA RESULT:      -8.0      2.494      8.719
REMARK  Name = 
REMARK  10 active torsions:
REMARK  status: ('A' for Active; 'I' for Inactive)
REMARK    1  A    between atoms: C_2  and  O_3
REMARK    2  A    between atoms: O_3  and  C_4
REMARK    3  A    between atoms: C_4  and  C_6
REMARK    4  A    between atoms: C_6  and  C_7
REMARK    5  A    between atoms: C_6  and  N_15
REMARK    6  A    between atoms: C_7  and  C_8
REMARK    7  A    between atoms: C_8  and  C_9
REMARK    8  A    between atoms: N_15  and  C_16
REMARK    9  A    between atoms: N_25  and  C_26
REMARK   10  A    between atoms: C_26  and  C_27
REMARK                            x       y       z     vdW  Elec       q    Type
REMARK                         _______ _______ _______ _____ _____    ______ ____
ROOT
ATOM      1  C   UNL     1       3.544   6.319  -9.315  0.00  0.00    +0.150 C 
ATOM      2  C   UNL     1       3.196   5.957 -10.840  0.00  0.00    +0.246 C 
ATOM      3  O   UNL     1       2.181   5.353 -11.072  0.00  0.00    -0.273 OA
ATOM      4  N   UNL     1       4.201   5.813 -11.856  0.00  0.00    -0.247 N 
ATOM      5  C   UNL     1       5.621   5.860 -11.661  0.00  0.00    +0.050 A 
ATOM      6  C   UNL     1       6.353   5.707 -10.488  0.00  0.00    -0.008 A 
ATOM      7  C   UNL     1       7.699   5.476 -10.554  0.00  0.00    -0.003 A 
ATOM      8  C   UNL     1       8.319   5.702 -11.768  0.00  0.00    -0.000 A 
ATOM      9  C   UNL     1       7.625   6.223 -12.848  0.00  0.00    +0.001 A 
ATOM     10  C   UNL     1       5.830   5.481  -9.105  0.00  0.00    +0.030 C 
ATOM     11  C   UNL     1       6.278   6.504 -12.702  0.00  0.00    +0.015 A 
ATOM     12  C   UNL     1       4.411   4.931  -9.121  0.00  0.00    +0.031 C 
ENDROOT
BRANCH   1  13
ATOM     13  N   UNL     1       2.247   5.664  -8.705  0.00  0.00    -0.201 NA
BRANCH  13  14
ATOM     14  C   UNL     1       2.879   5.247  -7.317  0.00  0.00    +0.172 C 
BRANCH  14  15
ATOM     15  C   UNL     1       1.516   4.611  -6.737  0.00  0.00    +0.333 C 
ATOM     16  O   UNL     1       1.529   3.959  -5.702  0.00  0.00    -0.249 OA
BRANCH  15  17
ATOM     17  O   UNL     1       0.564   5.643  -6.757  0.00  0.00    -0.448 OA
BRANCH  17  19
ATOM     18  C   UNL     1      -1.006   6.615  -5.196  0.00  0.00    +0.051 C 
ATOM     19  C   UNL     1      -0.691   5.454  -6.109  0.00  0.00    +0.209 C 
ENDBRANCH  17  19
ENDBRANCH  15  17
ENDBRANCH  14  15
BRANCH  14  20
ATOM     20  C   UNL     1       2.593   6.741  -6.696  0.00  0.00    +0.033 C 
BRANCH  20  21
ATOM     21  C   UNL     1       3.763   7.166  -5.902  0.00  0.00    +0.028 C 
BRANCH  21  22
ATOM     22  C   UNL     1       3.576   6.640  -4.534  0.00  0.00    -0.022 A 
ATOM     23  C   UNL     1       2.447   6.931  -3.784  0.00  0.00    -0.004 A 
ATOM     24  C   UNL     1       2.113   6.089  -2.746  0.00  0.00    -0.000 A 
ATOM     25  C   UNL     1       2.976   5.150  -2.242  0.00  0.00    -0.000 A 
ATOM     26  C   UNL     1       4.208   5.001  -2.861  0.00  0.00    -0.000 A 
ATOM     27  C   UNL     1       4.531   5.841  -3.918  0.00  0.00    -0.004 A 
ENDBRANCH  21  22
ENDBRANCH  20  21
ENDBRANCH  14  20
ENDBRANCH  13  14
ENDBRANCH   1  13
BRANCH   4  28
ATOM     28  C   UNL     1       3.696   6.249 -13.103  0.00  0.00    +0.213 C 
BRANCH  28  29
ATOM     29  C   UNL     1       2.865   5.338 -13.881  0.00  0.00    +0.385 C 
ATOM     30  O   UNL     1       2.005   5.963 -14.800  0.00  0.00    -0.244 OA
ATOM     31  O   UNL     1       3.272   4.225 -14.344  0.00  0.00    -0.244 OA
ENDBRANCH  28  29
ENDBRANCH   4  28
TORSDOF 10
ENDMDL
MODEL 9
REMARK VINA RESULT:      -7.9      2.724      7.721
REMARK  Name = 
REMARK  10 active torsions:
REMARK  status: ('A' for Active; 'I' for Inactive)
REMARK    1  A    between atoms: C_2  and  O_3
REMARK    2  A    between atoms: O_3  and  C_4
REMARK    3  A    between atoms: C_4  and  C_6
REMARK    4  A    between atoms: C_6  and  C_7
REMARK    5  A    between atoms: C_6  and  N_15
REMARK    6  A    between atoms: C_7  and  C_8
REMARK    7  A    between atoms: C_8  and  C_9
REMARK    8  A    between atoms: N_15  and  C_16
REMARK    9  A    between atoms: N_25  and  C_26
REMARK   10  A    between atoms: C_26  and  C_27
REMARK                            x       y       z     vdW  Elec       q    Type
REMARK                         _______ _______ _______ _____ _____    ______ ____
ROOT
ATOM      1  C   UNL     1       2.038   5.190  -8.923  0.00  0.00    +0.150 C 
ATOM      2  C   UNL     1       3.426   5.463  -9.682  0.00  0.00    +0.246 C 
ATOM      3  O   UNL     1       4.389   5.772  -9.029  0.00  0.00    -0.273 OA
ATOM      4  N   UNL     1       3.496   5.886 -11.053  0.00  0.00    -0.247 N 
ATOM      5  C   UNL     1       2.386   6.224 -11.896  0.00  0.00    +0.050 A 
ATOM      6  C   UNL     1       1.082   6.555 -11.542  0.00  0.00    -0.008 A 
ATOM      7  C   UNL     1       0.258   7.142 -12.463  0.00  0.00    -0.003 A 
ATOM      8  C   UNL     1       0.663   7.108 -13.784  0.00  0.00    -0.000 A 
ATOM      9  C   UNL     1       1.808   6.431 -14.172  0.00  0.00    +0.001 A 
ATOM     10  C   UNL     1       0.491   6.614 -10.170  0.00  0.00    +0.030 C 
ATOM     11  C   UNL     1       2.566   5.795 -13.204  0.00  0.00    +0.015 A 
ATOM     12  C   UNL     1       1.565   6.758  -9.101  0.00  0.00    +0.031 C 
ENDROOT
BRANCH   1  13
ATOM     13  N   UNL     1       2.601   5.462  -7.476  0.00  0.00    -0.201 NA
BRANCH  13  14
ATOM     14  C   UNL     1       1.959   4.196  -6.781  0.00  0.00    +0.172 C 
BRANCH  14  15
ATOM     15  C   UNL     1       0.750   5.017  -6.103  0.00  0.00    +0.333 C 
ATOM     16  O   UNL     1      -0.398   4.873  -6.504  0.00  0.00    -0.249 OA
BRANCH  15  17
ATOM     17  O   UNL     1       0.899   4.859  -4.716  0.00  0.00    -0.448 OA
BRANCH  17  19
ATOM     18  C   UNL     1       0.584   5.674  -2.462  0.00  0.00    +0.051 C 
ATOM     19  C   UNL     1      -0.023   5.492  -3.832  0.00  0.00    +0.209 C 
ENDBRANCH  17  19
ENDBRANCH  15  17
ENDBRANCH  14  15
BRANCH  14  20
ATOM     20  C   UNL     1       2.958   4.354  -5.486  0.00  0.00    +0.033 C 
BRANCH  20  21
ATOM     21  C   UNL     1       3.968   5.390  -5.780  0.00  0.00    +0.028 C 
BRANCH  21  22
ATOM     22  C   UNL     1       4.345   6.010  -4.491  0.00  0.00    -0.022 A 
ATOM     23  C   UNL     1       4.732   7.338  -4.402  0.00  0.00    -0.004 A 
ATOM     24  C   UNL     1       4.634   7.970  -3.182  0.00  0.00    -0.000 A 
ATOM     25  C   UNL     1       4.441   7.293  -2.006  0.00  0.00    -0.000 A 
ATOM     26  C   UNL     1       4.265   5.918  -2.069  0.00  0.00    -0.000 A 
ATOM     27  C   UNL     1       4.348   5.290  -3.304  0.00  0.00    -0.004 A 
ENDBRANCH  21  22
ENDBRANCH  20  21
ENDBRANCH  14  20
ENDBRANCH  13  14
ENDBRANCH   1  13
BRANCH   4  28
ATOM     28  C   UNL     1       4.647   5.345 -11.669  0.00  0.00    +0.213 C 
BRANCH  28  29
ATOM     29  C   UNL     1       5.843   6.173 -11.773  0.00  0.00    +0.385 C 
ATOM     30  O   UNL     1       5.651   7.531 -11.469  0.00  0.00    -0.244 OA
ATOM     31  O   UNL     1       7.001   5.797 -11.402  0.00  0.00    -0.244 OA
ENDBRANCH  28  29
ENDBRANCH   4  28
TORSDOF 10
ENDMDL
