MODEL 1
REMARK VINA RESULT:      -7.7      0.000      0.000
REMARK  Name = 
REMARK  4 active torsions:
REMARK  status: ('A' for Active; 'I' for Inactive)
REMARK    1  A    between atoms: C_2  and  C_3
REMARK    2  A    between atoms: C_2  and  C_6
REMARK    3  A    between atoms: C_10  and  O_11
REMARK    4  A    between atoms: O_11  and  C_12
REMARK                            x       y       z     vdW  Elec       q    Type
REMARK                         _______ _______ _______ _____ _____    ______ ____
ROOT
ATOM      1  C   UNL     1      -1.297   6.157  -4.611  0.00  0.00    -0.009 A 
ATOM      2  C   UNL     1      -0.186   5.371  -4.727  0.00  0.00    +0.034 A 
ATOM      3  C   UNL     1       0.160   4.979  -6.015  0.00  0.00    +0.145 A 
ATOM      4  C   UNL     1      -0.721   5.225  -7.062  0.00  0.00    +0.037 A 
ATOM      5  C   UNL     1      -2.011   5.640  -6.752  0.00  0.00    +0.003 A 
ATOM      6  C   UNL     1      -2.307   6.154  -5.493  0.00  0.00    -0.004 A 
ENDROOT
BRANCH   1   8
ATOM      7  C   UNL     1      -0.583   5.660  -2.384  0.00  0.00    +0.017 C 
ATOM      8  C   UNL     1      -1.544   6.797  -3.136  0.00  0.00    +0.126 C 
BRANCH   8   9
ATOM      9  C   UNL     1      -2.934   5.972  -2.920  0.00  0.00    +0.368 C 
ATOM     10  O   UNL     1      -2.616   4.744  -2.331  0.00  0.00    -0.245 OA
ATOM     11  O   UNL     1      -3.915   6.569  -2.518  0.00  0.00    -0.245 OA
ENDBRANCH   8   9
ENDBRANCH   1   8
BRANCH   3  12
ATOM     12  O   UNL     1       1.251   4.114  -6.167  0.00  0.00    -0.454 OA
BRANCH  12  13
ATOM     13  C   UNL     1       2.309   4.551  -6.965  0.00  0.00    +0.145 A 
ATOM     14  C   UNL     1       2.548   3.905  -8.159  0.00  0.00    +0.037 A 
ATOM     15  C   UNL     1       3.667   4.269  -8.866  0.00  0.00    +0.003 A 
ATOM     16  C   UNL     1       4.525   5.205  -8.357  0.00  0.00    +0.000 A 
ATOM     17  C   UNL     1       4.437   5.594  -7.031  0.00  0.00    +0.003 A 
ATOM     18  C   UNL     1       3.351   5.170  -6.304  0.00  0.00    +0.037 A 
ENDBRANCH  12  13
ENDBRANCH   3  12
TORSDOF 4
ENDMDL
MODEL 2
REMARK VINA RESULT:      -7.5      1.733      2.027
REMARK  Name = 
REMARK  4 active torsions:
REMARK  status: ('A' for Active; 'I' for Inactive)
REMARK    1  A    between atoms: C_2  and  C_3
REMARK    2  A    between atoms: C_2  and  C_6
REMARK    3  A    between atoms: C_10  and  O_11
REMARK    4  A    between atoms: O_11  and  C_12
REMARK                            x       y       z     vdW  Elec       q    Type
REMARK                         _______ _______ _______ _____ _____    ______ ____
ROOT
ATOM      1  C   UNL     1      -1.449   6.354  -4.476  0.00  0.00    -0.009 A 
ATOM      2  C   UNL     1      -0.217   5.767  -4.414  0.00  0.00    +0.034 A 
ATOM      3  C   UNL     1       0.318   5.325  -5.619  0.00  0.00    +0.145 A 
ATOM      4  C   UNL     1      -0.482   5.316  -6.756  0.00  0.00    +0.037 A 
ATOM      5  C   UNL     1      -1.848   5.525  -6.601  0.00  0.00    +0.003 A 
ATOM      6  C   UNL     1      -2.350   6.093  -5.434  0.00  0.00    -0.004 A 
ENDROOT
BRANCH   1   8
ATOM      7  C   UNL     1      -0.844   6.243  -2.165  0.00  0.00    +0.017 C 
ATOM      8  C   UNL     1      -1.946   7.073  -3.105  0.00  0.00    +0.126 C 
BRANCH   8   9
ATOM      9  C   UNL     1      -3.155   6.002  -2.883  0.00  0.00    +0.368 C 
ATOM     10  O   UNL     1      -2.648   4.930  -2.141  0.00  0.00    -0.245 OA
ATOM     11  O   UNL     1      -4.266   6.418  -2.612  0.00  0.00    -0.245 OA
ENDBRANCH   8   9
ENDBRANCH   1   8
BRANCH   3  12
ATOM     12  O   UNL     1       1.546   4.655  -5.585  0.00  0.00    -0.454 OA
BRANCH  12  13
ATOM     13  C   UNL     1       2.645   5.354  -5.084  0.00  0.00    +0.145 A 
ATOM     14  C   UNL     1       2.943   6.589  -5.618  0.00  0.00    +0.037 A 
ATOM     15  C   UNL     1       4.097   7.202  -5.197  0.00  0.00    +0.003 A 
ATOM     16  C   UNL     1       4.930   6.565  -4.318  0.00  0.00    +0.000 A 
ATOM     17  C   UNL     1       4.776   5.215  -4.054  0.00  0.00    +0.003 A 
ATOM     18  C   UNL     1       3.653   4.587  -4.536  0.00  0.00    +0.037 A 
ENDBRANCH  12  13
ENDBRANCH   3  12
TORSDOF 4
ENDMDL
MODEL 3
REMARK VINA RESULT:      -7.3      5.878      9.458
REMARK  Name = 
REMARK  4 active torsions:
REMARK  status: ('A' for Active; 'I' for Inactive)
REMARK    1  A    between atoms: C_2  and  C_3
REMARK    2  A    between atoms: C_2  and  C_6
REMARK    3  A    between atoms: C_10  and  O_11
REMARK    4  A    between atoms: O_11  and  C_12
REMARK                            x       y       z     vdW  Elec       q    Type
REMARK                         _______ _______ _______ _____ _____    ______ ____
ROOT
ATOM      1  C   UNL     1       6.168   6.250 -10.816  0.00  0.00    -0.009 A 
ATOM      2  C   UNL     1       4.905   5.874 -11.175  0.00  0.00    +0.034 A 
ATOM      3  C   UNL     1       4.046   5.527 -10.139  0.00  0.00    +0.145 A 
ATOM      4  C   UNL     1       4.554   5.387  -8.852  0.00  0.00    +0.037 A 
ATOM      5  C   UNL     1       5.934   5.368  -8.688  0.00  0.00    +0.003 A 
ATOM      6  C   UNL     1       6.774   5.844  -9.691  0.00  0.00    -0.004 A 
ENDROOT
BRANCH   1   8
ATOM      7  C   UNL     1       6.068   6.282 -13.205  0.00  0.00    +0.017 C 
ATOM      8  C   UNL     1       7.073   6.876 -12.013  0.00  0.00    +0.126 C 
BRANCH   8   9
ATOM      9  C   UNL     1       8.084   5.597 -12.031  0.00  0.00    +0.368 C 
ATOM     10  O   UNL     1       7.580   4.664 -12.943  0.00  0.00    -0.245 OA
ATOM     11  O   UNL     1       9.285   5.796 -12.012  0.00  0.00    -0.245 OA
ENDBRANCH   8   9
ENDBRANCH   1   8
BRANCH   3  12
ATOM     12  O   UNL     1       2.766   5.069 -10.472  0.00  0.00    -0.454 OA
BRANCH  12  13
ATOM     13  C   UNL     1       1.914   5.963 -11.121  0.00  0.00    +0.145 A 
ATOM     14  C   UNL     1       0.795   6.413 -10.454  0.00  0.00    +0.037 A 
ATOM     15  C   UNL     1      -0.093   7.192 -11.155  0.00  0.00    +0.003 A 
ATOM     16  C   UNL     1       0.123   7.454 -12.481  0.00  0.00    +0.000 A 
ATOM     17  C   UNL     1       1.064   6.734 -13.196  0.00  0.00    +0.003 A 
ATOM     18  C   UNL     1       1.906   5.901 -12.500  0.00  0.00    +0.037 A 
ENDBRANCH  12  13
ENDBRANCH   3  12
TORSDOF 4
ENDMDL
MODEL 4
REMARK VINA RESULT:      -7.2      4.077      5.410
REMARK  Name = 
REMARK  4 active torsions:
REMARK  status: ('A' for Active; 'I' for Inactive)
REMARK    1  A    between atoms: C_2  and  C_3
REMARK    2  A    between atoms: C_2  and  C_6
REMARK    3  A    between atoms: C_10  and  O_11
REMARK    4  A    between atoms: O_11  and  C_12
REMARK                            x       y       z     vdW  Elec       q    Type
REMARK                         _______ _______ _______ _____ _____    ______ ____
ROOT
ATOM      1  C   UNL     1       3.519   6.368  -6.030  0.00  0.00    -0.009 A 
ATOM      2  C   UNL     1       4.042   5.763  -7.137  0.00  0.00    +0.034 A 
ATOM      3  C   UNL     1       3.625   6.260  -8.367  0.00  0.00    +0.145 A 
ATOM      4  C   UNL     1       2.581   7.177  -8.412  0.00  0.00    +0.037 A 
ATOM      5  C   UNL     1       1.839   7.386  -7.255  0.00  0.00    +0.003 A 
ATOM      6  C   UNL     1       2.335   6.997  -6.014  0.00  0.00    -0.004 A 
ENDROOT
BRANCH   1   8
ATOM      7  C   UNL     1       2.724   5.587  -3.914  0.00  0.00    +0.017 C 
ATOM      8  C   UNL     1       4.197   5.935  -4.617  0.00  0.00    +0.126 C 
BRANCH   8   9
ATOM      9  C   UNL     1       4.252   7.472  -4.076  0.00  0.00    +0.368 C 
ATOM     10  O   UNL     1       3.710   7.492  -2.786  0.00  0.00    -0.245 OA
ATOM     11  O   UNL     1       5.246   8.137  -4.295  0.00  0.00    -0.245 OA
ENDBRANCH   8   9
ENDBRANCH   1   8
BRANCH   3  12
ATOM     12  O   UNL     1       4.084   5.619  -9.524  0.00  0.00    -0.454 OA
BRANCH  12  13
ATOM     13  C   UNL     1       5.256   6.104 -10.104  0.00  0.00    +0.145 A 
ATOM     14  C   UNL     1       6.466   5.742  -9.552  0.00  0.00    +0.037 A 
ATOM     15  C   UNL     1       7.599   6.330 -10.061  0.00  0.00    +0.003 A 
ATOM     16  C   UNL     1       7.497   7.276 -11.045  0.00  0.00    +0.000 A 
ATOM     17  C   UNL     1       6.273   7.848 -11.347  0.00  0.00    +0.003 A 
ATOM     18  C   UNL     1       5.147   7.302 -10.781  0.00  0.00    +0.037 A 
ENDBRANCH  12  13
ENDBRANCH   3  12
TORSDOF 4
ENDMDL
MODEL 5
REMARK VINA RESULT:      -7.0      2.578      4.691
REMARK  Name = 
REMARK  4 active torsions:
REMARK  status: ('A' for Active; 'I' for Inactive)
REMARK    1  A    between atoms: C_2  and  C_3
REMARK    2  A    between atoms: C_2  and  C_6
REMARK    3  A    between atoms: C_10  and  O_11
REMARK    4  A    between atoms: O_11  and  C_12
REMARK                            x       y       z     vdW  Elec       q    Type
REMARK                         _______ _______ _______ _____ _____    ______ ____
ROOT
ATOM      1  C   UNL     1       2.237   6.522  -6.425  0.00  0.00    -0.009 A 
ATOM      2  C   UNL     1       2.688   6.106  -7.646  0.00  0.00    +0.034 A 
ATOM      3  C   UNL     1       3.960   5.545  -7.675  0.00  0.00    +0.145 A 
ATOM      4  C   UNL     1       4.762   5.617  -6.542  0.00  0.00    +0.037 A 
ATOM      5  C   UNL     1       4.360   6.449  -5.503  0.00  0.00    +0.003 A 
ATOM      6  C   UNL     1       3.043   6.895  -5.421  0.00  0.00    -0.004 A 
ENDROOT
BRANCH   1   8
ATOM      7  C   UNL     1       0.566   6.715  -4.726  0.00  0.00    +0.017 C 
ATOM      8  C   UNL     1       0.669   6.951  -6.374  0.00  0.00    +0.126 C 
BRANCH   8   9
ATOM      9  C   UNL     1       0.160   5.452  -6.763  0.00  0.00    +0.368 C 
ATOM     10  O   UNL     1       0.371   4.626  -5.654  0.00  0.00    -0.245 OA
ATOM     11  O   UNL     1      -0.876   5.327  -7.389  0.00  0.00    -0.245 OA
ENDBRANCH   8   9
ENDBRANCH   1   8
BRANCH   3  12
ATOM     12  O   UNL     1       4.484   5.172  -8.918  0.00  0.00    -0.454 OA
BRANCH  12  13
ATOM     13  C   UNL     1       5.366   6.060  -9.535  0.00  0.00    +0.145 A 
ATOM     14  C   UNL     1       4.882   6.896 -10.519  0.00  0.00    +0.037 A 
ATOM     15  C   UNL     1       5.789   7.672 -11.197  0.00  0.00    +0.003 A 
ATOM     16  C   UNL     1       7.125   7.563 -10.922  0.00  0.00    +0.000 A 
ATOM     17  C   UNL     1       7.606   6.502 -10.173  0.00  0.00    +0.003 A 
ATOM     18  C   UNL     1       6.693   5.684  -9.552  0.00  0.00    +0.037 A 
ENDBRANCH  12  13
ENDBRANCH   3  12
TORSDOF 4
ENDMDL
MODEL 6
REMARK VINA RESULT:      -6.9      2.133      6.401
REMARK  Name = 
REMARK  4 active torsions:
REMARK  status: ('A' for Active; 'I' for Inactive)
REMARK    1  A    between atoms: C_2  and  C_3
REMARK    2  A    between atoms: C_2  and  C_6
REMARK    3  A    between atoms: C_10  and  O_11
REMARK    4  A    between atoms: O_11  and  C_12
REMARK                            x       y       z     vdW  Elec       q    Type
REMARK                         _______ _______ _______ _____ _____    ______ ____
ROOT
ATOM      1  C   UNL     1       3.312   6.030  -7.032  0.00  0.00    -0.009 A 
ATOM      2  C   UNL     1       2.085   5.545  -6.680  0.00  0.00    +0.034 A 
ATOM      3  C   UNL     1       1.867   5.347  -5.321  0.00  0.00    +0.145 A 
ATOM      4  C   UNL     1       2.935   5.453  -4.438  0.00  0.00    +0.037 A 
ATOM      5  C   UNL     1       4.220   5.521  -4.964  0.00  0.00    +0.003 A 
ATOM      6  C   UNL     1       4.421   5.852  -6.301  0.00  0.00    -0.004 A 
ENDROOT
BRANCH   1   8
ATOM      7  C   UNL     1       1.904   7.074  -8.659  0.00  0.00    +0.017 C 
ATOM      8  C   UNL     1       3.461   6.478  -8.588  0.00  0.00    +0.126 C 
BRANCH   8   9
ATOM      9  C   UNL     1       3.068   4.994  -9.139  0.00  0.00    +0.368 C 
ATOM     10  O   UNL     1       2.165   5.154 -10.195  0.00  0.00    -0.245 OA
ATOM     11  O   UNL     1       3.945   4.157  -9.250  0.00  0.00    -0.245 OA
ENDBRANCH   8   9
ENDBRANCH   1   8
BRANCH   3  12
ATOM     12  O   UNL     1       0.647   4.783  -4.927  0.00  0.00    -0.454 OA
BRANCH  12  13
ATOM     13  C   UNL     1      -0.490   5.587  -5.019  0.00  0.00    +0.145 A 
ATOM     14  C   UNL     1      -1.406   5.326  -6.015  0.00  0.00    +0.037 A 
ATOM     15  C   UNL     1      -2.452   6.203  -6.163  0.00  0.00    +0.003 A 
ATOM     16  C   UNL     1      -2.529   7.317  -5.372  0.00  0.00    +0.000 A 
ATOM     17  C   UNL     1      -1.442   7.721  -4.616  0.00  0.00    +0.003 A 
ATOM     18  C   UNL     1      -0.367   6.870  -4.525  0.00  0.00    +0.037 A 
ENDBRANCH  12  13
ENDBRANCH   3  12
TORSDOF 4
ENDMDL
MODEL 7
REMARK VINA RESULT:      -6.8      2.111      3.209
REMARK  Name = 
REMARK  4 active torsions:
REMARK  status: ('A' for Active; 'I' for Inactive)
REMARK    1  A    between atoms: C_2  and  C_3
REMARK    2  A    between atoms: C_2  and  C_6
REMARK    3  A    between atoms: C_10  and  O_11
REMARK    4  A    between atoms: O_11  and  C_12
REMARK                            x       y       z     vdW  Elec       q    Type
REMARK                         _______ _______ _______ _____ _____    ______ ____
ROOT
ATOM      1  C   UNL     1      -0.610   5.515  -6.162  0.00  0.00    -0.009 A 
ATOM      2  C   UNL     1       0.674   5.226  -5.797  0.00  0.00    +0.034 A 
ATOM      3  C   UNL     1       1.643   5.364  -6.785  0.00  0.00    +0.145 A 
ATOM      4  C   UNL     1       1.246   5.583  -8.100  0.00  0.00    +0.037 A 
ATOM      5  C   UNL     1      -0.097   5.422  -8.418  0.00  0.00    +0.003 A 
ATOM      6  C   UNL     1      -1.066   5.418  -7.418  0.00  0.00    -0.004 A 
ENDROOT
BRANCH   1   8
ATOM      7  C   UNL     1      -2.694   6.617  -5.763  0.00  0.00    +0.017 C 
ATOM      8  C   UNL     1      -1.681   5.578  -4.940  0.00  0.00    +0.126 C 
BRANCH   8   9
ATOM      9  C   UNL     1      -0.861   6.759  -4.172  0.00  0.00    +0.368 C 
ATOM     10  O   UNL     1      -1.220   7.979  -4.755  0.00  0.00    -0.245 OA
ATOM     11  O   UNL     1      -0.752   6.708  -2.961  0.00  0.00    -0.245 OA
ENDBRANCH   8   9
ENDBRANCH   1   8
BRANCH   3  12
ATOM     12  O   UNL     1       2.959   5.009  -6.469  0.00  0.00    -0.454 OA
BRANCH  12  13
ATOM     13  C   UNL     1       3.551   5.646  -5.378  0.00  0.00    +0.145 A 
ATOM     14  C   UNL     1       3.980   6.947  -5.524  0.00  0.00    +0.037 A 
ATOM     15  C   UNL     1       4.670   7.511  -4.478  0.00  0.00    +0.003 A 
ATOM     16  C   UNL     1       4.952   6.768  -3.364  0.00  0.00    +0.000 A 
ATOM     17  C   UNL     1       4.797   5.393  -3.377  0.00  0.00    +0.003 A 
ATOM     18  C   UNL     1       4.169   4.823  -4.458  0.00  0.00    +0.037 A 
ENDBRANCH  12  13
ENDBRANCH   3  12
TORSDOF 4
ENDMDL
MODEL 8
REMARK VINA RESULT:      -6.7      3.737      5.153
REMARK  Name = 
REMARK  4 active torsions:
REMARK  status: ('A' for Active; 'I' for Inactive)
REMARK    1  A    between atoms: C_2  and  C_3
REMARK    2  A    between atoms: C_2  and  C_6
REMARK    3  A    between atoms: C_10  and  O_11
REMARK    4  A    between atoms: O_11  and  C_12
REMARK                            x       y       z     vdW  Elec       q    Type
REMARK                         _______ _______ _______ _____ _____    ______ ____
ROOT
ATOM      1  C   UNL     1       3.094   6.862  -6.440  0.00  0.00    -0.009 A 
ATOM      2  C   UNL     1       3.972   6.023  -7.064  0.00  0.00    +0.034 A 
ATOM      3  C   UNL     1       4.016   6.097  -8.452  0.00  0.00    +0.145 A 
ATOM      4  C   UNL     1       3.057   6.846  -9.124  0.00  0.00    +0.037 A 
ATOM      5  C   UNL     1       1.955   7.299  -8.408  0.00  0.00    +0.003 A 
ATOM      6  C   UNL     1       1.982   7.340  -7.017  0.00  0.00    -0.004 A 
ENDROOT
BRANCH   1   8
ATOM      7  C   UNL     1       4.882   6.697  -4.861  0.00  0.00    +0.017 C 
ATOM      8  C   UNL     1       3.230   6.929  -4.821  0.00  0.00    +0.126 C 
BRANCH   8   9
ATOM      9  C   UNL     1       2.869   5.350  -4.642  0.00  0.00    +0.368 C 
ATOM     10  O   UNL     1       3.843   4.778  -3.816  0.00  0.00    -0.245 OA
ATOM     11  O   UNL     1       1.708   5.027  -4.475  0.00  0.00    -0.245 OA
ENDBRANCH   8   9
ENDBRANCH   1   8
BRANCH   3  12
ATOM     12  O   UNL     1       4.851   5.202  -9.132  0.00  0.00    -0.454 OA
BRANCH  12  13
ATOM     13  C   UNL     1       5.723   5.734 -10.082  0.00  0.00    +0.145 A 
ATOM     14  C   UNL     1       5.513   5.438 -11.412  0.00  0.00    +0.037 A 
ATOM     15  C   UNL     1       6.453   5.869 -12.316  0.00  0.00    +0.003 A 
ATOM     16  C   UNL     1       7.574   6.521 -11.880  0.00  0.00    +0.000 A 
ATOM     17  C   UNL     1       7.914   6.517 -10.538  0.00  0.00    +0.003 A 
ATOM     18  C   UNL     1       6.999   6.021  -9.641  0.00  0.00    +0.037 A 
ENDBRANCH  12  13
ENDBRANCH   3  12
TORSDOF 4
ENDMDL
MODEL 9
REMARK VINA RESULT:      -6.7      5.056      8.178
REMARK  Name = 
REMARK  4 active torsions:
REMARK  status: ('A' for Active; 'I' for Inactive)
REMARK    1  A    between atoms: C_2  and  C_3
REMARK    2  A    between atoms: C_2  and  C_6
REMARK    3  A    between atoms: C_10  and  O_11
REMARK    4  A    between atoms: O_11  and  C_12
REMARK                            x       y       z     vdW  Elec       q    Type
REMARK                         _______ _______ _______ _____ _____    ______ ____
ROOT
ATOM      1  C   UNL     1       5.244   5.961  -9.597  0.00  0.00    -0.009 A 
ATOM      2  C   UNL     1       4.017   6.484  -9.891  0.00  0.00    +0.034 A 
ATOM      3  C   UNL     1       3.198   6.784  -8.807  0.00  0.00    +0.145 A 
ATOM      4  C   UNL     1       3.572   6.365  -7.536  0.00  0.00    +0.037 A 
ATOM      5  C   UNL     1       4.623   5.462  -7.423  0.00  0.00    +0.003 A 
ATOM      6  C   UNL     1       5.512   5.274  -8.478  0.00  0.00    -0.004 A 
ENDROOT
BRANCH   1   8
ATOM      7  C   UNL     1       7.573   5.497  -9.877  0.00  0.00    +0.017 C 
ATOM      8  C   UNL     1       6.267   5.843 -10.856  0.00  0.00    +0.126 C 
BRANCH   8   9
ATOM      9  C   UNL     1       6.540   7.450 -10.893  0.00  0.00    +0.368 C 
ATOM     10  O   UNL     1       7.715   7.702 -10.178  0.00  0.00    -0.245 OA
ATOM     11  O   UNL     1       6.356   8.054 -11.933  0.00  0.00    -0.245 OA
ENDBRANCH   8   9
ENDBRANCH   1   8
BRANCH   3  12
ATOM     12  O   UNL     1       1.907   7.255  -9.071  0.00  0.00    -0.454 OA
BRANCH  12  13
ATOM     13  C   UNL     1       1.082   6.455  -9.862  0.00  0.00    +0.145 A 
ATOM     14  C   UNL     1       0.981   5.112  -9.566  0.00  0.00    +0.037 A 
ATOM     15  C   UNL     1       0.263   4.323 -10.431  0.00  0.00    +0.003 A 
ATOM     16  C   UNL     1      -0.278   4.865 -11.565  0.00  0.00    +0.000 A 
ATOM     17  C   UNL     1       0.107   6.122 -11.998  0.00  0.00    +0.003 A 
ATOM     18  C   UNL     1       0.884   6.884 -11.159  0.00  0.00    +0.037 A 
ENDBRANCH  12  13
ENDBRANCH   3  12
TORSDOF 4
ENDMDL
