MODEL 1
REMARK VINA RESULT:      -6.9      0.000      0.000
REMARK  Name = 
REMARK  4 active torsions:
REMARK  status: ('A' for Active; 'I' for Inactive)
REMARK    1  A    between atoms: O_2  and  C_3
REMARK    2  A    between atoms: C_3  and  C_5
REMARK    3  A    between atoms: C_5  and  C_6
REMARK    4  A    between atoms: C_5  and  C_12
REMARK                            x       y       z     vdW  Elec       q    Type
REMARK                         _______ _______ _______ _____ _____    ______ ____
ROOT
ATOM      1  C   UNL     1       3.479   6.441  -9.484  0.00  0.00    +0.137 C 
ENDROOT
BRANCH   1   2
ATOM      2  C   UNL     1       2.625   5.395 -10.572  0.00  0.00    +0.087 C 
ATOM      3  N   UNL     1       2.416   6.552 -11.626  0.00  0.00    -0.219 NA
ATOM      4  C   UNL     1       1.776   5.782 -12.695  0.00  0.00    +0.089 C 
ATOM      5  C   UNL     1       0.610   4.976 -12.166  0.00  0.00    +0.019 C 
ATOM      6  C   UNL     1       0.118   5.439 -10.837  0.00  0.00    +0.003 C 
ATOM      7  C   UNL     1       1.193   5.738  -9.837  0.00  0.00    +0.018 C 
ENDBRANCH   1   2
BRANCH   1   8
ATOM      8  C   UNL     1       4.903   6.126 -10.183  0.00  0.00    -0.011 A 
ATOM      9  C   UNL     1       5.235   7.209 -10.996  0.00  0.00    -0.004 A 
ATOM     10  C   UNL     1       6.521   7.734 -11.038  0.00  0.00    -0.000 A 
ATOM     11  C   UNL     1       7.539   6.900 -10.590  0.00  0.00    -0.000 A 
ATOM     12  C   UNL     1       7.210   5.786  -9.826  0.00  0.00    -0.000 A 
ATOM     13  C   UNL     1       5.923   5.782  -9.302  0.00  0.00    -0.004 A 
ENDBRANCH   1   8
BRANCH   1  14
ATOM     14  C   UNL     1       3.616   5.270  -8.386  0.00  0.00    +0.322 C 
ATOM     15  O   UNL     1       3.913   4.145  -8.778  0.00  0.00    -0.250 OA
BRANCH  14  17
ATOM     16  C   UNL     1       3.091   6.924  -6.872  0.00  0.00    +0.256 C 
ATOM     17  O   UNL     1       3.420   5.672  -7.080  0.00  0.00    -0.444 OA
ENDBRANCH  14  17
ENDBRANCH   1  14
TORSDOF 4
ENDMDL
MODEL 2
REMARK VINA RESULT:      -6.9      4.237      7.511
REMARK  Name = 
REMARK  4 active torsions:
REMARK  status: ('A' for Active; 'I' for Inactive)
REMARK    1  A    between atoms: O_2  and  C_3
REMARK    2  A    between atoms: C_3  and  C_5
REMARK    3  A    between atoms: C_5  and  C_6
REMARK    4  A    between atoms: C_5  and  C_12
REMARK                            x       y       z     vdW  Elec       q    Type
REMARK                         _______ _______ _______ _____ _____    ______ ____
ROOT
ATOM      1  C   UNL     1       1.540   6.095  -5.979  0.00  0.00    +0.137 C 
ENDROOT
BRANCH   1   2
ATOM      2  C   UNL     1       2.227   5.359  -4.567  0.00  0.00    +0.087 C 
ATOM      3  N   UNL     1       2.483   6.757  -3.880  0.00  0.00    -0.219 NA
ATOM      4  C   UNL     1       2.984   6.294  -2.585  0.00  0.00    +0.089 C 
ATOM      5  C   UNL     1       4.098   5.285  -2.759  0.00  0.00    +0.019 C 
ATOM      6  C   UNL     1       4.708   5.296  -4.120  0.00  0.00    +0.003 C 
ATOM      7  C   UNL     1       3.725   5.364  -5.249  0.00  0.00    +0.018 C 
ENDBRANCH   1   2
BRANCH   1   8
ATOM      8  C   UNL     1       0.033   5.947  -5.411  0.00  0.00    -0.011 A 
ATOM      9  C   UNL     1      -0.276   7.104  -4.696  0.00  0.00    -0.004 A 
ATOM     10  C   UNL     1      -1.507   7.738  -4.812  0.00  0.00    -0.000 A 
ATOM     11  C   UNL     1      -2.549   6.968  -5.315  0.00  0.00    -0.000 A 
ATOM     12  C   UNL     1      -2.251   5.784  -5.980  0.00  0.00    -0.000 A 
ATOM     13  C   UNL     1      -0.926   5.637  -6.370  0.00  0.00    -0.004 A 
ENDBRANCH   1   8
BRANCH   1  14
ATOM     14  C   UNL     1       1.518   4.688  -6.764  0.00  0.00    +0.322 C 
ATOM     15  O   UNL     1       1.143   3.693  -6.150  0.00  0.00    -0.250 OA
BRANCH  14  17
ATOM     16  C   UNL     1       2.683   3.815  -8.548  0.00  0.00    +0.256 C 
ATOM     17  O   UNL     1       1.892   4.756  -8.090  0.00  0.00    -0.444 OA
ENDBRANCH  14  17
ENDBRANCH   1  14
TORSDOF 4
ENDMDL
MODEL 3
REMARK VINA RESULT:      -6.5      4.065      5.843
REMARK  Name = 
REMARK  4 active torsions:
REMARK  status: ('A' for Active; 'I' for Inactive)
REMARK    1  A    between atoms: O_2  and  C_3
REMARK    2  A    between atoms: C_3  and  C_5
REMARK    3  A    between atoms: C_5  and  C_6
REMARK    4  A    between atoms: C_5  and  C_12
REMARK                            x       y       z     vdW  Elec       q    Type
REMARK                         _______ _______ _______ _____ _____    ______ ____
ROOT
ATOM      1  C   UNL     1       1.609   5.405  -6.176  0.00  0.00    +0.137 C 
ENDROOT
BRANCH   1   2
ATOM      2  C   UNL     1       0.195   6.351  -5.842  0.00  0.00    +0.087 C 
ATOM      3  N   UNL     1      -0.208   5.438  -4.618  0.00  0.00    -0.219 NA
ATOM      4  C   UNL     1      -1.371   6.187  -4.139  0.00  0.00    +0.089 C 
ATOM      5  C   UNL     1      -2.341   6.471  -5.265  0.00  0.00    +0.019 C 
ATOM      6  C   UNL     1      -2.133   5.609  -6.464  0.00  0.00    +0.003 C 
ATOM      7  C   UNL     1      -0.703   5.443  -6.879  0.00  0.00    +0.018 C 
ENDBRANCH   1   2
BRANCH   1   8
ATOM      8  C   UNL     1       2.513   6.256  -5.138  0.00  0.00    -0.011 A 
ATOM      9  C   UNL     1       2.806   5.437  -4.049  0.00  0.00    -0.004 A 
ATOM     10  C   UNL     1       4.074   5.391  -3.480  0.00  0.00    -0.000 A 
ATOM     11  C   UNL     1       4.904   6.474  -3.742  0.00  0.00    -0.000 A 
ATOM     12  C   UNL     1       4.585   7.328  -4.792  0.00  0.00    -0.000 A 
ATOM     13  C   UNL     1       3.647   6.840  -5.693  0.00  0.00    -0.004 A 
ENDBRANCH   1   8
BRANCH   1  14
ATOM     14  C   UNL     1       1.983   6.322  -7.449  0.00  0.00    +0.322 C 
ATOM     15  O   UNL     1       1.875   7.539  -7.331  0.00  0.00    -0.250 OA
BRANCH  14  17
ATOM     16  C   UNL     1       2.599   4.332  -8.431  0.00  0.00    +0.256 C 
ATOM     17  O   UNL     1       2.435   5.628  -8.552  0.00  0.00    -0.444 OA
ENDBRANCH  14  17
ENDBRANCH   1  14
TORSDOF 4
ENDMDL
MODEL 4
REMARK VINA RESULT:      -6.4      3.104      5.921
REMARK  Name = 
REMARK  4 active torsions:
REMARK  status: ('A' for Active; 'I' for Inactive)
REMARK    1  A    between atoms: O_2  and  C_3
REMARK    2  A    between atoms: C_3  and  C_5
REMARK    3  A    between atoms: C_5  and  C_6
REMARK    4  A    between atoms: C_5  and  C_12
REMARK                            x       y       z     vdW  Elec       q    Type
REMARK                         _______ _______ _______ _____ _____    ______ ____
ROOT
ATOM      1  C   UNL     1       1.376   4.981  -6.553  0.00  0.00    +0.137 C 
ENDROOT
BRANCH   1   2
ATOM      2  C   UNL     1       2.084   5.796  -7.909  0.00  0.00    +0.087 C 
ATOM      3  N   UNL     1       1.211   4.979  -8.940  0.00  0.00    -0.219 NA
ATOM      4  C   UNL     1       1.627   5.643 -10.178  0.00  0.00    +0.089 C 
ATOM      5  C   UNL     1       3.135   5.697 -10.289  0.00  0.00    +0.019 C 
ATOM      6  C   UNL     1       3.835   4.740  -9.385  0.00  0.00    +0.003 C 
ATOM      7  C   UNL     1       3.299   4.689  -7.987  0.00  0.00    +0.018 C 
ENDBRANCH   1   2
BRANCH   1   8
ATOM      8  C   UNL     1       0.169   6.053  -6.446  0.00  0.00    -0.011 A 
ATOM      9  C   UNL     1      -0.984   5.457  -6.954  0.00  0.00    -0.004 A 
ATOM     10  C   UNL     1      -2.219   5.587  -6.329  0.00  0.00    -0.000 A 
ATOM     11  C   UNL     1      -2.353   6.656  -5.450  0.00  0.00    -0.000 A 
ATOM     12  C   UNL     1      -1.207   7.291  -4.984  0.00  0.00    -0.000 A 
ATOM     13  C   UNL     1      -0.020   6.597  -5.180  0.00  0.00    -0.004 A 
ENDBRANCH   1   8
BRANCH   1  14
ATOM     14  C   UNL     1       2.332   5.765  -5.519  0.00  0.00    +0.322 C 
ATOM     15  O   UNL     1       2.516   6.964  -5.702  0.00  0.00    -0.250 OA
BRANCH  14  17
ATOM     16  C   UNL     1       4.127   4.876  -4.382  0.00  0.00    +0.256 C 
ATOM     17  O   UNL     1       2.825   4.995  -4.485  0.00  0.00    -0.444 OA
ENDBRANCH  14  17
ENDBRANCH   1  14
TORSDOF 4
ENDMDL
MODEL 5
REMARK VINA RESULT:      -6.4      2.828      5.924
REMARK  Name = 
REMARK  4 active torsions:
REMARK  status: ('A' for Active; 'I' for Inactive)
REMARK    1  A    between atoms: O_2  and  C_3
REMARK    2  A    between atoms: C_3  and  C_5
REMARK    3  A    between atoms: C_5  and  C_6
REMARK    4  A    between atoms: C_5  and  C_12
REMARK                            x       y       z     vdW  Elec       q    Type
REMARK                         _______ _______ _______ _____ _____    ______ ____
ROOT
ATOM      1  C   UNL     1       1.553   6.883  -8.498  0.00  0.00    +0.137 C 
ENDROOT
BRANCH   1   2
ATOM      2  C   UNL     1       2.825   5.709  -8.605  0.00  0.00    +0.087 C 
ATOM      3  N   UNL     1       3.623   6.367  -7.413  0.00  0.00    -0.219 NA
ATOM      4  C   UNL     1       4.716   5.400  -7.300  0.00  0.00    +0.089 C 
ATOM      5  C   UNL     1       5.367   5.151  -8.643  0.00  0.00    +0.019 C 
ATOM      6  C   UNL     1       5.062   6.201  -9.658  0.00  0.00    +0.003 C 
ATOM      7  C   UNL     1       3.627   6.625  -9.713  0.00  0.00    +0.018 C 
ENDBRANCH   1   2
BRANCH   1   8
ATOM      8  C   UNL     1       0.733   6.002  -7.417  0.00  0.00    -0.011 A 
ATOM      9  C   UNL     1       0.808   6.650  -6.185  0.00  0.00    -0.004 A 
ATOM     10  C   UNL     1      -0.295   6.778  -5.349  0.00  0.00    -0.000 A 
ATOM     11  C   UNL     1      -1.340   5.889  -5.571  0.00  0.00    -0.000 A 
ATOM     12  C   UNL     1      -1.389   5.196  -6.776  0.00  0.00    -0.000 A 
ATOM     13  C   UNL     1      -0.573   5.695  -7.784  0.00  0.00    -0.004 A 
ENDBRANCH   1   8
BRANCH   1  14
ATOM     14  C   UNL     1       0.796   6.253  -9.774  0.00  0.00    +0.322 C 
ATOM     15  O   UNL     1       0.297   7.026 -10.586  0.00  0.00    -0.250 OA
BRANCH  14  17
ATOM     16  C   UNL     1       0.296   4.309 -10.903  0.00  0.00    +0.256 C 
ATOM     17  O   UNL     1       0.822   4.875  -9.844  0.00  0.00    -0.444 OA
ENDBRANCH  14  17
ENDBRANCH   1  14
TORSDOF 4
ENDMDL
MODEL 6
REMARK VINA RESULT:      -6.3      1.302      4.655
REMARK  Name = 
REMARK  4 active torsions:
REMARK  status: ('A' for Active; 'I' for Inactive)
REMARK    1  A    between atoms: O_2  and  C_3
REMARK    2  A    between atoms: C_3  and  C_5
REMARK    3  A    between atoms: C_5  and  C_6
REMARK    4  A    between atoms: C_5  and  C_12
REMARK                            x       y       z     vdW  Elec       q    Type
REMARK                         _______ _______ _______ _____ _____    ______ ____
ROOT
ATOM      1  C   UNL     1       3.525   5.331  -9.720  0.00  0.00    +0.137 C 
ENDROOT
BRANCH   1   2
ATOM      2  C   UNL     1       4.842   6.427  -9.982  0.00  0.00    +0.087 C 
ATOM      3  N   UNL     1       5.291   5.678 -11.298  0.00  0.00    -0.219 NA
ATOM      4  C   UNL     1       6.372   6.572 -11.720  0.00  0.00    +0.089 C 
ATOM      5  C   UNL     1       7.342   6.828 -10.588  0.00  0.00    +0.019 C 
ATOM      6  C   UNL     1       7.241   5.837  -9.478  0.00  0.00    +0.003 C 
ATOM      7  C   UNL     1       5.842   5.504  -9.057  0.00  0.00    +0.018 C 
ENDBRANCH   1   2
BRANCH   1   8
ATOM      8  C   UNL     1       2.492   6.259 -10.550  0.00  0.00    -0.011 A 
ATOM      9  C   UNL     1       2.443   5.787 -11.860  0.00  0.00    -0.004 A 
ATOM     10  C   UNL     1       1.246   5.661 -12.556  0.00  0.00    -0.000 A 
ATOM     11  C   UNL     1       0.176   6.407 -12.076  0.00  0.00    -0.000 A 
ATOM     12  C   UNL     1       0.243   6.929 -10.789  0.00  0.00    -0.000 A 
ATOM     13  C   UNL     1       1.231   6.387  -9.977  0.00  0.00    -0.004 A 
ENDBRANCH   1   8
BRANCH   1  14
ATOM     14  C   UNL     1       3.183   6.004  -8.296  0.00  0.00    +0.322 C 
ATOM     15  O   UNL     1       3.068   7.225  -8.250  0.00  0.00    -0.250 OA
BRANCH  14  17
ATOM     16  C   UNL     1       2.441   3.962  -7.533  0.00  0.00    +0.256 C 
ATOM     17  O   UNL     1       3.009   5.112  -7.258  0.00  0.00    -0.444 OA
ENDBRANCH  14  17
ENDBRANCH   1  14
TORSDOF 4
ENDMDL
MODEL 7
REMARK VINA RESULT:      -6.3      2.110      3.999
REMARK  Name = 
REMARK  4 active torsions:
REMARK  status: ('A' for Active; 'I' for Inactive)
REMARK    1  A    between atoms: O_2  and  C_3
REMARK    2  A    between atoms: C_3  and  C_5
REMARK    3  A    between atoms: C_5  and  C_6
REMARK    4  A    between atoms: C_5  and  C_12
REMARK                            x       y       z     vdW  Elec       q    Type
REMARK                         _______ _______ _______ _____ _____    ______ ____
ROOT
ATOM      1  C   UNL     1       3.767   5.041  -9.251  0.00  0.00    +0.137 C 
ENDROOT
BRANCH   1   2
ATOM      2  C   UNL     1       3.317   5.647  -7.690  0.00  0.00    +0.087 C 
ATOM      3  N   UNL     1       4.562   4.970  -6.994  0.00  0.00    -0.219 NA
ATOM      4  C   UNL     1       4.384   5.488  -5.637  0.00  0.00    +0.089 C 
ATOM      5  C   UNL     1       2.975   5.248  -5.140  0.00  0.00    +0.019 C 
ATOM      6  C   UNL     1       2.235   4.214  -5.920  0.00  0.00    +0.003 C 
ATOM      7  C   UNL     1       2.378   4.326  -7.407  0.00  0.00    +0.018 C 
ENDBRANCH   1   2
BRANCH   1   8
ATOM      8  C   UNL     1       4.837   6.232  -9.485  0.00  0.00    -0.011 A 
ATOM      9  C   UNL     1       6.109   5.729  -9.220  0.00  0.00    -0.004 A 
ATOM     10  C   UNL     1       7.200   6.013 -10.033  0.00  0.00    -0.000 A 
ATOM     11  C   UNL     1       7.083   7.133 -10.847  0.00  0.00    -0.000 A 
ATOM     12  C   UNL     1       5.822   7.675 -11.070  0.00  0.00    -0.000 A 
ATOM     13  C   UNL     1       4.753   6.857 -10.725  0.00  0.00    -0.004 A 
ENDBRANCH   1   8
BRANCH   1  14
ATOM     14  C   UNL     1       2.550   5.824  -9.961  0.00  0.00    +0.322 C 
ATOM     15  O   UNL     1       2.326   6.979  -9.609  0.00  0.00    -0.250 OA
BRANCH  14  17
ATOM     16  C   UNL     1       0.639   4.798 -10.735  0.00  0.00    +0.256 C 
ATOM     17  O   UNL     1       1.895   5.111 -10.944  0.00  0.00    -0.444 OA
ENDBRANCH  14  17
ENDBRANCH   1  14
TORSDOF 4
ENDMDL
MODEL 8
REMARK VINA RESULT:      -6.2      2.931      4.432
REMARK  Name = 
REMARK  4 active torsions:
REMARK  status: ('A' for Active; 'I' for Inactive)
REMARK    1  A    between atoms: O_2  and  C_3
REMARK    2  A    between atoms: C_3  and  C_5
REMARK    3  A    between atoms: C_5  and  C_6
REMARK    4  A    between atoms: C_5  and  C_12
REMARK                            x       y       z     vdW  Elec       q    Type
REMARK                         _______ _______ _______ _____ _____    ______ ____
ROOT
ATOM      1  C   UNL     1       1.481   6.174  -6.360  0.00  0.00    +0.137 C 
ENDROOT
BRANCH   1   2
ATOM      2  C   UNL     1       1.692   5.341  -7.866  0.00  0.00    +0.087 C 
ATOM      3  N   UNL     1       2.238   6.637  -8.583  0.00  0.00    -0.219 NA
ATOM      4  C   UNL     1       2.575   6.060  -9.886  0.00  0.00    +0.089 C 
ATOM      5  C   UNL     1       1.413   5.274 -10.453  0.00  0.00    +0.019 C 
ATOM      6  C   UNL     1       0.106   5.592  -9.809  0.00  0.00    +0.003 C 
ATOM      7  C   UNL     1       0.146   5.683  -8.314  0.00  0.00    +0.018 C 
ENDBRANCH   1   2
BRANCH   1   8
ATOM      8  C   UNL     1       2.978   5.811  -5.866  0.00  0.00    -0.011 A 
ATOM      9  C   UNL     1       3.714   6.994  -5.810  0.00  0.00    -0.004 A 
ATOM     10  C   UNL     1       4.568   7.283  -4.752  0.00  0.00    -0.000 A 
ATOM     11  C   UNL     1       4.988   6.201  -3.989  0.00  0.00    -0.000 A 
ATOM     12  C   UNL     1       4.292   5.000  -4.082  0.00  0.00    -0.000 A 
ATOM     13  C   UNL     1       3.042   5.082  -4.683  0.00  0.00    -0.004 A 
ENDBRANCH   1   8
BRANCH   1  14
ATOM     14  C   UNL     1       0.806   4.878  -5.680  0.00  0.00    +0.322 C 
ATOM     15  O   UNL     1       1.280   3.777  -5.944  0.00  0.00    -0.250 OA
BRANCH  14  17
ATOM     16  C   UNL     1      -0.519   6.410  -4.584  0.00  0.00    +0.256 C 
ATOM     17  O   UNL     1      -0.236   5.151  -4.817  0.00  0.00    -0.444 OA
ENDBRANCH  14  17
ENDBRANCH   1  14
TORSDOF 4
ENDMDL
MODEL 9
REMARK VINA RESULT:      -6.2      2.712      4.467
REMARK  Name = 
REMARK  4 active torsions:
REMARK  status: ('A' for Active; 'I' for Inactive)
REMARK    1  A    between atoms: O_2  and  C_3
REMARK    2  A    between atoms: C_3  and  C_5
REMARK    3  A    between atoms: C_5  and  C_6
REMARK    4  A    between atoms: C_5  and  C_12
REMARK                            x       y       z     vdW  Elec       q    Type
REMARK                         _______ _______ _______ _____ _____    ______ ____
ROOT
ATOM      1  C   UNL     1       1.666   5.011  -8.416  0.00  0.00    +0.137 C 
ENDROOT
BRANCH   1   2
ATOM      2  C   UNL     1       1.009   6.251  -7.397  0.00  0.00    +0.087 C 
ATOM      3  N   UNL     1       1.605   5.588  -6.094  0.00  0.00    -0.219 NA
ATOM      4  C   UNL     1       1.214   6.604  -5.115  0.00  0.00    +0.089 C 
ATOM      5  C   UNL     1      -0.258   6.937  -5.229  0.00  0.00    +0.019 C 
ATOM      6  C   UNL     1      -1.045   5.913  -5.974  0.00  0.00    +0.003 C 
ATOM      7  C   UNL     1      -0.402   5.419  -7.234  0.00  0.00    +0.018 C 
ENDBRANCH   1   2
BRANCH   1   8
ATOM      8  C   UNL     1       3.016   5.858  -8.698  0.00  0.00    -0.011 A 
ATOM      9  C   UNL     1       4.023   5.352  -7.877  0.00  0.00    -0.004 A 
ATOM     10  C   UNL     1       5.316   5.140  -8.340  0.00  0.00    -0.000 A 
ATOM     11  C   UNL     1       5.678   5.834  -9.489  0.00  0.00    -0.000 A 
ATOM     12  C   UNL     1       4.681   6.389 -10.282  0.00  0.00    -0.000 A 
ATOM     13  C   UNL     1       3.395   5.925 -10.035  0.00  0.00    -0.004 A 
ENDBRANCH   1   8
BRANCH   1  14
ATOM     14  C   UNL     1       0.886   5.586  -9.704  0.00  0.00    +0.322 C 
ATOM     15  O   UNL     1       0.928   6.795  -9.909  0.00  0.00    -0.250 OA
BRANCH  14  17
ATOM     16  C   UNL     1       0.267   4.814 -11.784  0.00  0.00    +0.256 C 
ATOM     17  O   UNL     1       0.271   4.629 -10.485  0.00  0.00    -0.444 OA
ENDBRANCH  14  17
ENDBRANCH   1  14
TORSDOF 4
ENDMDL
