MODEL 1
REMARK VINA RESULT:      -6.2      0.000      0.000
REMARK  Name = 
REMARK  0 active torsions:
REMARK  status: ('A' for Active; 'I' for Inactive)
REMARK                            x       y       z     vdW  Elec       q    Type
REMARK                         _______ _______ _______ _____ _____    ______ ____
ROOT
ATOM      1  N   UNL     1       4.104   5.529 -13.097  0.00  0.00    +0.006 NA
ATOM      2  N   UNL     1       3.305   5.777 -11.966  0.00  0.00    -0.108 NA
ATOM      3  C   UNL     1       3.872   5.716 -10.654  0.00  0.00    +0.189 A 
ATOM      4  C   UNL     1       5.133   6.264 -10.455  0.00  0.00    +0.038 A 
ATOM      5  C   UNL     1       5.936   5.803  -9.424  0.00  0.00    +0.024 A 
ATOM      6  C   UNL     1       7.313   5.925  -9.560  0.00  0.00    +0.002 A 
ATOM      7  C   UNL     1       7.780   6.950 -10.364  0.00  0.00    +0.000 A 
ATOM      8  C   UNL     1       6.890   7.778 -11.023  0.00  0.00    +0.000 A 
ATOM      9  C   UNL     1       5.341   4.996  -8.487  0.00  0.00    +0.122 A 
ATOM     10  N   UNL     1       4.022   4.748  -8.558  0.00  0.00    -0.145 NA
ATOM     11  C   UNL     1       5.613   7.281 -11.258  0.00  0.00    +0.003 A 
ATOM     12  N   UNL     1       3.370   4.906  -9.694  0.00  0.00    -0.130 NA
ENDROOT
TORSDOF 0
ENDMDL
MODEL 2
REMARK VINA RESULT:      -6.1      7.795      9.369
REMARK  Name = 
REMARK  0 active torsions:
REMARK  status: ('A' for Active; 'I' for Inactive)
REMARK                            x       y       z     vdW  Elec       q    Type
REMARK                         _______ _______ _______ _____ _____    ______ ____
ROOT
ATOM      1  N   UNL     1       1.829   6.720  -3.626  0.00  0.00    +0.006 NA
ATOM      2  N   UNL     1       1.327   5.627  -2.897  0.00  0.00    -0.108 NA
ATOM      3  C   UNL     1      -0.060   5.289  -2.966  0.00  0.00    +0.189 A 
ATOM      4  C   UNL     1      -0.691   5.344  -4.203  0.00  0.00    +0.038 A 
ATOM      5  C   UNL     1      -2.059   5.547  -4.276  0.00  0.00    +0.024 A 
ATOM      6  C   UNL     1      -2.574   6.136  -5.423  0.00  0.00    +0.002 A 
ATOM      7  C   UNL     1      -1.860   5.966  -6.597  0.00  0.00    +0.000 A 
ATOM      8  C   UNL     1      -0.667   5.267  -6.589  0.00  0.00    +0.000 A 
ATOM      9  C   UNL     1      -2.768   5.432  -3.107  0.00  0.00    +0.122 A 
ATOM     10  N   UNL     1      -2.140   5.063  -1.977  0.00  0.00    -0.145 NA
ATOM     11  C   UNL     1       0.014   5.184  -5.380  0.00  0.00    +0.003 A 
ATOM     12  N   UNL     1      -0.834   5.206  -1.859  0.00  0.00    -0.130 NA
ENDROOT
TORSDOF 0
ENDMDL
MODEL 3
REMARK VINA RESULT:      -6.1      7.434      9.302
REMARK  Name = 
REMARK  0 active torsions:
REMARK  status: ('A' for Active; 'I' for Inactive)
REMARK                            x       y       z     vdW  Elec       q    Type
REMARK                         _______ _______ _______ _____ _____    ______ ____
ROOT
ATOM      1  N   UNL     1      -2.361   4.935  -1.885  0.00  0.00    +0.006 NA
ATOM      2  N   UNL     1      -1.098   5.554  -1.893  0.00  0.00    -0.108 NA
ATOM      3  C   UNL     1      -0.332   5.619  -3.099  0.00  0.00    +0.189 A 
ATOM      4  C   UNL     1      -0.995   5.914  -4.284  0.00  0.00    +0.038 A 
ATOM      5  C   UNL     1      -0.470   5.494  -5.496  0.00  0.00    +0.024 A 
ATOM      6  C   UNL     1      -1.346   5.294  -6.555  0.00  0.00    +0.002 A 
ATOM      7  C   UNL     1      -2.519   6.029  -6.553  0.00  0.00    +0.000 A 
ATOM      8  C   UNL     1      -2.800   6.889  -5.507  0.00  0.00    +0.000 A 
ATOM      9  C   UNL     1       0.818   5.021  -5.485  0.00  0.00    +0.122 A 
ATOM     10  N   UNL     1       1.531   5.050  -4.346  0.00  0.00    -0.145 NA
ATOM     11  C   UNL     1      -2.171   6.639  -4.292  0.00  0.00    +0.003 A 
ATOM     12  N   UNL     1       0.926   5.128  -3.177  0.00  0.00    -0.130 NA
ENDROOT
TORSDOF 0
ENDMDL
MODEL 4
REMARK VINA RESULT:      -6.0      5.631      7.199
REMARK  Name = 
REMARK  0 active torsions:
REMARK  status: ('A' for Active; 'I' for Inactive)
REMARK                            x       y       z     vdW  Elec       q    Type
REMARK                         _______ _______ _______ _____ _____    ______ ____
ROOT
ATOM      1  N   UNL     1       2.105   8.226  -7.813  0.00  0.00    +0.006 NA
ATOM      2  N   UNL     1       2.819   7.400  -6.926  0.00  0.00    -0.108 NA
ATOM      3  C   UNL     1       2.152   6.775  -5.827  0.00  0.00    +0.189 A 
ATOM      4  C   UNL     1       0.890   6.235  -6.043  0.00  0.00    +0.038 A 
ATOM      5  C   UNL     1       0.001   6.102  -4.988  0.00  0.00    +0.024 A 
ATOM      6  C   UNL     1      -1.358   6.103  -5.272  0.00  0.00    +0.002 A 
ATOM      7  C   UNL     1      -1.742   5.666  -6.528  0.00  0.00    +0.000 A 
ATOM      8  C   UNL     1      -0.787   5.289  -7.455  0.00  0.00    +0.000 A 
ATOM      9  C   UNL     1       0.506   6.280  -3.724  0.00  0.00    +0.122 A 
ATOM     10  N   UNL     1       1.821   6.496  -3.554  0.00  0.00    -0.145 NA
ATOM     11  C   UNL     1       0.494   5.805  -7.295  0.00  0.00    +0.003 A 
ATOM     12  N   UNL     1       2.562   6.946  -4.549  0.00  0.00    -0.130 NA
ENDROOT
TORSDOF 0
ENDMDL
MODEL 5
REMARK VINA RESULT:      -5.7      8.250      9.403
REMARK  Name = 
REMARK  0 active torsions:
REMARK  status: ('A' for Active; 'I' for Inactive)
REMARK                            x       y       z     vdW  Elec       q    Type
REMARK                         _______ _______ _______ _____ _____    ______ ____
ROOT
ATOM      1  N   UNL     1      -3.053   4.699  -2.974  0.00  0.00    +0.006 NA
ATOM      2  N   UNL     1      -2.303   5.150  -1.872  0.00  0.00    -0.108 NA
ATOM      3  C   UNL     1      -0.922   5.486  -2.028  0.00  0.00    +0.189 A 
ATOM      4  C   UNL     1      -0.539   6.190  -3.163  0.00  0.00    +0.038 A 
ATOM      5  C   UNL     1       0.760   6.093  -3.635  0.00  0.00    +0.024 A 
ATOM      6  C   UNL     1       0.984   6.313  -4.988  0.00  0.00    +0.002 A 
ATOM      7  C   UNL     1       0.092   7.138  -5.651  0.00  0.00    +0.000 A 
ATOM      8  C   UNL     1      -0.990   7.674  -4.979  0.00  0.00    +0.000 A 
ATOM      9  C   UNL     1       1.680   5.501  -2.807  0.00  0.00    +0.122 A 
ATOM     10  N   UNL     1       1.316   5.112  -1.573  0.00  0.00    -0.145 NA
ATOM     11  C   UNL     1      -1.425   7.008  -3.838  0.00  0.00    +0.003 A 
ATOM     12  N   UNL     1       0.046   4.905  -1.282  0.00  0.00    -0.130 NA
ENDROOT
TORSDOF 0
ENDMDL
MODEL 6
REMARK VINA RESULT:      -5.6      5.897      7.860
REMARK  Name = 
REMARK  0 active torsions:
REMARK  status: ('A' for Active; 'I' for Inactive)
REMARK                            x       y       z     vdW  Elec       q    Type
REMARK                         _______ _______ _______ _____ _____    ______ ____
ROOT
ATOM      1  N   UNL     1       1.304   6.123  -3.061  0.00  0.00    +0.006 NA
ATOM      2  N   UNL     1       1.944   6.819  -4.103  0.00  0.00    -0.108 NA
ATOM      3  C   UNL     1       1.563   6.594  -5.463  0.00  0.00    +0.189 A 
ATOM      4  C   UNL     1       0.210   6.472  -5.756  0.00  0.00    +0.038 A 
ATOM      5  C   UNL     1      -0.196   5.762  -6.874  0.00  0.00    +0.024 A 
ATOM      6  C   UNL     1      -1.460   5.186  -6.862  0.00  0.00    +0.002 A 
ATOM      7  C   UNL     1      -2.420   5.786  -6.065  0.00  0.00    +0.000 A 
ATOM      8  C   UNL     1      -2.096   6.887  -5.294  0.00  0.00    +0.000 A 
ATOM      9  C   UNL     1       0.775   5.425  -7.784  0.00  0.00    +0.122 A 
ATOM     10  N   UNL     1       2.038   5.847  -7.601  0.00  0.00    -0.145 NA
ATOM     11  C   UNL     1      -0.756   7.058  -4.962  0.00  0.00    +0.003 A 
ATOM     12  N   UNL     1       2.457   6.211  -6.403  0.00  0.00    -0.130 NA
ENDROOT
TORSDOF 0
ENDMDL
MODEL 7
REMARK VINA RESULT:      -5.5      8.656      9.967
REMARK  Name = 
REMARK  0 active torsions:
REMARK  status: ('A' for Active; 'I' for Inactive)
REMARK                            x       y       z     vdW  Elec       q    Type
REMARK                         _______ _______ _______ _____ _____    ______ ____
ROOT
ATOM      1  N   UNL     1      -0.087   7.207  -0.520  0.00  0.00    +0.006 NA
ATOM      2  N   UNL     1      -0.619   5.910  -0.638  0.00  0.00    -0.108 NA
ATOM      3  C   UNL     1      -1.239   5.492  -1.857  0.00  0.00    +0.189 A 
ATOM      4  C   UNL     1      -0.640   5.854  -3.058  0.00  0.00    +0.038 A 
ATOM      5  C   UNL     1      -1.403   5.955  -4.211  0.00  0.00    +0.024 A 
ATOM      6  C   UNL     1      -0.964   6.810  -5.214  0.00  0.00    +0.002 A 
ATOM      7  C   UNL     1       0.397   7.051  -5.289  0.00  0.00    +0.000 A 
ATOM      8  C   UNL     1       1.256   6.483  -4.367  0.00  0.00    +0.000 A 
ATOM      9  C   UNL     1      -2.675   5.444  -4.162  0.00  0.00    +0.122 A 
ATOM     10  N   UNL     1      -3.100   4.814  -3.053  0.00  0.00    -0.145 NA
ATOM     11  C   UNL     1       0.715   6.107  -3.142  0.00  0.00    +0.003 A 
ATOM     12  N   UNL     1      -2.507   5.024  -1.893  0.00  0.00    -0.130 NA
ENDROOT
TORSDOF 0
ENDMDL
MODEL 8
REMARK VINA RESULT:      -5.4      7.922      9.647
REMARK  Name = 
REMARK  0 active torsions:
REMARK  status: ('A' for Active; 'I' for Inactive)
REMARK                            x       y       z     vdW  Elec       q    Type
REMARK                         _______ _______ _______ _____ _____    ______ ____
ROOT
ATOM      1  N   UNL     1       1.360   6.151  -3.251  0.00  0.00    +0.006 NA
ATOM      2  N   UNL     1       1.081   6.749  -4.493  0.00  0.00    -0.108 NA
ATOM      3  C   UNL     1      -0.166   6.503  -5.149  0.00  0.00    +0.189 A 
ATOM      4  C   UNL     1      -1.323   6.483  -4.380  0.00  0.00    +0.038 A 
ATOM      5  C   UNL     1      -2.428   5.766  -4.807  0.00  0.00    +0.024 A 
ATOM      6  C   UNL     1      -3.318   5.299  -3.849  0.00  0.00    +0.002 A 
ATOM      7  C   UNL     1      -3.398   6.007  -2.662  0.00  0.00    +0.000 A 
ATOM      8  C   UNL     1      -2.587   7.106  -2.452  0.00  0.00    +0.000 A 
ATOM      9  C   UNL     1      -2.413   5.314  -6.103  0.00  0.00    +0.122 A 
ATOM     10  N   UNL     1      -1.389   5.637  -6.912  0.00  0.00    -0.145 NA
ATOM     11  C   UNL     1      -1.410   7.178  -3.189  0.00  0.00    +0.003 A 
ATOM     12  N   UNL     1      -0.229   6.011  -6.408  0.00  0.00    -0.130 NA
ENDROOT
TORSDOF 0
ENDMDL
MODEL 9
REMARK VINA RESULT:      -5.2      7.658      8.754
REMARK  Name = 
REMARK  0 active torsions:
REMARK  status: ('A' for Active; 'I' for Inactive)
REMARK                            x       y       z     vdW  Elec       q    Type
REMARK                         _______ _______ _______ _____ _____    ______ ____
ROOT
ATOM      1  N   UNL     1       3.514   9.346  -1.110  0.00  0.00    +0.006 NA
ATOM      2  N   UNL     1       4.310   8.418  -0.414  0.00  0.00    -0.108 NA
ATOM      3  C   UNL     1       4.395   7.062  -0.861  0.00  0.00    +0.189 A 
ATOM      4  C   UNL     1       4.499   6.824  -2.226  0.00  0.00    +0.038 A 
ATOM      5  C   UNL     1       4.070   5.617  -2.754  0.00  0.00    +0.024 A 
ATOM      6  C   UNL     1       3.663   5.591  -4.082  0.00  0.00    +0.002 A 
ATOM      7  C   UNL     1       4.214   6.534  -4.932  0.00  0.00    +0.000 A 
ATOM      8  C   UNL     1       5.101   7.476  -4.443  0.00  0.00    +0.000 A 
ATOM      9  C   UNL     1       3.794   4.611  -1.863  0.00  0.00    +0.122 A 
ATOM     10  N   UNL     1       4.014   4.801  -0.551  0.00  0.00    -0.145 NA
ATOM     11  C   UNL     1       5.039   7.763  -3.084  0.00  0.00    +0.003 A 
ATOM     12  N   UNL     1       4.090   6.021  -0.053  0.00  0.00    -0.130 NA
ENDROOT
TORSDOF 0
ENDMDL
