MODEL 1
REMARK VINA RESULT:      -8.3      0.000      0.000
REMARK  Name = 
REMARK  7 active torsions:
REMARK  status: ('A' for Active; 'I' for Inactive)
REMARK    1  A    between atoms: N_2  and  C_3
REMARK    2  A    between atoms: C_3  and  C_5
REMARK    3  A    between atoms: C_10  and  O_11
REMARK    4  A    between atoms: O_11  and  C_12
REMARK    5  A    between atoms: C_15  and  O_16
REMARK    6  A    between atoms: O_16  and  C_17
REMARK    7  A    between atoms: C_23  and  N_24
REMARK                            x       y       z     vdW  Elec       q    Type
REMARK                         _______ _______ _______ _____ _____    ______ ____
ROOT
ATOM      1  C   UNL     1       3.158   6.034  -3.022  0.00  0.00    +0.168 C 
ATOM      2  C   UNL     1       3.585   7.403  -3.948  0.00  0.00    +0.123 C 
ATOM      3  N   UNL     1       4.041   8.221  -2.697  0.00  0.00    -0.130 NA
ATOM      4  C   UNL     1       5.039   6.676  -4.094  0.00  0.00    +0.043 C 
ATOM      5  C   UNL     1       4.766   5.411  -5.101  0.00  0.00    +0.123 C 
ATOM      6  N   UNL     1       4.341   4.310  -4.069  0.00  0.00    -0.130 NA
ATOM      7  C   UNL     1       3.216   5.951  -5.578  0.00  0.00    +0.168 C 
ATOM      8  C   UNL     1       2.265   5.335  -4.307  0.00  0.00    +0.209 C 
ATOM      9  O   UNL     1       1.329   6.505  -4.442  0.00  0.00    -0.218 OA
ENDROOT
BRANCH   1  10
ATOM     10  O   UNL     1       2.014   6.636  -2.242  0.00  0.00    -0.328 OA
BRANCH  10  13
ATOM     11  C   UNL     1       2.290   7.691  -0.311  0.00  0.00    +0.134 C 
ATOM     12  O   UNL     1       2.707   6.287  -0.036  0.00  0.00    -0.331 OA
ATOM     13  C   UNL     1       2.323   5.486  -1.261  0.00  0.00    +0.253 C 
ATOM     14  C   UNL     1       0.701   5.268  -0.661  0.00  0.00    +0.148 C 
ATOM     15  N   UNL     1       0.183   4.594  -1.971  0.00  0.00    -0.128 NA
ATOM     16  C   UNL     1       0.106   6.734  -1.042  0.00  0.00    +0.027 C 
ATOM     17  C   UNL     1       0.719   7.463   0.123  0.00  0.00    +0.033 C 
BRANCH  11  18
ATOM     18  C   UNL     1       2.680   8.188   1.290  0.00  0.00    +0.100 C 
ATOM     19  C   UNL     1       2.153   9.717   1.082  0.00  0.00    +0.021 C 
BRANCH  18  21
ATOM     20  C   UNL     1       4.436   8.671   1.043  0.00  0.00    +0.107 C 
ATOM     21  N   UNL     1       4.174   8.571   1.024  0.00  0.00    -0.215 NA
ENDBRANCH  18  21
ENDBRANCH  11  18
ENDBRANCH  10  13
ENDBRANCH   1  10
BRANCH   7  22
ATOM     22  O   UNL     1       3.058   4.739  -6.464  0.00  0.00    -0.327 OA
BRANCH  22  23
ATOM     23  C   UNL     1       2.962   5.720  -7.639  0.00  0.00    +0.268 C 
ATOM     24  C   UNL     1       3.469   4.488  -8.739  0.00  0.00    +0.226 C 
ATOM     25  O   UNL     1       2.224   3.662  -8.729  0.00  0.00    -0.216 OA
ATOM     26  C   UNL     1       3.132   5.371 -10.171  0.00  0.00    +0.138 C 
ATOM     27  C   UNL     1       1.554   5.671  -9.959  0.00  0.00    +0.171 C 
ATOM     28  O   UNL     1       1.478   6.678 -10.950  0.00  0.00    -0.222 OA
ATOM     29  C   UNL     1       0.751   4.555 -10.519  0.00  0.00    +0.037 C 
ATOM     30  C   UNL     1       1.217   6.321  -8.759  0.00  0.00    +0.176 C 
ATOM     31  O   UNL     1       1.459   5.466  -7.748  0.00  0.00    -0.326 OA
BRANCH  26  32
ATOM     32  N   UNL     1       3.569   6.779  -9.620  0.00  0.00    -0.213 NA
ATOM     33  C   UNL     1       4.686   7.104 -10.482  0.00  0.00    +0.108 C 
ENDBRANCH  26  32
ENDBRANCH  22  23
ENDBRANCH   7  22
TORSDOF 7
ENDMDL
MODEL 2
REMARK VINA RESULT:      -7.8      2.635      5.003
REMARK  Name = 
REMARK  7 active torsions:
REMARK  status: ('A' for Active; 'I' for Inactive)
REMARK    1  A    between atoms: N_2  and  C_3
REMARK    2  A    between atoms: C_3  and  C_5
REMARK    3  A    between atoms: C_10  and  O_11
REMARK    4  A    between atoms: O_11  and  C_12
REMARK    5  A    between atoms: C_15  and  O_16
REMARK    6  A    between atoms: O_16  and  C_17
REMARK    7  A    between atoms: C_23  and  N_24
REMARK                            x       y       z     vdW  Elec       q    Type
REMARK                         _______ _______ _______ _____ _____    ______ ____
ROOT
ATOM      1  C   UNL     1       2.586   6.334  -6.276  0.00  0.00    +0.168 C 
ATOM      2  C   UNL     1       2.383   4.901  -7.181  0.00  0.00    +0.123 C 
ATOM      3  N   UNL     1       1.411   4.268  -6.135  0.00  0.00    -0.130 NA
ATOM      4  C   UNL     1       1.175   5.709  -7.925  0.00  0.00    +0.043 C 
ATOM      5  C   UNL     1       1.938   6.825  -8.851  0.00  0.00    +0.123 C 
ATOM      6  N   UNL     1       2.070   8.006  -7.828  0.00  0.00    -0.130 NA
ATOM      7  C   UNL     1       3.485   6.124  -8.661  0.00  0.00    +0.168 C 
ATOM      8  C   UNL     1       3.961   6.814  -7.179  0.00  0.00    +0.209 C 
ATOM      9  O   UNL     1       4.746   5.572  -6.855  0.00  0.00    -0.218 OA
ENDROOT
BRANCH   1  10
ATOM     10  O   UNL     1       3.287   5.746  -5.075  0.00  0.00    -0.328 OA
BRANCH  10  13
ATOM     11  C   UNL     1       1.902   5.594  -3.349  0.00  0.00    +0.134 C 
ATOM     12  O   UNL     1       2.109   7.057  -3.539  0.00  0.00    -0.331 OA
ATOM     13  C   UNL     1       3.218   7.198  -4.558  0.00  0.00    +0.253 C 
ATOM     14  C   UNL     1       4.434   7.047  -3.317  0.00  0.00    +0.148 C 
ATOM     15  N   UNL     1       5.624   7.001  -4.327  0.00  0.00    -0.128 NA
ATOM     16  C   UNL     1       4.381   5.431  -3.127  0.00  0.00    +0.027 C 
ATOM     17  C   UNL     1       3.139   5.410  -2.279  0.00  0.00    +0.033 C 
BRANCH  11  18
ATOM     18  C   UNL     1       0.795   5.852  -2.057  0.00  0.00    +0.100 C 
ATOM     19  C   UNL     1       0.947   4.345  -1.455  0.00  0.00    +0.021 C 
BRANCH  18  21
ATOM     20  C   UNL     1      -0.781   5.467  -2.920  0.00  0.00    +0.107 C 
ATOM     21  N   UNL     1      -0.514   5.505  -2.841  0.00  0.00    -0.215 NA
ENDBRANCH  18  21
ENDBRANCH  11  18
ENDBRANCH  10  13
ENDBRANCH   1  10
BRANCH   7  22
ATOM     22  O   UNL     1       4.092   7.211  -9.516  0.00  0.00    -0.327 OA
BRANCH  22  23
ATOM     23  C   UNL     1       4.623   6.086 -10.414  0.00  0.00    +0.268 C 
ATOM     24  C   UNL     1       4.954   7.219 -11.675  0.00  0.00    +0.226 C 
ATOM     25  O   UNL     1       6.128   7.900 -11.052  0.00  0.00    -0.216 OA
ATOM     26  C   UNL     1       5.837   6.133 -12.668  0.00  0.00    +0.138 C 
ATOM     27  C   UNL     1       7.011   5.694 -11.642  0.00  0.00    +0.171 C 
ATOM     28  O   UNL     1       7.427   4.568 -12.393  0.00  0.00    -0.222 OA
ATOM     29  C   UNL     1       8.151   6.638 -11.750  0.00  0.00    +0.037 C 
ATOM     30  C   UNL     1       6.576   5.166 -10.415  0.00  0.00    +0.176 C 
ATOM     31  O   UNL     1       5.985   6.162  -9.727  0.00  0.00    -0.326 OA
BRANCH  26  32
ATOM     32  N   UNL     1       4.963   4.860 -12.361  0.00  0.00    -0.213 NA
ATOM     33  C   UNL     1       4.243   4.683 -13.605  0.00  0.00    +0.108 C 
ENDBRANCH  26  32
ENDBRANCH  22  23
ENDBRANCH   7  22
TORSDOF 7
ENDMDL
MODEL 3
REMARK VINA RESULT:      -7.7      2.059      8.732
REMARK  Name = 
REMARK  7 active torsions:
REMARK  status: ('A' for Active; 'I' for Inactive)
REMARK    1  A    between atoms: N_2  and  C_3
REMARK    2  A    between atoms: C_3  and  C_5
REMARK    3  A    between atoms: C_10  and  O_11
REMARK    4  A    between atoms: O_11  and  C_12
REMARK    5  A    between atoms: C_15  and  O_16
REMARK    6  A    between atoms: O_16  and  C_17
REMARK    7  A    between atoms: C_23  and  N_24
REMARK                            x       y       z     vdW  Elec       q    Type
REMARK                         _______ _______ _______ _____ _____    ______ ____
ROOT
ATOM      1  C   UNL     1       2.422   5.247  -7.690  0.00  0.00    +0.168 C 
ATOM      2  C   UNL     1       1.418   6.474  -7.058  0.00  0.00    +0.123 C 
ATOM      3  N   UNL     1       0.692   6.709  -8.421  0.00  0.00    -0.130 NA
ATOM      4  C   UNL     1       0.416   5.250  -6.652  0.00  0.00    +0.043 C 
ATOM      5  C   UNL     1       1.178   4.490  -5.415  0.00  0.00    +0.123 C 
ATOM      6  N   UNL     1       2.069   3.472  -6.209  0.00  0.00    -0.130 NA
ATOM      7  C   UNL     1       2.328   5.733  -5.181  0.00  0.00    +0.168 C 
ATOM      8  C   UNL     1       3.490   5.310  -6.351  0.00  0.00    +0.209 C 
ATOM      9  O   UNL     1       3.825   6.764  -6.543  0.00  0.00    -0.218 OA
ENDROOT
BRANCH   1  10
ATOM     10  O   UNL     1       3.217   6.083  -8.663  0.00  0.00    -0.328 OA
BRANCH  10  13
ATOM     11  C   UNL     1       2.262   6.018 -10.664  0.00  0.00    +0.134 C 
ATOM     12  O   UNL     1       2.797   4.644 -10.457  0.00  0.00    -0.331 OA
ATOM     13  C   UNL     1       3.648   4.706  -9.207  0.00  0.00    +0.253 C 
ATOM     14  C   UNL     1       5.027   5.253 -10.124  0.00  0.00    +0.148 C 
ATOM     15  N   UNL     1       5.907   5.517  -8.861  0.00  0.00    -0.128 NA
ATOM     16  C   UNL     1       4.597   6.814 -10.292  0.00  0.00    +0.027 C 
ATOM     17  C   UNL     1       3.614   6.589 -11.409  0.00  0.00    +0.033 C 
BRANCH  11  18
ATOM     18  C   UNL     1       1.578   5.593 -12.185  0.00  0.00    +0.100 C 
ATOM     19  C   UNL     1       0.850   7.035 -12.406  0.00  0.00    +0.021 C 
BRANCH  18  21
ATOM     20  C   UNL     1       0.019   4.809 -11.610  0.00  0.00    +0.107 C 
ATOM     21  N   UNL     1       0.277   4.916 -11.639  0.00  0.00    -0.215 NA
ENDBRANCH  18  21
ENDBRANCH  11  18
ENDBRANCH  10  13
ENDBRANCH   1  10
BRANCH   7  22
ATOM     22  O   UNL     1       2.967   4.943  -4.064  0.00  0.00    -0.327 OA
BRANCH  22  23
ATOM     23  C   UNL     1       2.442   6.027  -3.115  0.00  0.00    +0.268 C 
ATOM     24  C   UNL     1       2.779   5.025  -1.748  0.00  0.00    +0.226 C 
ATOM     25  O   UNL     1       4.270   5.119  -1.772  0.00  0.00    -0.216 OA
ATOM     26  C   UNL     1       2.505   6.235  -0.563  0.00  0.00    +0.138 C 
ATOM     27  C   UNL     1       3.580   7.351  -1.037  0.00  0.00    +0.171 C 
ATOM     28  O   UNL     1       3.024   8.402  -0.268  0.00  0.00    -0.222 OA
ATOM     29  C   UNL     1       4.892   7.090  -0.392  0.00  0.00    +0.037 C 
ATOM     30  C   UNL     1       3.461   7.779  -2.369  0.00  0.00    +0.176 C 
ATOM     31  O   UNL     1       3.792   6.742  -3.164  0.00  0.00    -0.326 OA
BRANCH  26  32
ATOM     32  N   UNL     1       1.307   6.940  -1.301  0.00  0.00    -0.213 NA
ATOM     33  C   UNL     1       0.225   6.760  -0.357  0.00  0.00    +0.108 C 
ENDBRANCH  26  32
ENDBRANCH  22  23
ENDBRANCH   7  22
TORSDOF 7
ENDMDL
MODEL 4
REMARK VINA RESULT:      -7.3      2.293      2.956
REMARK  Name = 
REMARK  7 active torsions:
REMARK  status: ('A' for Active; 'I' for Inactive)
REMARK    1  A    between atoms: N_2  and  C_3
REMARK    2  A    between atoms: C_3  and  C_5
REMARK    3  A    between atoms: C_10  and  O_11
REMARK    4  A    between atoms: O_11  and  C_12
REMARK    5  A    between atoms: C_15  and  O_16
REMARK    6  A    between atoms: O_16  and  C_17
REMARK    7  A    between atoms: C_23  and  N_24
REMARK                            x       y       z     vdW  Elec       q    Type
REMARK                         _______ _______ _______ _____ _____    ______ ____
ROOT
ATOM      1  C   UNL     1       0.539   5.485  -4.234  0.00  0.00    +0.168 C 
ATOM      2  C   UNL     1       1.871   6.547  -4.337  0.00  0.00    +0.123 C 
ATOM      3  N   UNL     1       2.088   6.573  -2.790  0.00  0.00    -0.130 NA
ATOM      4  C   UNL     1       2.761   5.189  -4.513  0.00  0.00    +0.043 C 
ATOM      5  C   UNL     1       2.389   4.647  -6.014  0.00  0.00    +0.123 C 
ATOM      6  N   UNL     1       1.135   3.761  -5.697  0.00  0.00    -0.130 NA
ATOM      7  C   UNL     1       1.595   6.086  -6.484  0.00  0.00    +0.168 C 
ATOM      8  C   UNL     1       0.042   5.811  -5.841  0.00  0.00    +0.209 C 
ATOM      9  O   UNL     1      -0.122   7.289  -5.609  0.00  0.00    -0.218 OA
ENDROOT
BRANCH   1  10
ATOM     10  O   UNL     1      -0.419   6.394  -3.502  0.00  0.00    -0.328 OA
BRANCH  10  13
ATOM     11  C   UNL     1      -0.653   6.835  -1.341  0.00  0.00    +0.134 C 
ATOM     12  O   UNL     1      -0.884   5.367  -1.454  0.00  0.00    -0.331 OA
ATOM     13  C   UNL     1      -0.955   5.063  -2.935  0.00  0.00    +0.253 C 
ATOM     14  C   UNL     1      -2.650   5.473  -2.979  0.00  0.00    +0.148 C 
ATOM     15  N   UNL     1      -2.755   5.356  -4.533  0.00  0.00    -0.128 NA
ATOM     16  C   UNL     1      -2.503   7.094  -2.995  0.00  0.00    +0.027 C 
ATOM     17  C   UNL     1      -2.237   7.244  -1.522  0.00  0.00    +0.033 C 
BRANCH  11  18
ATOM     18  C   UNL     1      -0.837   6.798   0.369  0.00  0.00    +0.100 C 
ATOM     19  C   UNL     1      -1.088   8.403   0.506  0.00  0.00    +0.021 C 
BRANCH  18  21
ATOM     20  C   UNL     1       0.925   6.964   0.864  0.00  0.00    +0.107 C 
ATOM     21  N   UNL     1       0.680   6.911   0.737  0.00  0.00    -0.215 NA
ENDBRANCH  18  21
ENDBRANCH  11  18
ENDBRANCH  10  13
ENDBRANCH   1  10
BRANCH   7  22
ATOM     22  O   UNL     1       1.288   5.485  -7.835  0.00  0.00    -0.327 OA
BRANCH  22  23
ATOM     23  C   UNL     1       2.681   5.963  -8.265  0.00  0.00    +0.268 C 
ATOM     24  C   UNL     1       2.879   4.564  -9.259  0.00  0.00    +0.226 C 
ATOM     25  O   UNL     1       1.916   4.927 -10.341  0.00  0.00    -0.216 OA
ATOM     26  C   UNL     1       4.305   5.101 -10.049  0.00  0.00    +0.138 C 
ATOM     27  C   UNL     1       3.770   6.486 -10.695  0.00  0.00    +0.171 C 
ATOM     28  O   UNL     1       5.057   7.005 -10.977  0.00  0.00    -0.222 OA
ATOM     29  C   UNL     1       3.188   6.223 -12.036  0.00  0.00    +0.037 C 
ATOM     30  C   UNL     1       3.206   7.400  -9.789  0.00  0.00    +0.176 C 
ATOM     31  O   UNL     1       2.058   6.865  -9.330  0.00  0.00    -0.326 OA
BRANCH  26  32
ATOM     32  N   UNL     1       4.941   5.819  -8.801  0.00  0.00    -0.213 NA
ATOM     33  C   UNL     1       6.243   5.192  -8.725  0.00  0.00    +0.108 C 
ENDBRANCH  26  32
ENDBRANCH  22  23
ENDBRANCH   7  22
TORSDOF 7
ENDMDL
MODEL 5
REMARK VINA RESULT:      -7.2      2.325      8.893
REMARK  Name = 
REMARK  7 active torsions:
REMARK  status: ('A' for Active; 'I' for Inactive)
REMARK    1  A    between atoms: N_2  and  C_3
REMARK    2  A    between atoms: C_3  and  C_5
REMARK    3  A    between atoms: C_10  and  O_11
REMARK    4  A    between atoms: O_11  and  C_12
REMARK    5  A    between atoms: C_15  and  O_16
REMARK    6  A    between atoms: O_16  and  C_17
REMARK    7  A    between atoms: C_23  and  N_24
REMARK                            x       y       z     vdW  Elec       q    Type
REMARK                         _______ _______ _______ _____ _____    ______ ____
ROOT
ATOM      1  C   UNL     1       1.390   5.527  -3.388  0.00  0.00    +0.168 C 
ATOM      2  C   UNL     1       0.200   6.748  -3.440  0.00  0.00    +0.123 C 
ATOM      3  N   UNL     1      -0.166   6.456  -4.931  0.00  0.00    -0.130 NA
ATOM      4  C   UNL     1      -0.811   5.590  -2.888  0.00  0.00    +0.043 C 
ATOM      5  C   UNL     1      -0.352   5.354  -1.332  0.00  0.00    +0.123 C 
ATOM      6  N   UNL     1       0.760   4.265  -1.523  0.00  0.00    -0.130 NA
ATOM      7  C   UNL     1       0.637   6.746  -1.270  0.00  0.00    +0.168 C 
ATOM      8  C   UNL     1       2.078   6.136  -1.942  0.00  0.00    +0.209 C 
ATOM      9  O   UNL     1       2.379   7.491  -2.524  0.00  0.00    -0.218 OA
ENDROOT
BRANCH   1  10
ATOM     10  O   UNL     1       2.365   6.117  -4.379  0.00  0.00    -0.328 OA
BRANCH  10  13
ATOM     11  C   UNL     1       2.302   5.996  -6.593  0.00  0.00    +0.134 C 
ATOM     12  O   UNL     1       2.426   4.582  -6.141  0.00  0.00    -0.331 OA
ATOM     13  C   UNL     1       2.697   4.636  -4.653  0.00  0.00    +0.253 C 
ATOM     14  C   UNL     1       4.406   4.842  -4.930  0.00  0.00    +0.148 C 
ATOM     15  N   UNL     1       4.737   5.090  -3.424  0.00  0.00    -0.128 NA
ATOM     16  C   UNL     1       4.398   6.425  -5.308  0.00  0.00    +0.027 C 
ATOM     17  C   UNL     1       3.923   6.247  -6.725  0.00  0.00    +0.033 C 
BRANCH  11  18
ATOM     18  C   UNL     1       2.219   5.529  -8.247  0.00  0.00    +0.100 C 
ATOM     19  C   UNL     1       2.375   7.048  -8.817  0.00  0.00    +0.021 C 
BRANCH  18  21
ATOM     20  C   UNL     1       0.396   5.547  -8.477  0.00  0.00    +0.107 C 
ATOM     21  N   UNL     1       0.660   5.541  -8.381  0.00  0.00    -0.215 NA
ENDBRANCH  18  21
ENDBRANCH  11  18
ENDBRANCH  10  13
ENDBRANCH   1  10
BRANCH   7  22
ATOM     22  O   UNL     1       1.010   6.428   0.158  0.00  0.00    -0.327 OA
BRANCH  22  23
ATOM     23  C   UNL     1       0.392   7.782   0.528  0.00  0.00    +0.268 C 
ATOM     24  C   UNL     1       0.037   7.211   2.119  0.00  0.00    +0.226 C 
ATOM     25  O   UNL     1       1.431   7.181   2.656  0.00  0.00    -0.216 OA
ATOM     26  C   UNL     1      -0.411   8.736   2.765  0.00  0.00    +0.138 C 
ATOM     27  C   UNL     1       0.946   9.576   2.488  0.00  0.00    +0.171 C 
ATOM     28  O   UNL     1       0.359  10.847   2.694  0.00  0.00    -0.222 OA
ATOM     29  C   UNL     1       1.876   9.420   3.635  0.00  0.00    +0.037 C 
ATOM     30  C   UNL     1       1.385   9.595   1.154  0.00  0.00    +0.176 C 
ATOM     31  O   UNL     1       1.779   8.347   0.834  0.00  0.00    -0.326 OA
BRANCH  26  32
ATOM     32  N   UNL     1      -1.122   9.278   1.469  0.00  0.00    -0.213 NA
ATOM     33  C   UNL     1      -2.484   9.456   1.926  0.00  0.00    +0.108 C 
ENDBRANCH  26  32
ENDBRANCH  22  23
ENDBRANCH   7  22
TORSDOF 7
ENDMDL
MODEL 6
REMARK VINA RESULT:      -6.9      2.117      8.695
REMARK  Name = 
REMARK  7 active torsions:
REMARK  status: ('A' for Active; 'I' for Inactive)
REMARK    1  A    between atoms: N_2  and  C_3
REMARK    2  A    between atoms: C_3  and  C_5
REMARK    3  A    between atoms: C_10  and  O_11
REMARK    4  A    between atoms: O_11  and  C_12
REMARK    5  A    between atoms: C_15  and  O_16
REMARK    6  A    between atoms: O_16  and  C_17
REMARK    7  A    between atoms: C_23  and  N_24
REMARK                            x       y       z     vdW  Elec       q    Type
REMARK                         _______ _______ _______ _____ _____    ______ ____
ROOT
ATOM      1  C   UNL     1       2.085   5.475  -3.281  0.00  0.00    +0.168 C 
ATOM      2  C   UNL     1       0.786   6.553  -3.029  0.00  0.00    +0.123 C 
ATOM      3  N   UNL     1      -0.001   6.041  -4.277  0.00  0.00    -0.130 NA
ATOM      4  C   UNL     1       0.180   5.376  -2.073  0.00  0.00    +0.043 C 
ATOM      5  C   UNL     1       1.149   5.383  -0.750  0.00  0.00    +0.123 C 
ATOM      6  N   UNL     1       2.277   4.398  -1.215  0.00  0.00    -0.130 NA
ATOM      7  C   UNL     1       1.902   6.866  -1.143  0.00  0.00    +0.168 C 
ATOM      8  C   UNL     1       3.116   6.328  -2.209  0.00  0.00    +0.209 C 
ATOM      9  O   UNL     1       3.021   7.623  -2.969  0.00  0.00    -0.218 OA
ENDROOT
BRANCH   1  10
ATOM     10  O   UNL     1       2.592   6.034  -4.589  0.00  0.00    -0.328 OA
BRANCH  10  13
ATOM     11  C   UNL     1       2.064   5.868  -6.737  0.00  0.00    +0.134 C 
ATOM     12  O   UNL     1       2.296   4.464  -6.296  0.00  0.00    -0.331 OA
ATOM     13  C   UNL     1       2.874   4.550  -4.900  0.00  0.00    +0.253 C 
ATOM     14  C   UNL     1       4.484   4.761  -5.537  0.00  0.00    +0.148 C 
ATOM     15  N   UNL     1       5.124   5.042  -4.140  0.00  0.00    -0.128 NA
ATOM     16  C   UNL     1       4.379   6.336  -5.933  0.00  0.00    +0.027 C 
ATOM     17  C   UNL     1       3.617   6.128  -7.214  0.00  0.00    +0.033 C 
BRANCH  11  18
ATOM     18  C   UNL     1       1.637   5.367  -8.327  0.00  0.00    +0.100 C 
ATOM     19  C   UNL     1       1.669   6.874  -8.949  0.00  0.00    +0.021 C 
BRANCH  18  21
ATOM     20  C   UNL     1      -0.194   5.376  -8.171  0.00  0.00    +0.107 C 
ATOM     21  N   UNL     1       0.084   5.382  -8.132  0.00  0.00    -0.215 NA
ENDBRANCH  18  21
ENDBRANCH  11  18
ENDBRANCH  10  13
ENDBRANCH   1  10
BRANCH   7  22
ATOM     22  O   UNL     1       2.760   6.768   0.096  0.00  0.00    -0.327 OA
BRANCH  22  23
ATOM     23  C   UNL     1       2.366   8.223   0.377  0.00  0.00    +0.268 C 
ATOM     24  C   UNL     1       2.655   8.000   2.065  0.00  0.00    +0.226 C 
ATOM     25  O   UNL     1       4.147   7.929   2.022  0.00  0.00    -0.216 OA
ATOM     26  C   UNL     1       2.530   9.657   2.493  0.00  0.00    +0.138 C 
ATOM     27  C   UNL     1       3.685  10.286   1.548  0.00  0.00    +0.171 C 
ATOM     28  O   UNL     1       3.253  11.627   1.687  0.00  0.00    -0.222 OA
ATOM     29  C   UNL     1       4.988  10.254   2.258  0.00  0.00    +0.037 C 
ATOM     30  C   UNL     1       3.562  10.009   0.176  0.00  0.00    +0.176 C 
ATOM     31  O   UNL     1       3.772   8.690   0.003  0.00  0.00    -0.326 OA
BRANCH  26  32
ATOM     32  N   UNL     1       1.377  10.016   1.483  0.00  0.00    -0.213 NA
ATOM     33  C   UNL     1       0.260  10.250   2.374  0.00  0.00    +0.108 C 
ENDBRANCH  26  32
ENDBRANCH  22  23
ENDBRANCH   7  22
TORSDOF 7
ENDMDL
MODEL 7
REMARK VINA RESULT:      -6.9      3.385      8.981
REMARK  Name = 
REMARK  7 active torsions:
REMARK  status: ('A' for Active; 'I' for Inactive)
REMARK    1  A    between atoms: N_2  and  C_3
REMARK    2  A    between atoms: C_3  and  C_5
REMARK    3  A    between atoms: C_10  and  O_11
REMARK    4  A    between atoms: O_11  and  C_12
REMARK    5  A    between atoms: C_15  and  O_16
REMARK    6  A    between atoms: O_16  and  C_17
REMARK    7  A    between atoms: C_23  and  N_24
REMARK                            x       y       z     vdW  Elec       q    Type
REMARK                         _______ _______ _______ _____ _____    ______ ____
ROOT
ATOM      1  C   UNL     1       1.983   6.286  -8.987  0.00  0.00    +0.168 C 
ATOM      2  C   UNL     1       2.244   4.913  -8.006  0.00  0.00    +0.123 C 
ATOM      3  N   UNL     1       3.310   4.310  -8.975  0.00  0.00    -0.130 NA
ATOM      4  C   UNL     1       3.352   5.842  -7.246  0.00  0.00    +0.043 C 
ATOM      5  C   UNL     1       2.464   6.938  -6.411  0.00  0.00    +0.123 C 
ATOM      6  N   UNL     1       2.298   8.059  -7.495  0.00  0.00    -0.130 NA
ATOM      7  C   UNL     1       0.984   6.115  -6.639  0.00  0.00    +0.168 C 
ATOM      8  C   UNL     1       0.533   6.701  -8.172  0.00  0.00    +0.209 C 
ATOM      9  O   UNL     1      -0.143   5.391  -8.473  0.00  0.00    -0.218 OA
ENDROOT
BRANCH   1  10
ATOM     10  O   UNL     1       1.387   5.595 -10.190  0.00  0.00    -0.328 OA
BRANCH  10  13
ATOM     11  C   UNL     1       2.844   5.468 -11.857  0.00  0.00    +0.134 C 
ATOM     12  O   UNL     1       2.526   6.919 -11.743  0.00  0.00    -0.331 OA
ATOM     13  C   UNL     1       1.372   7.024 -10.770  0.00  0.00    +0.253 C 
ATOM     14  C   UNL     1       0.218   6.731 -12.045  0.00  0.00    +0.148 C 
ATOM     15  N   UNL     1      -1.003   6.643 -11.075  0.00  0.00    -0.128 NA
ATOM     16  C   UNL     1       0.392   5.116 -12.157  0.00  0.00    +0.027 C 
ATOM     17  C   UNL     1       1.664   5.149 -12.960  0.00  0.00    +0.033 C 
BRANCH  11  18
ATOM     18  C   UNL     1       3.977   5.749 -13.121  0.00  0.00    +0.100 C 
ATOM     19  C   UNL     1       3.943   4.214 -13.668  0.00  0.00    +0.021 C 
BRANCH  18  21
ATOM     20  C   UNL     1       5.520   5.420 -12.178  0.00  0.00    +0.107 C 
ATOM     21  N   UNL     1       5.277   5.517 -12.281  0.00  0.00    -0.215 NA
ENDBRANCH  18  21
ENDBRANCH  11  18
ENDBRANCH  10  13
ENDBRANCH   1  10
BRANCH   7  22
ATOM     22  O   UNL     1       0.258   7.190  -5.866  0.00  0.00    -0.327 OA
BRANCH  22  23
ATOM     23  C   UNL     1      -0.131   6.090  -4.871  0.00  0.00    +0.268 C 
ATOM     24  C   UNL     1      -0.307   7.259  -3.612  0.00  0.00    +0.226 C 
ATOM     25  O   UNL     1      -1.564   7.907  -4.091  0.00  0.00    -0.216 OA
ATOM     26  C   UNL     1      -1.031   6.196  -2.476  0.00  0.00    +0.138 C 
ATOM     27  C   UNL     1      -2.326   5.711  -3.321  0.00  0.00    +0.171 C 
ATOM     28  O   UNL     1      -2.620   4.606  -2.487  0.00  0.00    -0.222 OA
ATOM     29  C   UNL     1      -3.456   6.646  -3.089  0.00  0.00    +0.037 C 
ATOM     30  C   UNL     1      -2.052   5.149  -4.579  0.00  0.00    +0.176 C 
ATOM     31  O   UNL     1      -1.574   6.129  -5.370  0.00  0.00    -0.326 OA
BRANCH  26  32
ATOM     32  N   UNL     1      -0.188   4.923  -2.859  0.00  0.00    -0.213 NA
ATOM     33  C   UNL     1       0.620   4.731  -1.673  0.00  0.00    +0.108 C 
ENDBRANCH  26  32
ENDBRANCH  22  23
ENDBRANCH   7  22
TORSDOF 7
ENDMDL
MODEL 8
REMARK VINA RESULT:      -6.7      3.363      8.617
REMARK  Name = 
REMARK  7 active torsions:
REMARK  status: ('A' for Active; 'I' for Inactive)
REMARK    1  A    between atoms: N_2  and  C_3
REMARK    2  A    between atoms: C_3  and  C_5
REMARK    3  A    between atoms: C_10  and  O_11
REMARK    4  A    between atoms: O_11  and  C_12
REMARK    5  A    between atoms: C_15  and  O_16
REMARK    6  A    between atoms: O_16  and  C_17
REMARK    7  A    between atoms: C_23  and  N_24
REMARK                            x       y       z     vdW  Elec       q    Type
REMARK                         _______ _______ _______ _____ _____    ______ ____
ROOT
ATOM      1  C   UNL     1       3.179   6.422  -9.027  0.00  0.00    +0.168 C 
ATOM      2  C   UNL     1       3.380   5.202  -7.850  0.00  0.00    +0.123 C 
ATOM      3  N   UNL     1       4.867   4.936  -8.247  0.00  0.00    -0.130 NA
ATOM      4  C   UNL     1       3.790   6.429  -6.853  0.00  0.00    +0.043 C 
ATOM      5  C   UNL     1       2.380   7.217  -6.573  0.00  0.00    +0.123 C 
ATOM      6  N   UNL     1       2.371   8.224  -7.775  0.00  0.00    -0.130 NA
ATOM      7  C   UNL     1       1.402   5.986  -7.241  0.00  0.00    +0.168 C 
ATOM      8  C   UNL     1       1.471   6.392  -8.893  0.00  0.00    +0.209 C 
ATOM      9  O   UNL     1       1.356   4.936  -9.255  0.00  0.00    -0.218 OA
ENDROOT
BRANCH   1  10
ATOM     10  O   UNL     1       3.333   5.570 -10.264  0.00  0.00    -0.328 OA
BRANCH  10  13
ATOM     11  C   UNL     1       5.363   5.864 -11.106  0.00  0.00    +0.134 C 
ATOM     12  O   UNL     1       4.666   7.159 -11.343  0.00  0.00    -0.331 OA
ATOM     13  C   UNL     1       3.213   6.927 -10.987  0.00  0.00    +0.253 C 
ATOM     14  C   UNL     1       2.881   6.299 -12.580  0.00  0.00    +0.148 C 
ATOM     15  N   UNL     1       1.423   5.865 -12.229  0.00  0.00    -0.128 NA
ATOM     16  C   UNL     1       3.497   4.806 -12.381  0.00  0.00    +0.027 C 
ATOM     17  C   UNL     1       4.938   5.205 -12.553  0.00  0.00    +0.033 C 
BRANCH  11  18
ATOM     18  C   UNL     1       6.830   6.455 -11.784  0.00  0.00    +0.100 C 
ATOM     19  C   UNL     1       7.564   4.999 -11.793  0.00  0.00    +0.021 C 
BRANCH  18  21
ATOM     20  C   UNL     1       7.687   6.989 -10.248  0.00  0.00    +0.107 C 
ATOM     21  N   UNL     1       7.509   6.891 -10.443  0.00  0.00    -0.215 NA
ENDBRANCH  18  21
ENDBRANCH  11  18
ENDBRANCH  10  13
ENDBRANCH   1  10
BRANCH   7  22
ATOM     22  O   UNL     1       0.164   6.802  -6.954  0.00  0.00    -0.327 OA
BRANCH  22  23
ATOM     23  C   UNL     1      -0.053   5.886  -5.743  0.00  0.00    +0.268 C 
ATOM     24  C   UNL     1      -0.103   7.252  -4.689  0.00  0.00    +0.226 C 
ATOM     25  O   UNL     1      -1.434   7.794  -5.098  0.00  0.00    -0.216 OA
ATOM     26  C   UNL     1      -0.636   6.394  -3.302  0.00  0.00    +0.138 C 
ATOM     27  C   UNL     1      -2.012   5.756  -3.870  0.00  0.00    +0.171 C 
ATOM     28  O   UNL     1      -2.157   4.808  -2.829  0.00  0.00    -0.222 OA
ATOM     29  C   UNL     1      -3.134   6.704  -3.651  0.00  0.00    +0.037 C 
ATOM     30  C   UNL     1      -1.886   4.988  -5.040  0.00  0.00    +0.176 C 
ATOM     31  O   UNL     1      -1.550   5.821  -6.043  0.00  0.00    -0.326 OA
BRANCH  26  32
ATOM     32  N   UNL     1       0.193   5.083  -3.573  0.00  0.00    -0.213 NA
ATOM     33  C   UNL     1       1.032   5.010  -2.395  0.00  0.00    +0.108 C 
ENDBRANCH  26  32
ENDBRANCH  22  23
ENDBRANCH   7  22
TORSDOF 7
ENDMDL
MODEL 9
REMARK VINA RESULT:      -6.6      2.598      4.016
REMARK  Name = 
REMARK  7 active torsions:
REMARK  status: ('A' for Active; 'I' for Inactive)
REMARK    1  A    between atoms: N_2  and  C_3
REMARK    2  A    between atoms: C_3  and  C_5
REMARK    3  A    between atoms: C_10  and  O_11
REMARK    4  A    between atoms: O_11  and  C_12
REMARK    5  A    between atoms: C_15  and  O_16
REMARK    6  A    between atoms: O_16  and  C_17
REMARK    7  A    between atoms: C_23  and  N_24
REMARK                            x       y       z     vdW  Elec       q    Type
REMARK                         _______ _______ _______ _____ _____    ______ ____
ROOT
ATOM      1  C   UNL     1       1.821   5.534  -5.987  0.00  0.00    +0.168 C 
ATOM      2  C   UNL     1       3.197   6.521  -5.771  0.00  0.00    +0.123 C 
ATOM      3  N   UNL     1       3.216   6.313  -4.223  0.00  0.00    -0.130 NA
ATOM      4  C   UNL     1       4.045   5.151  -6.038  0.00  0.00    +0.043 C 
ATOM      5  C   UNL     1       3.845   4.851  -7.638  0.00  0.00    +0.123 C 
ATOM      6  N   UNL     1       2.526   4.004  -7.608  0.00  0.00    -0.130 NA
ATOM      7  C   UNL     1       3.176   6.386  -7.980  0.00  0.00    +0.168 C 
ATOM      8  C   UNL     1       1.545   6.114  -7.576  0.00  0.00    +0.209 C 
ATOM      9  O   UNL     1       1.413   7.551  -7.149  0.00  0.00    -0.218 OA
ENDROOT
BRANCH   1  10
ATOM     10  O   UNL     1       0.815   6.384  -5.249  0.00  0.00    -0.328 OA
BRANCH  10  13
ATOM     11  C   UNL     1       0.451   6.153  -3.073  0.00  0.00    +0.134 C 
ATOM     12  O   UNL     1       0.009   4.861  -3.669  0.00  0.00    -0.331 OA
ATOM     13  C   UNL     1       0.031   5.058  -5.169  0.00  0.00    +0.253 C 
ATOM     14  C   UNL     1      -1.570   5.751  -5.141  0.00  0.00    +0.148 C 
ATOM     15  N   UNL     1      -1.547   6.152  -6.650  0.00  0.00    -0.128 NA
ATOM     16  C   UNL     1      -1.176   7.241  -4.620  0.00  0.00    +0.027 C 
ATOM     17  C   UNL     1      -1.028   6.869  -3.170  0.00  0.00    +0.033 C 
BRANCH  11  18
ATOM     18  C   UNL     1       0.106   5.609  -1.477  0.00  0.00    +0.100 C 
ATOM     19  C   UNL     1       0.575   6.998  -0.764  0.00  0.00    +0.021 C 
BRANCH  18  21
ATOM     20  C   UNL     1       1.686   4.753  -1.094  0.00  0.00    +0.107 C 
ATOM     21  N   UNL     1       1.474   4.901  -1.206  0.00  0.00    -0.215 NA
ENDBRANCH  18  21
ENDBRANCH  11  18
ENDBRANCH  10  13
ENDBRANCH   1  10
BRANCH   7  22
ATOM     22  O   UNL     1       3.020   6.003  -9.432  0.00  0.00    -0.327 OA
BRANCH  22  23
ATOM     23  C   UNL     1       4.504   6.355  -9.594  0.00  0.00    +0.268 C 
ATOM     24  C   UNL     1       4.739   4.992 -10.629  0.00  0.00    +0.226 C 
ATOM     25  O   UNL     1       4.013   5.503 -11.830  0.00  0.00    -0.216 OA
ATOM     26  C   UNL     1       6.322   5.417 -11.135  0.00  0.00    +0.138 C 
ATOM     27  C   UNL     1       6.037   6.880 -11.772  0.00  0.00    +0.171 C 
ATOM     28  O   UNL     1       7.395   7.277 -11.802  0.00  0.00    -0.222 OA
ATOM     29  C   UNL     1       5.671   6.742 -13.204  0.00  0.00    +0.037 C 
ATOM     30  C   UNL     1       5.413   7.802 -10.915  0.00  0.00    +0.176 C 
ATOM     31  O   UNL     1       4.159   7.366 -10.687  0.00  0.00    -0.326 OA
BRANCH  26  32
ATOM     32  N   UNL     1       6.799   6.008  -9.756  0.00  0.00    -0.213 NA
ATOM     33  C   UNL     1       7.976   5.211  -9.480  0.00  0.00    +0.108 C 
ENDBRANCH  26  32
ENDBRANCH  22  23
ENDBRANCH   7  22
TORSDOF 7
ENDMDL
