MODEL 1
REMARK VINA RESULT:      -9.0      0.000      0.000
REMARK  Name = 
REMARK  0 active torsions:
REMARK  status: ('A' for Active; 'I' for Inactive)
REMARK                            x       y       z     vdW  Elec       q    Type
REMARK                         _______ _______ _______ _____ _____    ______ ____
ROOT
ATOM      1  C   UNL     1       5.020   7.418 -10.467  0.00  0.00    +0.033 C 
ATOM      2  C   UNL     1       4.442   6.007 -10.476  0.00  0.00    +0.127 C 
ATOM      3  C   UNL     1       4.096   5.507  -9.125  0.00  0.00    +0.026 C 
ATOM      4  C   UNL     1       3.218   6.830  -8.729  0.00  0.00    +0.002 C 
ATOM      5  C   UNL     1       2.388   5.979  -7.517  0.00  0.00    +0.000 C 
ATOM      6  C   UNL     1       3.615   6.310  -6.387  0.00  0.00    +0.000 C 
ATOM      7  C   UNL     1       4.439   4.959  -6.812  0.00  0.00    +0.000 C 
ATOM      8  C   UNL     1       2.832   5.568  -5.164  0.00  0.00    +0.005 C 
ATOM      9  C   UNL     1       1.948   6.833  -4.590  0.00  0.00    +0.008 C 
ATOM     10  C   UNL     1       1.022   5.849  -3.642  0.00  0.00    +0.069 C 
ATOM     11  C   UNL     1       1.896   5.482  -2.511  0.00  0.00    +0.172 C 
ATOM     12  C   UNL     1       3.305   5.245  -2.748  0.00  0.00    +0.055 C 
ATOM     13  C   UNL     1       4.119   5.386  -1.700  0.00  0.00    +0.233 C 
ATOM     14  O   UNL     1       3.701   5.937  -0.491  0.00  0.00    -0.283 OA
ATOM     15  O   UNL     1       1.413   5.497  -1.351  0.00  0.00    -0.292 OA
ATOM     16  C   UNL     1       0.853   6.755  -5.822  0.00  0.00    +0.000 C 
ATOM     17  C   UNL     1       1.958   4.527  -5.613  0.00  0.00    +0.000 C 
ATOM     18  C   UNL     1       3.850   5.249  -4.121  0.00  0.00    +0.033 C 
ATOM     19  C   UNL     1       1.547   7.270  -7.047  0.00  0.00    +0.000 C 
ATOM     20  C   UNL     1       2.122   6.432  -9.874  0.00  0.00    +0.003 C 
ATOM     21  C   UNL     1       3.141   4.373  -9.268  0.00  0.00    +0.002 C 
ATOM     22  C   UNL     1       5.137   5.384  -8.106  0.00  0.00    +0.002 C 
ATOM     23  C   UNL     1       3.034   6.166 -11.054  0.00  0.00    +0.030 C 
ATOM     24  O   UNL     1       5.179   5.149 -11.266  0.00  0.00    -0.226 OA
ENDROOT
TORSDOF 0
ENDMDL
MODEL 2
REMARK VINA RESULT:      -9.0      2.328      7.472
REMARK  Name = 
REMARK  0 active torsions:
REMARK  status: ('A' for Active; 'I' for Inactive)
REMARK                            x       y       z     vdW  Elec       q    Type
REMARK                         _______ _______ _______ _____ _____    ______ ____
ROOT
ATOM      1  C   UNL     1      -0.985   7.584  -4.928  0.00  0.00    +0.033 C 
ATOM      2  C   UNL     1      -0.466   6.152  -4.849  0.00  0.00    +0.127 C 
ATOM      3  C   UNL     1       0.017   5.632  -6.149  0.00  0.00    +0.026 C 
ATOM      4  C   UNL     1       0.985   6.918  -6.443  0.00  0.00    +0.002 C 
ATOM      5  C   UNL     1       1.918   6.029  -7.547  0.00  0.00    +0.000 C 
ATOM      6  C   UNL     1       0.845   6.398  -8.813  0.00  0.00    +0.000 C 
ATOM      7  C   UNL     1      -0.073   5.081  -8.485  0.00  0.00    +0.000 C 
ATOM      8  C   UNL     1       1.737   5.619  -9.935  0.00  0.00    +0.005 C 
ATOM      9  C   UNL     1       2.729   6.846 -10.404  0.00  0.00    +0.008 C 
ATOM     10  C   UNL     1       3.722   5.823 -11.235  0.00  0.00    +0.069 C 
ATOM     11  C   UNL     1       2.973   5.481 -12.460  0.00  0.00    +0.172 C 
ATOM     12  C   UNL     1       1.538   5.298 -12.389  0.00  0.00    +0.055 C 
ATOM     13  C   UNL     1       0.858   5.462 -13.525  0.00  0.00    +0.233 C 
ATOM     14  O   UNL     1       1.434   5.989 -14.678  0.00  0.00    -0.283 OA
ATOM     15  O   UNL     1       3.588   5.470 -13.556  0.00  0.00    -0.292 OA
ATOM     16  C   UNL     1       3.668   6.736  -9.052  0.00  0.00    +0.000 C 
ATOM     17  C   UNL     1       2.513   4.549  -9.384  0.00  0.00    +0.000 C 
ATOM     18  C   UNL     1       0.837   5.331 -11.090  0.00  0.00    +0.033 C 
ATOM     19  C   UNL     1       2.856   7.284  -7.918  0.00  0.00    +0.000 C 
ATOM     20  C   UNL     1       1.924   6.487  -5.177  0.00  0.00    +0.003 C 
ATOM     21  C   UNL     1       0.905   4.464  -5.893  0.00  0.00    +0.002 C 
ATOM     22  C   UNL     1      -0.901   5.541  -7.283  0.00  0.00    +0.002 C 
ATOM     23  C   UNL     1       0.871   6.263  -4.111  0.00  0.00    +0.030 C 
ATOM     24  O   UNL     1      -1.322   5.328  -4.149  0.00  0.00    -0.226 OA
ENDROOT
TORSDOF 0
ENDMDL
MODEL 3
REMARK VINA RESULT:      -8.9      1.755      2.302
REMARK  Name = 
REMARK  0 active torsions:
REMARK  status: ('A' for Active; 'I' for Inactive)
REMARK                            x       y       z     vdW  Elec       q    Type
REMARK                         _______ _______ _______ _____ _____    ______ ____
ROOT
ATOM      1  C   UNL     1       0.670   7.134 -11.307  0.00  0.00    +0.033 C 
ATOM      2  C   UNL     1       1.455   5.847 -11.072  0.00  0.00    +0.127 C 
ATOM      3  C   UNL     1       2.006   5.739  -9.702  0.00  0.00    +0.026 C 
ATOM      4  C   UNL     1       0.578   6.061  -8.971  0.00  0.00    +0.002 C 
ATOM      5  C   UNL     1       1.099   5.344  -7.523  0.00  0.00    +0.000 C 
ATOM      6  C   UNL     1       1.820   6.798  -7.015  0.00  0.00    +0.000 C 
ATOM      7  C   UNL     1       3.233   6.411  -7.749  0.00  0.00    +0.000 C 
ATOM      8  C   UNL     1       2.285   6.186  -5.577  0.00  0.00    +0.005 C 
ATOM      9  C   UNL     1       0.945   6.526  -4.683  0.00  0.00    +0.008 C 
ATOM     10  C   UNL     1       1.448   5.572  -3.433  0.00  0.00    +0.069 C 
ATOM     11  C   UNL     1       2.521   6.343  -2.777  0.00  0.00    +0.172 C 
ATOM     12  C   UNL     1       3.434   7.124  -3.586  0.00  0.00    +0.055 C 
ATOM     13  C   UNL     1       4.052   8.138  -2.978  0.00  0.00    +0.233 C 
ATOM     14  O   UNL     1       3.701   8.581  -1.706  0.00  0.00    -0.283 OA
ATOM     15  O   UNL     1       2.542   6.392  -1.521  0.00  0.00    -0.292 OA
ATOM     16  C   UNL     1       0.072   5.289  -5.338  0.00  0.00    +0.000 C 
ATOM     17  C   UNL     1       2.497   4.770  -5.616  0.00  0.00    +0.000 C 
ATOM     18  C   UNL     1       3.378   7.060  -5.060  0.00  0.00    +0.033 C 
ATOM     19  C   UNL     1      -0.264   5.697  -6.741  0.00  0.00    +0.000 C 
ATOM     20  C   UNL     1      -0.021   4.653  -9.547  0.00  0.00    +0.003 C 
ATOM     21  C   UNL     1       2.327   4.310  -9.430  0.00  0.00    +0.002 C 
ATOM     22  C   UNL     1       2.951   6.743  -9.216  0.00  0.00    +0.002 C 
ATOM     23  C   UNL     1       0.390   4.749 -11.002  0.00  0.00    +0.030 C 
ATOM     24  O   UNL     1       2.336   5.582 -12.100  0.00  0.00    -0.226 OA
ENDROOT
TORSDOF 0
ENDMDL
MODEL 4
REMARK VINA RESULT:      -8.8      1.885      7.002
REMARK  Name = 
REMARK  0 active torsions:
REMARK  status: ('A' for Active; 'I' for Inactive)
REMARK                            x       y       z     vdW  Elec       q    Type
REMARK                         _______ _______ _______ _____ _____    ______ ____
ROOT
ATOM      1  C   UNL     1       3.524   7.508  -3.557  0.00  0.00    +0.033 C 
ATOM      2  C   UNL     1       2.972   6.095  -3.720  0.00  0.00    +0.127 C 
ATOM      3  C   UNL     1       2.460   5.821  -5.083  0.00  0.00    +0.026 C 
ATOM      4  C   UNL     1       3.821   6.341  -5.830  0.00  0.00    +0.002 C 
ATOM      5  C   UNL     1       3.443   5.468  -7.236  0.00  0.00    +0.000 C 
ATOM      6  C   UNL     1       2.491   6.748  -7.824  0.00  0.00    +0.000 C 
ATOM      7  C   UNL     1       1.157   6.167  -7.071  0.00  0.00    +0.000 C 
ATOM      8  C   UNL     1       2.151   5.989  -9.226  0.00  0.00    +0.005 C 
ATOM      9  C   UNL     1       3.422   6.503 -10.137  0.00  0.00    +0.008 C 
ATOM     10  C   UNL     1       3.102   5.411 -11.332  0.00  0.00    +0.069 C 
ATOM     11  C   UNL     1       1.919   5.951 -12.031  0.00  0.00    +0.172 C 
ATOM     12  C   UNL     1       0.879   6.607 -11.267  0.00  0.00    +0.055 C 
ATOM     13  C   UNL     1       0.103   7.467 -11.930  0.00  0.00    +0.233 C 
ATOM     14  O   UNL     1       0.387   7.893 -13.225  0.00  0.00    -0.283 OA
ATOM     15  O   UNL     1       1.903   5.927 -13.288  0.00  0.00    -0.292 OA
ATOM     16  C   UNL     1       4.486   5.470  -9.414  0.00  0.00    +0.000 C 
ATOM     17  C   UNL     1       2.182   4.562  -9.109  0.00  0.00    +0.000 C 
ATOM     18  C   UNL     1       0.931   6.635  -9.792  0.00  0.00    +0.033 C 
ATOM     19  C   UNL     1       4.734   6.005  -8.035  0.00  0.00    +0.000 C 
ATOM     20  C   UNL     1       4.644   5.089  -5.176  0.00  0.00    +0.003 C 
ATOM     21  C   UNL     1       2.390   4.346  -5.276  0.00  0.00    +0.002 C 
ATOM     22  C   UNL     1       1.363   6.621  -5.624  0.00  0.00    +0.002 C 
ATOM     23  C   UNL     1       4.208   5.192  -3.729  0.00  0.00    +0.030 C 
ATOM     24  O   UNL     1       2.138   5.740  -2.680  0.00  0.00    -0.226 OA
ENDROOT
TORSDOF 0
ENDMDL
MODEL 5
REMARK VINA RESULT:      -8.8      2.541      4.609
REMARK  Name = 
REMARK  0 active torsions:
REMARK  status: ('A' for Active; 'I' for Inactive)
REMARK                            x       y       z     vdW  Elec       q    Type
REMARK                         _______ _______ _______ _____ _____    ______ ____
ROOT
ATOM      1  C   UNL     1       6.620   4.884 -13.023  0.00  0.00    +0.033 C 
ATOM      2  C   UNL     1       6.515   6.361 -12.655  0.00  0.00    +0.127 C 
ATOM      3  C   UNL     1       5.417   6.650 -11.705  0.00  0.00    +0.026 C 
ATOM      4  C   UNL     1       5.871   5.494 -10.639  0.00  0.00    +0.002 C 
ATOM      5  C   UNL     1       5.024   6.251  -9.378  0.00  0.00    +0.000 C 
ATOM      6  C   UNL     1       3.586   5.453  -9.811  0.00  0.00    +0.000 C 
ATOM      7  C   UNL     1       3.173   6.653 -10.847  0.00  0.00    +0.000 C 
ATOM      8  C   UNL     1       2.736   6.093  -8.575  0.00  0.00    +0.005 C 
ATOM      9  C   UNL     1       3.029   4.959  -7.418  0.00  0.00    +0.008 C 
ATOM     10  C   UNL     1       2.411   5.914  -6.222  0.00  0.00    +0.069 C 
ATOM     11  C   UNL     1       0.948   5.860  -6.413  0.00  0.00    +0.172 C 
ATOM     12  C   UNL     1       0.406   5.833  -7.756  0.00  0.00    +0.055 C 
ATOM     13  C   UNL     1      -0.818   5.321  -7.896  0.00  0.00    +0.233 C 
ATOM     14  O   UNL     1      -1.474   4.648  -6.868  0.00  0.00    -0.283 OA
ATOM     15  O   UNL     1       0.216   5.724  -5.401  0.00  0.00    -0.292 OA
ATOM     16  C   UNL     1       4.559   5.506  -7.129  0.00  0.00    +0.000 C 
ATOM     17  C   UNL     1       3.242   7.364  -8.150  0.00  0.00    +0.000 C 
ATOM     18  C   UNL     1       1.291   5.979  -8.929  0.00  0.00    +0.033 C 
ATOM     19  C   UNL     1       5.390   5.103  -8.310  0.00  0.00    +0.000 C 
ATOM     20  C   UNL     1       7.240   6.331 -10.331  0.00  0.00    +0.003 C 
ATOM     21  C   UNL     1       5.680   7.967 -11.061  0.00  0.00    +0.002 C 
ATOM     22  C   UNL     1       4.035   6.348 -12.074  0.00  0.00    +0.002 C 
ATOM     23  C   UNL     1       7.715   6.621 -11.740  0.00  0.00    +0.030 C 
ATOM     24  O   UNL     1       6.585   7.178 -13.764  0.00  0.00    -0.226 OA
ENDROOT
TORSDOF 0
ENDMDL
MODEL 6
REMARK VINA RESULT:      -8.6      1.741      3.184
REMARK  Name = 
REMARK  0 active torsions:
REMARK  status: ('A' for Active; 'I' for Inactive)
REMARK                            x       y       z     vdW  Elec       q    Type
REMARK                         _______ _______ _______ _____ _____    ______ ____
ROOT
ATOM      1  C   UNL     1       0.472   3.963 -10.704  0.00  0.00    +0.033 C 
ATOM      2  C   UNL     1       0.584   5.474 -10.524  0.00  0.00    +0.127 C 
ATOM      3  C   UNL     1       0.832   5.880  -9.122  0.00  0.00    +0.026 C 
ATOM      4  C   UNL     1       2.096   4.860  -8.922  0.00  0.00    +0.002 C 
ATOM      5  C   UNL     1       2.687   5.766  -7.614  0.00  0.00    +0.000 C 
ATOM      6  C   UNL     1       1.686   4.926  -6.527  0.00  0.00    +0.000 C 
ATOM      7  C   UNL     1       0.463   5.993  -6.751  0.00  0.00    +0.000 C 
ATOM      8  C   UNL     1       2.266   5.714  -5.222  0.00  0.00    +0.005 C 
ATOM      9  C   UNL     1       3.527   4.728  -4.839  0.00  0.00    +0.008 C 
ATOM     10  C   UNL     1       4.155   5.823  -3.775  0.00  0.00    +0.069 C 
ATOM     11  C   UNL     1       3.273   5.750  -2.594  0.00  0.00    +0.172 C 
ATOM     12  C   UNL     1       1.849   5.561  -2.779  0.00  0.00    +0.055 C 
ATOM     13  C   UNL     1       1.176   5.040  -1.751  0.00  0.00    +0.233 C 
ATOM     14  O   UNL     1       1.809   4.498  -0.635  0.00  0.00    -0.283 OA
ATOM     15  O   UNL     1       3.799   5.739  -1.452  0.00  0.00    -0.292 OA
ATOM     16  C   UNL     1       4.476   5.301  -6.061  0.00  0.00    +0.000 C 
ATOM     17  C   UNL     1       2.750   7.025  -5.533  0.00  0.00    +0.000 C 
ATOM     18  C   UNL     1       1.258   5.562  -4.133  0.00  0.00    +0.033 C 
ATOM     19  C   UNL     1       3.909   4.756  -7.337  0.00  0.00    +0.000 C 
ATOM     20  C   UNL     1       2.952   5.725 -10.014  0.00  0.00    +0.003 C 
ATOM     21  C   UNL     1       1.380   7.265  -9.117  0.00  0.00    +0.002 C 
ATOM     22  C   UNL     1      -0.139   5.539  -8.083  0.00  0.00    +0.002 C 
ATOM     23  C   UNL     1       1.939   5.840 -11.135  0.00  0.00    +0.030 C 
ATOM     24  O   UNL     1      -0.424   6.151 -11.179  0.00  0.00    -0.226 OA
ENDROOT
TORSDOF 0
ENDMDL
MODEL 7
REMARK VINA RESULT:      -8.5      1.043      1.200
REMARK  Name = 
REMARK  0 active torsions:
REMARK  status: ('A' for Active; 'I' for Inactive)
REMARK                            x       y       z     vdW  Elec       q    Type
REMARK                         _______ _______ _______ _____ _____    ______ ____
ROOT
ATOM      1  C   UNL     1       6.189   7.512 -11.105  0.00  0.00    +0.033 C 
ATOM      2  C   UNL     1       5.545   6.132 -11.199  0.00  0.00    +0.127 C 
ATOM      3  C   UNL     1       5.011   5.646  -9.906  0.00  0.00    +0.026 C 
ATOM      4  C   UNL     1       4.160   7.012  -9.606  0.00  0.00    +0.002 C 
ATOM      5  C   UNL     1       3.145   6.200  -8.514  0.00  0.00    +0.000 C 
ATOM      6  C   UNL     1       4.239   6.462  -7.239  0.00  0.00    +0.000 C 
ATOM      7  C   UNL     1       5.039   5.072  -7.574  0.00  0.00    +0.000 C 
ATOM      8  C   UNL     1       3.275   5.756  -6.129  0.00  0.00    +0.005 C 
ATOM      9  C   UNL     1       2.393   7.063  -5.654  0.00  0.00    +0.008 C 
ATOM     10  C   UNL     1       1.309   6.125  -4.837  0.00  0.00    +0.069 C 
ATOM     11  C   UNL     1       2.018   5.708  -3.611  0.00  0.00    +0.172 C 
ATOM     12  C   UNL     1       3.431   5.399  -3.677  0.00  0.00    +0.055 C 
ATOM     13  C   UNL     1       4.116   5.493  -2.536  0.00  0.00    +0.233 C 
ATOM     14  O   UNL     1       3.582   6.060  -1.381  0.00  0.00    -0.283 OA
ATOM     15  O   UNL     1       1.397   5.743  -2.519  0.00  0.00    -0.292 OA
ATOM     16  C   UNL     1       1.455   7.047  -7.012  0.00  0.00    +0.000 C 
ATOM     17  C   UNL     1       2.410   4.764  -6.692  0.00  0.00    +0.000 C 
ATOM     18  C   UNL     1       4.139   5.380  -4.972  0.00  0.00    +0.033 C 
ATOM     19  C   UNL     1       2.320   7.530  -8.137  0.00  0.00    +0.000 C 
ATOM     20  C   UNL     1       3.193   6.675 -10.881  0.00  0.00    +0.003 C 
ATOM     21  C   UNL     1       4.024   4.564 -10.176  0.00  0.00    +0.002 C 
ATOM     22  C   UNL     1       5.911   5.465  -8.769  0.00  0.00    +0.002 C 
ATOM     23  C   UNL     1       4.228   6.367 -11.943  0.00  0.00    +0.030 C 
ATOM     24  O   UNL     1       6.329   5.241 -11.902  0.00  0.00    -0.226 OA
ENDROOT
TORSDOF 0
ENDMDL
MODEL 8
REMARK VINA RESULT:      -8.5      2.334      7.144
REMARK  Name = 
REMARK  0 active torsions:
REMARK  status: ('A' for Active; 'I' for Inactive)
REMARK                            x       y       z     vdW  Elec       q    Type
REMARK                         _______ _______ _______ _____ _____    ______ ____
ROOT
ATOM      1  C   UNL     1       2.956   9.109  -0.087  0.00  0.00    +0.033 C 
ATOM      2  C   UNL     1       3.246   7.623   0.099  0.00  0.00    +0.127 C 
ATOM      3  C   UNL     1       2.931   6.811  -1.099  0.00  0.00    +0.026 C 
ATOM      4  C   UNL     1       3.782   7.767  -2.120  0.00  0.00    +0.002 C 
ATOM      5  C   UNL     1       3.901   6.523  -3.268  0.00  0.00    +0.000 C 
ATOM      6  C   UNL     1       2.396   6.944  -3.940  0.00  0.00    +0.000 C 
ATOM      7  C   UNL     1       1.601   5.953  -2.906  0.00  0.00    +0.000 C 
ATOM      8  C   UNL     1       2.486   5.813  -5.112  0.00  0.00    +0.005 C 
ATOM      9  C   UNL     1       3.261   6.680  -6.277  0.00  0.00    +0.008 C 
ATOM     10  C   UNL     1       3.550   5.334  -7.188  0.00  0.00    +0.069 C 
ATOM     11  C   UNL     1       2.247   5.002  -7.796  0.00  0.00    +0.172 C 
ATOM     12  C   UNL     1       1.034   5.183  -7.025  0.00  0.00    +0.055 C 
ATOM     13  C   UNL     1      -0.096   5.332  -7.717  0.00  0.00    +0.233 C 
ATOM     14  O   UNL     1      -0.116   5.525  -9.096  0.00  0.00    -0.283 OA
ATOM     15  O   UNL     1       2.218   4.678  -9.010  0.00  0.00    -0.292 OA
ATOM     16  C   UNL     1       4.729   6.552  -5.536  0.00  0.00    +0.000 C 
ATOM     17  C   UNL     1       3.281   4.684  -4.736  0.00  0.00    +0.000 C 
ATOM     18  C   UNL     1       1.097   5.580  -5.604  0.00  0.00    +0.033 C 
ATOM     19  C   UNL     1       4.682   7.445  -4.333  0.00  0.00    +0.000 C 
ATOM     20  C   UNL     1       5.163   7.319  -1.371  0.00  0.00    +0.003 C 
ATOM     21  C   UNL     1       3.660   5.516  -1.001  0.00  0.00    +0.002 C 
ATOM     22  C   UNL     1       1.564   6.774  -1.615  0.00  0.00    +0.002 C 
ATOM     23  C   UNL     1       4.773   7.518   0.080  0.00  0.00    +0.030 C 
ATOM     24  O   UNL     1       2.758   7.144   1.297  0.00  0.00    -0.226 OA
ENDROOT
TORSDOF 0
ENDMDL
MODEL 9
REMARK VINA RESULT:      -7.9      2.436      3.663
REMARK  Name = 
REMARK  0 active torsions:
REMARK  status: ('A' for Active; 'I' for Inactive)
REMARK                            x       y       z     vdW  Elec       q    Type
REMARK                         _______ _______ _______ _____ _____    ______ ____
ROOT
ATOM      1  C   UNL     1       2.427   7.484  -8.237  0.00  0.00    +0.033 C 
ATOM      2  C   UNL     1       2.441   5.999  -7.890  0.00  0.00    +0.127 C 
ATOM      3  C   UNL     1       2.049   5.722  -6.489  0.00  0.00    +0.026 C 
ATOM      4  C   UNL     1       0.675   6.608  -6.570  0.00  0.00    +0.002 C 
ATOM      5  C   UNL     1       0.006   5.787  -5.243  0.00  0.00    +0.000 C 
ATOM      6  C   UNL     1       0.766   6.848  -4.152  0.00  0.00    +0.000 C 
ATOM      7  C   UNL     1       2.106   5.908  -4.095  0.00  0.00    +0.000 C 
ATOM      8  C   UNL     1       0.096   6.145  -2.842  0.00  0.00    +0.005 C 
ATOM      9  C   UNL     1      -1.296   7.018  -2.738  0.00  0.00    +0.008 C 
ATOM     10  C   UNL     1      -1.949   5.981  -1.632  0.00  0.00    +0.069 C 
ATOM     11  C   UNL     1      -1.244   6.280  -0.370  0.00  0.00    +0.172 C 
ATOM     12  C   UNL     1       0.166   6.607  -0.403  0.00  0.00    +0.055 C 
ATOM     13  C   UNL     1       0.640   7.309   0.628  0.00  0.00    +0.233 C 
ATOM     14  O   UNL     1      -0.186   7.893   1.585  0.00  0.00    -0.283 OA
ATOM     15  O   UNL     1      -1.917   6.354   0.689  0.00  0.00    -0.292 OA
ATOM     16  C   UNL     1      -2.012   6.212  -3.987  0.00  0.00    +0.000 C 
ATOM     17  C   UNL     1      -0.211   4.762  -3.047  0.00  0.00    +0.000 C 
ATOM     18  C   UNL     1       0.929   6.527  -1.665  0.00  0.00    +0.033 C 
ATOM     19  C   UNL     1      -1.335   6.677  -5.242  0.00  0.00    +0.000 C 
ATOM     20  C   UNL     1       0.062   5.539  -7.644  0.00  0.00    +0.003 C 
ATOM     21  C   UNL     1       1.643   4.292  -6.382  0.00  0.00    +0.002 C 
ATOM     22  C   UNL     1       2.833   6.280  -5.389  0.00  0.00    +0.002 C 
ATOM     23  C   UNL     1       1.222   5.419  -8.612  0.00  0.00    +0.030 C 
ATOM     24  O   UNL     1       3.589   5.374  -8.330  0.00  0.00    -0.226 OA
ENDROOT
TORSDOF 0
ENDMDL
