MODEL 1
REMARK VINA RESULT:      -6.9      0.000      0.000
REMARK  Name = 
REMARK  2 active torsions:
REMARK  status: ('A' for Active; 'I' for Inactive)
REMARK    1  A    between atoms: C_2  and  C_3
REMARK    2  A    between atoms: C_22  and  C_23
REMARK                            x       y       z     vdW  Elec       q    Type
REMARK                         _______ _______ _______ _____ _____    ______ ____
ROOT
ATOM      1  C   UNL     1       0.967   5.511  -6.724  0.00  0.00    +0.180 C 
ATOM      2  C   UNL     1       1.033   6.091  -5.354  0.00  0.00    +0.040 C 
ATOM      3  C   UNL     1       2.651   6.137  -5.352  0.00  0.00    +0.004 C 
ATOM      4  C   UNL     1       2.693   7.219  -4.069  0.00  0.00    +0.004 C 
ATOM      5  C   UNL     1       3.007   5.957  -3.016  0.00  0.00    +0.022 C 
ATOM      6  C   UNL     1       1.483   5.524  -2.968  0.00  0.00    -0.044 C 
ATOM      7  C   UNL     1       1.068   4.907  -1.860  0.00  0.00    -0.009 C 
ATOM      8  C   UNL     1       2.851   6.846  -1.586  0.00  0.00    +0.023 C 
ATOM      9  C   UNL     1       3.597   8.178  -2.051  0.00  0.00    -0.041 C 
ATOM     10  C   UNL     1       3.709   8.899  -0.926  0.00  0.00    +0.029 C 
ATOM     11  C   UNL     1       3.734   8.201   0.372  0.00  0.00    +0.173 C 
ATOM     12  C   UNL     1       4.505   6.917   0.310  0.00  0.00    +0.069 C 
ATOM     13  O   UNL     1       3.008   8.499   1.337  0.00  0.00    -0.291 OA
ATOM     14  C   UNL     1       4.724   8.022  -3.009  0.00  0.00    +0.022 C 
ATOM     15  C   UNL     1       4.230   6.217  -0.994  0.00  0.00    +0.012 C 
ATOM     16  C   UNL     1       4.253   7.509  -4.317  0.00  0.00    +0.005 C 
ATOM     17  C   UNL     1       2.607   7.299  -6.474  0.00  0.00    +0.004 C 
ATOM     18  C   UNL     1       0.783   5.186  -4.217  0.00  0.00    +0.025 C 
ATOM     19  C   UNL     1       1.867   6.458  -7.512  0.00  0.00    +0.043 C 
ATOM     20  O   UNL     1      -0.280   5.514  -7.304  0.00  0.00    -0.212 OA
ENDROOT
BRANCH   1  22
ATOM     21  C   UNL     1       2.155   3.155  -6.764  0.00  0.00    -0.012 C 
ATOM     22  C   UNL     1       1.512   4.155  -6.706  0.00  0.00    -0.049 C 
ENDBRANCH   1  22
BRANCH   2  23
ATOM     23  C   UNL     1       0.516   7.476  -5.232  0.00  0.00    +0.004 C 
ATOM     24  C   UNL     1      -0.921   7.593  -4.826  0.00  0.00    +0.000 C 
ENDBRANCH   2  23
TORSDOF 2
ENDMDL
MODEL 2
REMARK VINA RESULT:      -6.7      1.442      6.177
REMARK  Name = 
REMARK  2 active torsions:
REMARK  status: ('A' for Active; 'I' for Inactive)
REMARK    1  A    between atoms: C_2  and  C_3
REMARK    2  A    between atoms: C_22  and  C_23
REMARK                            x       y       z     vdW  Elec       q    Type
REMARK                         _______ _______ _______ _____ _____    ______ ____
ROOT
ATOM      1  C   UNL     1       3.493   7.436   0.291  0.00  0.00    +0.180 C 
ATOM      2  C   UNL     1       3.267   6.586  -0.911  0.00  0.00    +0.040 C 
ATOM      3  C   UNL     1       3.780   7.732  -1.932  0.00  0.00    +0.004 C 
ATOM      4  C   UNL     1       3.996   6.630  -3.180  0.00  0.00    +0.004 C 
ATOM      5  C   UNL     1       2.528   7.092  -3.840  0.00  0.00    +0.022 C 
ATOM      6  C   UNL     1       1.707   6.201  -2.817  0.00  0.00    -0.044 C 
ATOM      7  C   UNL     1       0.515   5.762  -3.225  0.00  0.00    -0.009 C 
ATOM      8  C   UNL     1       2.454   5.888  -5.025  0.00  0.00    +0.023 C 
ATOM      9  C   UNL     1       3.984   5.905  -5.479  0.00  0.00    -0.041 C 
ATOM     10  C   UNL     1       4.012   5.116  -6.562  0.00  0.00    +0.029 C 
ATOM     11  C   UNL     1       2.786   4.959  -7.365  0.00  0.00    +0.173 C 
ATOM     12  C   UNL     1       2.015   6.240  -7.478  0.00  0.00    +0.069 C 
ATOM     13  O   UNL     1       2.311   3.860  -7.703  0.00  0.00    -0.291 OA
ATOM     14  C   UNL     1       4.688   7.215  -5.432  0.00  0.00    +0.022 C 
ATOM     15  C   UNL     1       2.048   6.975  -6.165  0.00  0.00    +0.012 C 
ATOM     16  C   UNL     1       4.816   7.709  -4.041  0.00  0.00    +0.005 C 
ATOM     17  C   UNL     1       5.282   7.549  -1.364  0.00  0.00    +0.004 C 
ATOM     18  C   UNL     1       1.877   6.409  -1.371  0.00  0.00    +0.025 C 
ATOM     19  C   UNL     1       4.927   7.911   0.077  0.00  0.00    +0.043 C 
ATOM     20  O   UNL     1       3.429   6.778   1.497  0.00  0.00    -0.212 OA
ENDROOT
BRANCH   1  22
ATOM     21  C   UNL     1       1.860   9.499   0.490  0.00  0.00    -0.012 C 
ATOM     22  C   UNL     1       2.556   8.557   0.277  0.00  0.00    -0.049 C 
ENDBRANCH   1  22
BRANCH   2  23
ATOM     23  C   UNL     1       4.163   5.408  -1.026  0.00  0.00    +0.004 C 
ATOM     24  C   UNL     1       3.483   4.075  -0.985  0.00  0.00    +0.000 C 
ENDBRANCH   2  23
TORSDOF 2
ENDMDL
MODEL 3
REMARK VINA RESULT:      -6.6      1.853      6.117
REMARK  Name = 
REMARK  2 active torsions:
REMARK  status: ('A' for Active; 'I' for Inactive)
REMARK    1  A    between atoms: C_2  and  C_3
REMARK    2  A    between atoms: C_22  and  C_23
REMARK                            x       y       z     vdW  Elec       q    Type
REMARK                         _______ _______ _______ _____ _____    ______ ____
ROOT
ATOM      1  C   UNL     1       2.697   5.511  -1.093  0.00  0.00    +0.180 C 
ATOM      2  C   UNL     1       3.020   5.954  -2.477  0.00  0.00    +0.040 C 
ATOM      3  C   UNL     1       1.726   5.216  -3.114  0.00  0.00    +0.004 C 
ATOM      4  C   UNL     1       1.819   6.113  -4.530  0.00  0.00    +0.004 C 
ATOM      5  C   UNL     1       2.576   4.829  -5.291  0.00  0.00    +0.022 C 
ATOM      6  C   UNL     1       3.980   5.181  -4.645  0.00  0.00    -0.044 C 
ATOM      7  C   UNL     1       5.065   4.812  -5.327  0.00  0.00    -0.009 C 
ATOM      8  C   UNL     1       2.972   5.648  -6.717  0.00  0.00    +0.023 C 
ATOM      9  C   UNL     1       1.616   6.469  -6.905  0.00  0.00    -0.041 C 
ATOM     10  C   UNL     1       1.734   7.019  -8.122  0.00  0.00    +0.029 C 
ATOM     11  C   UNL     1       2.593   6.362  -9.125  0.00  0.00    +0.173 C 
ATOM     12  C   UNL     1       2.495   4.868  -9.062  0.00  0.00    +0.069 C 
ATOM     13  O   UNL     1       3.475   6.949  -9.776  0.00  0.00    -0.291 OA
ATOM     14  C   UNL     1       0.361   5.814  -6.448  0.00  0.00    +0.022 C 
ATOM     15  C   UNL     1       2.416   4.419  -7.628  0.00  0.00    +0.012 C 
ATOM     16  C   UNL     1       0.356   5.624  -4.978  0.00  0.00    +0.005 C 
ATOM     17  C   UNL     1       0.768   6.285  -2.371  0.00  0.00    +0.004 C 
ATOM     18  C   UNL     1       4.109   5.252  -3.181  0.00  0.00    +0.025 C 
ATOM     19  C   UNL     1       1.234   5.929  -0.961  0.00  0.00    +0.043 C 
ATOM     20  O   UNL     1       3.416   6.128  -0.096  0.00  0.00    -0.212 OA
ENDROOT
BRANCH   1  22
ATOM     21  C   UNL     1       2.997   2.920  -0.692  0.00  0.00    -0.012 C 
ATOM     22  C   UNL     1       2.843   4.060  -0.998  0.00  0.00    -0.049 C 
ENDBRANCH   1  22
BRANCH   2  23
ATOM     23  C   UNL     1       2.902   7.414  -2.714  0.00  0.00    +0.004 C 
ATOM     24  C   UNL     1       4.179   8.188  -2.607  0.00  0.00    +0.000 C 
ENDBRANCH   2  23
TORSDOF 2
ENDMDL
MODEL 4
REMARK VINA RESULT:      -6.5      2.992      6.904
REMARK  Name = 
REMARK  2 active torsions:
REMARK  status: ('A' for Active; 'I' for Inactive)
REMARK    1  A    between atoms: C_2  and  C_3
REMARK    2  A    between atoms: C_22  and  C_23
REMARK                            x       y       z     vdW  Elec       q    Type
REMARK                         _______ _______ _______ _____ _____    ______ ____
ROOT
ATOM      1  C   UNL     1       2.957   5.895  -3.590  0.00  0.00    +0.180 C 
ATOM      2  C   UNL     1       2.674   5.781  -5.048  0.00  0.00    +0.040 C 
ATOM      3  C   UNL     1       4.239   5.869  -5.452  0.00  0.00    +0.004 C 
ATOM      4  C   UNL     1       3.954   5.251  -6.987  0.00  0.00    +0.004 C 
ATOM      5  C   UNL     1       3.993   6.801  -7.617  0.00  0.00    +0.022 C 
ATOM      6  C   UNL     1       2.507   7.103  -7.156  0.00  0.00    -0.044 C 
ATOM      7  C   UNL     1       1.826   8.000  -7.870  0.00  0.00    -0.009 C 
ATOM      8  C   UNL     1       3.480   6.396  -9.176  0.00  0.00    +0.023 C 
ATOM      9  C   UNL     1       4.316   5.049  -9.362  0.00  0.00    -0.041 C 
ATOM     10  C   UNL     1       4.139   4.729 -10.651  0.00  0.00    +0.029 C 
ATOM     11  C   UNL     1       3.836   5.799 -11.619  0.00  0.00    +0.173 C 
ATOM     12  C   UNL     1       4.600   7.057 -11.331  0.00  0.00    +0.069 C 
ATOM     13  O   UNL     1       2.890   5.761 -12.425  0.00  0.00    -0.291 OA
ATOM     14  C   UNL     1       5.650   4.988  -8.704  0.00  0.00    +0.022 C 
ATOM     15  C   UNL     1       4.665   7.288  -9.845  0.00  0.00    +0.012 C 
ATOM     16  C   UNL     1       5.526   5.025  -7.228  0.00  0.00    +0.005 C 
ATOM     17  C   UNL     1       4.478   4.414  -4.791  0.00  0.00    +0.004 C 
ATOM     18  C   UNL     1       2.146   6.974  -5.735  0.00  0.00    +0.025 C 
ATOM     19  C   UNL     1       4.026   4.824  -3.391  0.00  0.00    +0.043 C 
ATOM     20  O   UNL     1       1.897   5.610  -2.762  0.00  0.00    -0.212 OA
ENDROOT
BRANCH   1  22
ATOM     21  C   UNL     1       4.054   8.198  -2.913  0.00  0.00    -0.012 C 
ATOM     22  C   UNL     1       3.482   7.228  -3.298  0.00  0.00    -0.049 C 
ENDBRANCH   1  22
BRANCH   2  23
ATOM     23  C   UNL     1       2.141   4.467  -5.484  0.00  0.00    +0.004 C 
ATOM     24  C   UNL     1       0.690   4.453  -5.855  0.00  0.00    +0.000 C 
ENDBRANCH   2  23
TORSDOF 2
ENDMDL
MODEL 5
REMARK VINA RESULT:      -6.5      1.517      3.309
REMARK  Name = 
REMARK  2 active torsions:
REMARK  status: ('A' for Active; 'I' for Inactive)
REMARK    1  A    between atoms: C_2  and  C_3
REMARK    2  A    between atoms: C_22  and  C_23
REMARK                            x       y       z     vdW  Elec       q    Type
REMARK                         _______ _______ _______ _____ _____    ______ ____
ROOT
ATOM      1  C   UNL     1       2.537   5.347  -6.952  0.00  0.00    +0.180 C 
ATOM      2  C   UNL     1       3.276   5.528  -5.672  0.00  0.00    +0.040 C 
ATOM      3  C   UNL     1       2.013   6.223  -4.935  0.00  0.00    +0.004 C 
ATOM      4  C   UNL     1       2.666   5.965  -3.410  0.00  0.00    +0.004 C 
ATOM      5  C   UNL     1       3.202   7.550  -3.373  0.00  0.00    +0.022 C 
ATOM      6  C   UNL     1       4.462   7.221  -4.277  0.00  0.00    -0.044 C 
ATOM      7  C   UNL     1       5.533   8.000  -4.121  0.00  0.00    -0.009 C 
ATOM      8  C   UNL     1       4.120   7.418  -1.959  0.00  0.00    +0.023 C 
ATOM      9  C   UNL     1       3.117   6.515  -1.107  0.00  0.00    -0.041 C 
ATOM     10  C   UNL     1       3.654   6.500   0.122  0.00  0.00    +0.029 C 
ATOM     11  C   UNL     1       4.510   7.625   0.542  0.00  0.00    +0.173 C 
ATOM     12  C   UNL     1       4.000   8.942   0.041  0.00  0.00    +0.069 C 
ATOM     13  O   UNL     1       5.643   7.490   1.038  0.00  0.00    -0.291 OA
ATOM     14  C   UNL     1       1.661   6.723  -1.334  0.00  0.00    +0.022 C 
ATOM     15  C   UNL     1       3.477   8.789  -1.362  0.00  0.00    +0.012 C 
ATOM     16  C   UNL     1       1.269   6.334  -2.709  0.00  0.00    +0.005 C 
ATOM     17  C   UNL     1       1.235   4.807  -4.961  0.00  0.00    +0.004 C 
ATOM     18  C   UNL     1       4.267   6.619  -5.605  0.00  0.00    +0.025 C 
ATOM     19  C   UNL     1       1.253   4.670  -6.482  0.00  0.00    +0.043 C 
ATOM     20  O   UNL     1       3.148   4.527  -7.872  0.00  0.00    -0.212 OA
ENDROOT
BRANCH   1  22
ATOM     21  C   UNL     1       2.125   7.623  -8.223  0.00  0.00    -0.012 C 
ATOM     22  C   UNL     1       2.261   6.654  -7.545  0.00  0.00    -0.049 C 
ENDBRANCH   1  22
BRANCH   2  23
ATOM     23  C   UNL     1       3.615   4.273  -4.958  0.00  0.00    +0.004 C 
ATOM     24  C   UNL     1       5.036   4.156  -4.501  0.00  0.00    +0.000 C 
ENDBRANCH   2  23
TORSDOF 2
ENDMDL
MODEL 6
REMARK VINA RESULT:      -6.4      3.180      5.898
REMARK  Name = 
REMARK  2 active torsions:
REMARK  status: ('A' for Active; 'I' for Inactive)
REMARK    1  A    between atoms: C_2  and  C_3
REMARK    2  A    between atoms: C_22  and  C_23
REMARK                            x       y       z     vdW  Elec       q    Type
REMARK                         _______ _______ _______ _____ _____    ______ ____
ROOT
ATOM      1  C   UNL     1       1.296   5.658 -11.635  0.00  0.00    +0.180 C 
ATOM      2  C   UNL     1       1.661   5.658 -10.191  0.00  0.00    +0.040 C 
ATOM      3  C   UNL     1       0.116   5.659  -9.705  0.00  0.00    +0.004 C 
ATOM      4  C   UNL     1       0.525   5.161  -8.155  0.00  0.00    +0.004 C 
ATOM      5  C   UNL     1       0.402   6.742  -7.617  0.00  0.00    +0.022 C 
ATOM      6  C   UNL     1       1.836   7.119  -8.178  0.00  0.00    -0.044 C 
ATOM      7  C   UNL     1       2.483   8.107  -7.558  0.00  0.00    -0.009 C 
ATOM      8  C   UNL     1       1.024   6.474  -6.068  0.00  0.00    +0.023 C 
ATOM      9  C   UNL     1       0.301   5.086  -5.756  0.00  0.00    -0.041 C 
ATOM     10  C   UNL     1       0.567   4.862  -4.461  0.00  0.00    +0.029 C 
ATOM     11  C   UNL     1       0.838   6.011  -3.578  0.00  0.00    +0.173 C 
ATOM     12  C   UNL     1      -0.032   7.189  -3.897  0.00  0.00    +0.069 C 
ATOM     13  O   UNL     1       1.825   6.092  -2.825  0.00  0.00    -0.291 OA
ATOM     14  C   UNL     1      -1.056   4.887  -6.333  0.00  0.00    +0.022 C 
ATOM     15  C   UNL     1      -0.189   7.320  -5.389  0.00  0.00    +0.012 C 
ATOM     16  C   UNL     1      -1.011   4.839  -7.814  0.00  0.00    +0.005 C 
ATOM     17  C   UNL     1      -0.046   4.151 -10.264  0.00  0.00    +0.004 C 
ATOM     18  C   UNL     1       2.133   6.927  -9.607  0.00  0.00    +0.025 C 
ATOM     19  C   UNL     1       0.301   4.502 -11.709  0.00  0.00    +0.043 C 
ATOM     20  O   UNL     1       2.330   5.397 -12.502  0.00  0.00    -0.212 OA
ENDROOT
BRANCH   1  22
ATOM     21  C   UNL     1       0.043   7.840 -12.431  0.00  0.00    -0.012 C 
ATOM     22  C   UNL     1       0.658   6.928 -11.976  0.00  0.00    -0.049 C 
ENDBRANCH   1  22
BRANCH   2  23
ATOM     23  C   UNL     1       2.313   4.416  -9.707  0.00  0.00    +0.004 C 
ATOM     24  C   UNL     1       3.780   4.526  -9.429  0.00  0.00    +0.000 C 
ENDBRANCH   2  23
TORSDOF 2
ENDMDL
MODEL 7
REMARK VINA RESULT:      -6.4      2.910      5.217
REMARK  Name = 
REMARK  2 active torsions:
REMARK  status: ('A' for Active; 'I' for Inactive)
REMARK    1  A    between atoms: C_2  and  C_3
REMARK    2  A    between atoms: C_22  and  C_23
REMARK                            x       y       z     vdW  Elec       q    Type
REMARK                         _______ _______ _______ _____ _____    ______ ____
ROOT
ATOM      1  C   UNL     1       2.514   5.622  -8.597  0.00  0.00    +0.180 C 
ATOM      2  C   UNL     1       1.883   5.364  -7.273  0.00  0.00    +0.040 C 
ATOM      3  C   UNL     1       0.520   6.144  -7.666  0.00  0.00    +0.004 C 
ATOM      4  C   UNL     1      -0.337   5.433  -6.410  0.00  0.00    +0.004 C 
ATOM      5  C   UNL     1      -0.140   6.820  -5.493  0.00  0.00    +0.022 C 
ATOM      6  C   UNL     1       1.339   6.423  -5.083  0.00  0.00    -0.044 C 
ATOM      7  C   UNL     1       1.789   6.900  -3.921  0.00  0.00    -0.009 C 
ATOM      8  C   UNL     1      -0.761   6.195  -4.050  0.00  0.00    +0.023 C 
ATOM      9  C   UNL     1      -1.987   5.372  -4.654  0.00  0.00    -0.041 C 
ATOM     10  C   UNL     1      -2.681   4.981  -3.575  0.00  0.00    +0.029 C 
ATOM     11  C   UNL     1      -2.590   5.777  -2.338  0.00  0.00    +0.173 C 
ATOM     12  C   UNL     1      -2.540   7.250  -2.615  0.00  0.00    +0.069 C 
ATOM     13  O   UNL     1      -2.337   5.298  -1.219  0.00  0.00    -0.291 OA
ATOM     14  C   UNL     1      -2.648   5.935  -5.862  0.00  0.00    +0.022 C 
ATOM     15  C   UNL     1      -1.686   7.514  -3.827  0.00  0.00    +0.012 C 
ATOM     16  C   UNL     1      -1.731   5.940  -7.026  0.00  0.00    +0.005 C 
ATOM     17  C   UNL     1       0.166   4.969  -8.718  0.00  0.00    +0.004 C 
ATOM     18  C   UNL     1       2.343   6.173  -6.130  0.00  0.00    +0.025 C 
ATOM     19  C   UNL     1       1.425   5.157  -9.561  0.00  0.00    +0.043 C 
ATOM     20  O   UNL     1       3.657   4.903  -8.854  0.00  0.00    -0.212 OA
ENDROOT
BRANCH   1  22
ATOM     21  C   UNL     1       3.123   8.152  -9.039  0.00  0.00    -0.012 C 
ATOM     22  C   UNL     1       2.773   7.053  -8.743  0.00  0.00    -0.049 C 
ENDBRANCH   1  22
BRANCH   2  23
ATOM     23  C   UNL     1       1.558   3.942  -6.999  0.00  0.00    +0.004 C 
ATOM     24  C   UNL     1       2.439   3.263  -5.997  0.00  0.00    +0.000 C 
ENDBRANCH   2  23
TORSDOF 2
ENDMDL
MODEL 8
REMARK VINA RESULT:      -6.3      4.506      7.005
REMARK  Name = 
REMARK  2 active torsions:
REMARK  status: ('A' for Active; 'I' for Inactive)
REMARK    1  A    between atoms: C_2  and  C_3
REMARK    2  A    between atoms: C_22  and  C_23
REMARK                            x       y       z     vdW  Elec       q    Type
REMARK                         _______ _______ _______ _____ _____    ______ ____
ROOT
ATOM      1  C   UNL     1       1.082   5.418 -13.939  0.00  0.00    +0.180 C 
ATOM      2  C   UNL     1       0.923   5.827 -12.517  0.00  0.00    +0.040 C 
ATOM      3  C   UNL     1       2.394   5.293 -12.102  0.00  0.00    +0.004 C 
ATOM      4  C   UNL     1       2.399   6.186 -10.680  0.00  0.00    +0.004 C 
ATOM      5  C   UNL     1       1.967   4.816  -9.821  0.00  0.00    +0.022 C 
ATOM      6  C   UNL     1       0.442   4.952 -10.232  0.00  0.00    -0.044 C 
ATOM      7  C   UNL     1      -0.456   4.439  -9.389  0.00  0.00    -0.009 C 
ATOM      8  C   UNL     1       1.689   5.587  -8.342  0.00  0.00    +0.023 C 
ATOM      9  C   UNL     1       2.923   6.599  -8.364  0.00  0.00    -0.041 C 
ATOM     10  C   UNL     1       2.922   7.142  -7.138  0.00  0.00    +0.029 C 
ATOM     11  C   UNL     1       2.338   6.381  -6.018  0.00  0.00    +0.173 C 
ATOM     12  C   UNL     1       2.640   4.916  -6.111  0.00  0.00    +0.069 C 
ATOM     13  O   UNL     1       1.494   6.842  -5.229  0.00  0.00    -0.291 OA
ATOM     14  C   UNL     1       4.171   6.126  -9.022  0.00  0.00    +0.022 C 
ATOM     15  C   UNL     1       2.554   4.464  -7.544  0.00  0.00    +0.012 C 
ATOM     16  C   UNL     1       3.969   5.919 -10.475  0.00  0.00    +0.005 C 
ATOM     17  C   UNL     1       3.057   6.479 -12.977  0.00  0.00    +0.004 C 
ATOM     18  C   UNL     1       0.073   4.985 -11.656  0.00  0.00    +0.025 C 
ATOM     19  C   UNL     1       2.429   6.041 -14.298  0.00  0.00    +0.043 C 
ATOM     20  O   UNL     1       0.132   5.910 -14.803  0.00  0.00    -0.212 OA
ENDROOT
BRANCH   1  22
ATOM     21  C   UNL     1       1.050   2.802 -14.289  0.00  0.00    -0.012 C 
ATOM     22  C   UNL     1       1.135   3.960 -14.024  0.00  0.00    -0.049 C 
ENDBRANCH   1  22
BRANCH   2  23
ATOM     23  C   UNL     1       0.864   7.292 -12.286  0.00  0.00    +0.004 C 
ATOM     24  C   UNL     1      -0.493   7.838 -11.965  0.00  0.00    +0.000 C 
ENDBRANCH   2  23
TORSDOF 2
ENDMDL
MODEL 9
REMARK VINA RESULT:      -6.2      3.068      6.306
REMARK  Name = 
REMARK  2 active torsions:
REMARK  status: ('A' for Active; 'I' for Inactive)
REMARK    1  A    between atoms: C_2  and  C_3
REMARK    2  A    between atoms: C_22  and  C_23
REMARK                            x       y       z     vdW  Elec       q    Type
REMARK                         _______ _______ _______ _____ _____    ______ ____
ROOT
ATOM      1  C   UNL     1      -1.540   6.465  -2.992  0.00  0.00    +0.180 C 
ATOM      2  C   UNL     1      -0.731   6.877  -4.172  0.00  0.00    +0.040 C 
ATOM      3  C   UNL     1      -0.890   5.439  -4.899  0.00  0.00    +0.004 C 
ATOM      4  C   UNL     1      -0.430   6.058  -6.390  0.00  0.00    +0.004 C 
ATOM      5  C   UNL     1       1.115   5.456  -6.161  0.00  0.00    +0.022 C 
ATOM      6  C   UNL     1       1.522   6.664  -5.218  0.00  0.00    -0.044 C 
ATOM      7  C   UNL     1       2.816   6.986  -5.178  0.00  0.00    -0.009 C 
ATOM      8  C   UNL     1       1.821   6.202  -7.504  0.00  0.00    +0.023 C 
ATOM      9  C   UNL     1       0.637   5.981  -8.551  0.00  0.00    -0.041 C 
ATOM     10  C   UNL     1       1.161   6.365  -9.723  0.00  0.00    +0.029 C 
ATOM     11  C   UNL     1       2.621   6.292  -9.913  0.00  0.00    +0.173 C 
ATOM     12  C   UNL     1       3.215   5.074  -9.271  0.00  0.00    +0.069 C 
ATOM     13  O   UNL     1       3.316   7.233 -10.334  0.00  0.00    -0.291 OA
ATOM     14  C   UNL     1      -0.165   4.735  -8.409  0.00  0.00    +0.022 C 
ATOM     15  C   UNL     1       2.545   4.814  -7.948  0.00  0.00    +0.012 C 
ATOM     16  C   UNL     1      -0.926   4.725  -7.137  0.00  0.00    +0.005 C 
ATOM     17  C   UNL     1      -2.460   5.746  -5.134  0.00  0.00    +0.004 C 
ATOM     18  C   UNL     1       0.733   6.940  -4.008  0.00  0.00    +0.025 C 
ATOM     19  C   UNL     1      -2.793   5.894  -3.651  0.00  0.00    +0.043 C 
ATOM     20  O   UNL     1      -1.918   7.487  -2.153  0.00  0.00    -0.212 OA
ENDROOT
BRANCH   1  22
ATOM     21  C   UNL     1      -0.106   4.779  -1.554  0.00  0.00    -0.012 C 
ATOM     22  C   UNL     1      -0.820   5.436  -2.243  0.00  0.00    -0.049 C 
ENDBRANCH   1  22
BRANCH   2  23
ATOM     23  C   UNL     1      -1.353   7.916  -5.029  0.00  0.00    +0.004 C 
ATOM     24  C   UNL     1      -1.920   9.095  -4.301  0.00  0.00    +0.000 C 
ENDBRANCH   2  23
TORSDOF 2
ENDMDL
