MODEL 1
REMARK VINA RESULT:      -6.4      0.000      0.000
REMARK  Name = 
REMARK  11 active torsions:
REMARK  status: ('A' for Active; 'I' for Inactive)
REMARK    1  A    between atoms: C_2  and  N_4
REMARK    2  A    between atoms: N_4  and  C_5
REMARK    3  A    between atoms: C_5  and  C_6
REMARK    4  A    between atoms: C_6  and  C_8
REMARK    5  A    between atoms: C_8  and  O_9
REMARK    6  A    between atoms: O_9  and  C_10
REMARK    7  A    between atoms: C_13  and  C_14
REMARK    8  A    between atoms: C_14  and  C_15
REMARK    9  A    between atoms: C_15  and  O_16
REMARK   10  A    between atoms: O_16  and  C_17
REMARK   11  A    between atoms: C_17  and  C_18
REMARK                            x       y       z     vdW  Elec       q    Type
REMARK                         _______ _______ _______ _____ _____    ______ ____
ROOT
ATOM      1  C   UNL     1      -0.080   5.749  -6.531  0.00  0.00    +0.139 A 
ATOM      2  C   UNL     1      -0.021   6.606  -5.438  0.00  0.00    +0.037 A 
ATOM      3  C   UNL     1      -1.178   7.104  -4.852  0.00  0.00    -0.001 A 
ATOM      4  C   UNL     1      -2.378   6.422  -5.020  0.00  0.00    -0.019 A 
ATOM      5  C   UNL     1      -2.428   5.532  -6.078  0.00  0.00    -0.001 A 
ATOM      6  C   UNL     1      -1.331   5.272  -6.884  0.00  0.00    +0.037 A 
ENDROOT
BRANCH   1   7
ATOM      7  O   UNL     1       1.029   5.628  -7.372  0.00  0.00    -0.473 OA
BRANCH   7   8
ATOM      8  C   UNL     1       1.078   6.433  -8.507  0.00  0.00    +0.240 C 
BRANCH   8   9
ATOM      9  C   UNL     1       2.596   7.081  -8.569  0.00  0.00    +0.213 C 
ATOM     10  O   UNL     1       2.193   8.239  -7.666  0.00  0.00    -0.218 OA
BRANCH   9  11
ATOM     11  C   UNL     1       3.180   6.214  -7.287  0.00  0.00    +0.125 C 
BRANCH  11  12
ATOM     12  N   UNL     1       3.482   7.307  -6.371  0.00  0.00    -0.217 NA
BRANCH  12  14
ATOM     13  C   UNL     1       4.574   7.706  -4.278  0.00  0.00    +0.019 C 
ATOM     14  C   UNL     1       3.986   6.878  -5.118  0.00  0.00    +0.073 C 
ATOM     15  C   UNL     1       3.871   5.426  -4.823  0.00  0.00    +0.019 C 
ENDBRANCH  12  14
ENDBRANCH  11  12
ENDBRANCH   9  11
ENDBRANCH   8   9
ENDBRANCH   7   8
ENDBRANCH   1   7
BRANCH   4  16
ATOM     16  C   UNL     1      -3.212   6.269  -3.807  0.00  0.00    +0.058 C 
BRANCH  16  17
ATOM     17  C   UNL     1      -2.568   6.318  -2.523  0.00  0.00    +0.147 C 
BRANCH  17  18
ATOM     18  O   UNL     1      -2.141   5.183  -1.909  0.00  0.00    -0.353 OA
BRANCH  18  19
ATOM     19  C   UNL     1      -0.970   5.526  -1.232  0.00  0.00    +0.142 C 
BRANCH  19  20
ATOM     20  C   UNL     1       0.245   5.120  -2.048  0.00  0.00    +0.030 C 
ATOM     21  C   UNL     1       1.478   4.925  -1.169  0.00  0.00    +0.003 C 
ATOM     22  C   UNL     1       1.387   6.140  -2.069  0.00  0.00    +0.003 C 
ENDBRANCH  19  20
ENDBRANCH  18  19
ENDBRANCH  17  18
ENDBRANCH  16  17
ENDBRANCH   4  16
TORSDOF 11
ENDMDL
MODEL 2
REMARK VINA RESULT:      -6.4      4.979      9.884
REMARK  Name = 
REMARK  11 active torsions:
REMARK  status: ('A' for Active; 'I' for Inactive)
REMARK    1  A    between atoms: C_2  and  N_4
REMARK    2  A    between atoms: N_4  and  C_5
REMARK    3  A    between atoms: C_5  and  C_6
REMARK    4  A    between atoms: C_6  and  C_8
REMARK    5  A    between atoms: C_8  and  O_9
REMARK    6  A    between atoms: O_9  and  C_10
REMARK    7  A    between atoms: C_13  and  C_14
REMARK    8  A    between atoms: C_14  and  C_15
REMARK    9  A    between atoms: C_15  and  O_16
REMARK   10  A    between atoms: O_16  and  C_17
REMARK   11  A    between atoms: C_17  and  C_18
REMARK                            x       y       z     vdW  Elec       q    Type
REMARK                         _______ _______ _______ _____ _____    ______ ____
ROOT
ATOM      1  C   UNL     1       4.722   6.300  -9.794  0.00  0.00    +0.139 A 
ATOM      2  C   UNL     1       5.171   7.085 -10.850  0.00  0.00    +0.037 A 
ATOM      3  C   UNL     1       6.527   7.302 -11.058  0.00  0.00    -0.001 A 
ATOM      4  C   UNL     1       7.452   6.401 -10.539  0.00  0.00    -0.019 A 
ATOM      5  C   UNL     1       6.997   5.584  -9.520  0.00  0.00    -0.001 A 
ATOM      6  C   UNL     1       5.682   5.601  -9.083  0.00  0.00    +0.037 A 
ENDROOT
BRANCH   1   7
ATOM      7  O   UNL     1       3.415   6.457  -9.327  0.00  0.00    -0.473 OA
BRANCH   7   8
ATOM      8  C   UNL     1       3.237   6.803  -7.989  0.00  0.00    +0.240 C 
BRANCH   8   9
ATOM      9  C   UNL     1       1.619   7.046  -7.768  0.00  0.00    +0.213 C 
ATOM     10  O   UNL     1       1.394   7.248  -9.260  0.00  0.00    -0.218 OA
BRANCH   9  11
ATOM     11  C   UNL     1       1.213   5.446  -7.868  0.00  0.00    +0.125 C 
BRANCH  11  12
ATOM     12  N   UNL     1      -0.240   5.562  -7.848  0.00  0.00    -0.217 NA
BRANCH  12  14
ATOM     13  C   UNL     1      -0.074   5.172  -5.492  0.00  0.00    +0.019 C 
ATOM     14  C   UNL     1      -0.804   5.449  -6.553  0.00  0.00    +0.073 C 
ATOM     15  C   UNL     1      -2.280   5.599  -6.462  0.00  0.00    +0.019 C 
ENDBRANCH  12  14
ENDBRANCH  11  12
ENDBRANCH   9  11
ENDBRANCH   8   9
ENDBRANCH   7   8
ENDBRANCH   1   7
BRANCH   4  16
ATOM     16  C   UNL     1       8.554   6.010 -11.446  0.00  0.00    +0.058 C 
BRANCH  16  17
ATOM     17  C   UNL     1       8.272   5.872 -12.848  0.00  0.00    +0.147 C 
BRANCH  17  18
ATOM     18  O   UNL     1       7.521   4.839 -13.313  0.00  0.00    -0.353 OA
BRANCH  18  19
ATOM     19  C   UNL     1       6.500   5.413 -14.072  0.00  0.00    +0.142 C 
BRANCH  19  20
ATOM     20  C   UNL     1       6.986   6.698 -14.718  0.00  0.00    +0.030 C 
ATOM     21  C   UNL     1       5.873   7.400 -15.492  0.00  0.00    +0.003 C 
ATOM     22  C   UNL     1       6.983   6.701 -16.250  0.00  0.00    +0.003 C 
ENDBRANCH  19  20
ENDBRANCH  18  19
ENDBRANCH  17  18
ENDBRANCH  16  17
ENDBRANCH   4  16
TORSDOF 11
ENDMDL
MODEL 3
REMARK VINA RESULT:      -6.3      5.900     10.387
REMARK  Name = 
REMARK  11 active torsions:
REMARK  status: ('A' for Active; 'I' for Inactive)
REMARK    1  A    between atoms: C_2  and  N_4
REMARK    2  A    between atoms: N_4  and  C_5
REMARK    3  A    between atoms: C_5  and  C_6
REMARK    4  A    between atoms: C_6  and  C_8
REMARK    5  A    between atoms: C_8  and  O_9
REMARK    6  A    between atoms: O_9  and  C_10
REMARK    7  A    between atoms: C_13  and  C_14
REMARK    8  A    between atoms: C_14  and  C_15
REMARK    9  A    between atoms: C_15  and  O_16
REMARK   10  A    between atoms: O_16  and  C_17
REMARK   11  A    between atoms: C_17  and  C_18
REMARK                            x       y       z     vdW  Elec       q    Type
REMARK                         _______ _______ _______ _____ _____    ______ ____
ROOT
ATOM      1  C   UNL     1       4.641   6.286  -9.895  0.00  0.00    +0.139 A 
ATOM      2  C   UNL     1       5.113   7.104 -10.916  0.00  0.00    +0.037 A 
ATOM      3  C   UNL     1       6.466   7.388 -11.041  0.00  0.00    -0.001 A 
ATOM      4  C   UNL     1       7.402   6.528 -10.476  0.00  0.00    -0.019 A 
ATOM      5  C   UNL     1       6.929   5.677  -9.494  0.00  0.00    -0.001 A 
ATOM      6  C   UNL     1       5.590   5.625  -9.134  0.00  0.00    +0.037 A 
ENDROOT
BRANCH   1   7
ATOM      7  O   UNL     1       3.302   6.373  -9.504  0.00  0.00    -0.473 OA
BRANCH   7   8
ATOM      8  C   UNL     1       2.479   5.276  -9.747  0.00  0.00    +0.240 C 
BRANCH   8   9
ATOM      9  C   UNL     1       0.963   5.867 -10.026  0.00  0.00    +0.213 C 
ATOM     10  O   UNL     1       1.292   7.180  -9.329  0.00  0.00    -0.218 OA
BRANCH   9  11
ATOM     11  C   UNL     1       1.321   6.503 -11.510  0.00  0.00    +0.125 C 
BRANCH  11  12
ATOM     12  N   UNL     1       1.282   5.287 -12.312  0.00  0.00    -0.217 NA
BRANCH  12  14
ATOM     13  C   UNL     1       3.026   5.211 -13.951  0.00  0.00    +0.019 C 
ATOM     14  C   UNL     1       1.771   5.458 -13.632  0.00  0.00    +0.073 C 
ATOM     15  C   UNL     1       0.807   5.991 -14.628  0.00  0.00    +0.019 C 
ENDBRANCH  12  14
ENDBRANCH  11  12
ENDBRANCH   9  11
ENDBRANCH   8   9
ENDBRANCH   7   8
ENDBRANCH   1   7
BRANCH   4  16
ATOM     16  C   UNL     1       8.573   6.201 -11.319  0.00  0.00    +0.058 C 
BRANCH  16  17
ATOM     17  C   UNL     1       8.367   5.985 -12.725  0.00  0.00    +0.147 C 
BRANCH  17  18
ATOM     18  O   UNL     1       7.730   4.873 -13.177  0.00  0.00    -0.353 OA
BRANCH  18  19
ATOM     19  C   UNL     1       6.676   5.325 -13.973  0.00  0.00    +0.142 C 
BRANCH  19  20
ATOM     20  C   UNL     1       7.059   6.624 -14.659  0.00  0.00    +0.030 C 
ATOM     21  C   UNL     1       5.870   7.257 -15.377  0.00  0.00    +0.003 C 
ATOM     22  C   UNL     1       6.972   6.606 -16.188  0.00  0.00    +0.003 C 
ENDBRANCH  19  20
ENDBRANCH  18  19
ENDBRANCH  17  18
ENDBRANCH  16  17
ENDBRANCH   4  16
TORSDOF 11
ENDMDL
MODEL 4
REMARK VINA RESULT:      -6.1      1.991      2.632
REMARK  Name = 
REMARK  11 active torsions:
REMARK  status: ('A' for Active; 'I' for Inactive)
REMARK    1  A    between atoms: C_2  and  N_4
REMARK    2  A    between atoms: N_4  and  C_5
REMARK    3  A    between atoms: C_5  and  C_6
REMARK    4  A    between atoms: C_6  and  C_8
REMARK    5  A    between atoms: C_8  and  O_9
REMARK    6  A    between atoms: O_9  and  C_10
REMARK    7  A    between atoms: C_13  and  C_14
REMARK    8  A    between atoms: C_14  and  C_15
REMARK    9  A    between atoms: C_15  and  O_16
REMARK   10  A    between atoms: O_16  and  C_17
REMARK   11  A    between atoms: C_17  and  C_18
REMARK                            x       y       z     vdW  Elec       q    Type
REMARK                         _______ _______ _______ _____ _____    ______ ____
ROOT
ATOM      1  C   UNL     1       0.135   6.219  -6.521  0.00  0.00    +0.139 A 
ATOM      2  C   UNL     1      -0.157   6.872  -5.329  0.00  0.00    +0.037 A 
ATOM      3  C   UNL     1      -1.451   6.903  -4.825  0.00  0.00    -0.001 A 
ATOM      4  C   UNL     1      -2.362   5.928  -5.218  0.00  0.00    -0.019 A 
ATOM      5  C   UNL     1      -2.052   5.240  -6.378  0.00  0.00    -0.001 A 
ATOM      6  C   UNL     1      -0.873   5.450  -7.076  0.00  0.00    +0.037 A 
ENDROOT
BRANCH   1   7
ATOM      7  O   UNL     1       1.285   6.568  -7.234  0.00  0.00    -0.473 OA
BRANCH   7   8
ATOM      8  C   UNL     1       1.856   5.605  -8.063  0.00  0.00    +0.240 C 
BRANCH   8   9
ATOM      9  C   UNL     1       2.524   6.409  -9.341  0.00  0.00    +0.213 C 
ATOM     10  O   UNL     1       2.481   7.735  -8.594  0.00  0.00    -0.218 OA
BRANCH   9  11
ATOM     11  C   UNL     1       4.090   6.140  -8.884  0.00  0.00    +0.125 C 
BRANCH  11  12
ATOM     12  N   UNL     1       4.684   5.876 -10.188  0.00  0.00    -0.217 NA
BRANCH  12  14
ATOM     13  C   UNL     1       5.962   7.674 -11.121  0.00  0.00    +0.019 C 
ATOM     14  C   UNL     1       5.903   6.565 -10.411  0.00  0.00    +0.073 C 
ATOM     15  C   UNL     1       7.127   5.936  -9.852  0.00  0.00    +0.019 C 
ENDBRANCH  12  14
ENDBRANCH  11  12
ENDBRANCH   9  11
ENDBRANCH   8   9
ENDBRANCH   7   8
ENDBRANCH   1   7
BRANCH   4  16
ATOM     16  C   UNL     1      -3.192   5.344  -4.141  0.00  0.00    +0.058 C 
BRANCH  16  17
ATOM     17  C   UNL     1      -2.975   5.791  -2.792  0.00  0.00    +0.147 C 
BRANCH  17  18
ATOM     18  O   UNL     1      -2.387   4.983  -1.872  0.00  0.00    -0.353 OA
BRANCH  18  19
ATOM     19  C   UNL     1      -1.737   5.828  -0.971  0.00  0.00    +0.142 C 
BRANCH  19  20
ATOM     20  C   UNL     1      -0.391   6.255  -1.530  0.00  0.00    +0.030 C 
ATOM     21  C   UNL     1       0.456   5.054  -1.944  0.00  0.00    +0.003 C 
ATOM     22  C   UNL     1       0.824   5.835  -0.699  0.00  0.00    +0.003 C 
ENDBRANCH  19  20
ENDBRANCH  18  19
ENDBRANCH  17  18
ENDBRANCH  16  17
ENDBRANCH   4  16
TORSDOF 11
ENDMDL
MODEL 5
REMARK VINA RESULT:      -6.1      2.014      3.435
REMARK  Name = 
REMARK  11 active torsions:
REMARK  status: ('A' for Active; 'I' for Inactive)
REMARK    1  A    between atoms: C_2  and  N_4
REMARK    2  A    between atoms: N_4  and  C_5
REMARK    3  A    between atoms: C_5  and  C_6
REMARK    4  A    between atoms: C_6  and  C_8
REMARK    5  A    between atoms: C_8  and  O_9
REMARK    6  A    between atoms: O_9  and  C_10
REMARK    7  A    between atoms: C_13  and  C_14
REMARK    8  A    between atoms: C_14  and  C_15
REMARK    9  A    between atoms: C_15  and  O_16
REMARK   10  A    between atoms: O_16  and  C_17
REMARK   11  A    between atoms: C_17  and  C_18
REMARK                            x       y       z     vdW  Elec       q    Type
REMARK                         _______ _______ _______ _____ _____    ______ ____
ROOT
ATOM      1  C   UNL     1       0.318   6.079  -6.498  0.00  0.00    +0.139 A 
ATOM      2  C   UNL     1       0.050   6.802  -5.341  0.00  0.00    +0.037 A 
ATOM      3  C   UNL     1      -1.251   6.970  -4.884  0.00  0.00    -0.001 A 
ATOM      4  C   UNL     1      -2.235   6.066  -5.273  0.00  0.00    -0.019 A 
ATOM      5  C   UNL     1      -1.953   5.309  -6.396  0.00  0.00    -0.001 A 
ATOM      6  C   UNL     1      -0.739   5.385  -7.060  0.00  0.00    +0.037 A 
ENDROOT
BRANCH   1   7
ATOM      7  O   UNL     1       1.517   6.296  -7.183  0.00  0.00    -0.473 OA
BRANCH   7   8
ATOM      8  C   UNL     1       2.060   5.231  -7.898  0.00  0.00    +0.240 C 
BRANCH   8   9
ATOM      9  C   UNL     1       3.192   5.867  -8.918  0.00  0.00    +0.213 C 
ATOM     10  O   UNL     1       3.981   4.564  -8.935  0.00  0.00    -0.218 OA
BRANCH   9  11
ATOM     11  C   UNL     1       2.388   5.460 -10.305  0.00  0.00    +0.125 C 
BRANCH  11  12
ATOM     12  N   UNL     1       1.457   6.579 -10.384  0.00  0.00    -0.217 NA
BRANCH  12  14
ATOM     13  C   UNL     1      -0.149   5.017 -11.230  0.00  0.00    +0.019 C 
ATOM     14  C   UNL     1       0.237   6.261 -11.033  0.00  0.00    +0.073 C 
ATOM     15  C   UNL     1      -0.559   7.410 -11.537  0.00  0.00    +0.019 C 
ENDBRANCH  12  14
ENDBRANCH  11  12
ENDBRANCH   9  11
ENDBRANCH   8   9
ENDBRANCH   7   8
ENDBRANCH   1   7
BRANCH   4  16
ATOM     16  C   UNL     1      -3.148   5.602  -4.205  0.00  0.00    +0.058 C 
BRANCH  16  17
ATOM     17  C   UNL     1      -2.852   5.965  -2.847  0.00  0.00    +0.147 C 
BRANCH  17  18
ATOM     18  O   UNL     1      -2.496   5.025  -1.932  0.00  0.00    -0.353 OA
BRANCH  18  19
ATOM     19  C   UNL     1      -1.775   5.698  -0.944  0.00  0.00    +0.142 C 
BRANCH  19  20
ATOM     20  C   UNL     1      -0.442   6.168  -1.498  0.00  0.00    +0.030 C 
ATOM     21  C   UNL     1       0.574   5.031  -1.570  0.00  0.00    +0.003 C 
ATOM     22  C   UNL     1       0.732   6.107  -0.516  0.00  0.00    +0.003 C 
ENDBRANCH  19  20
ENDBRANCH  18  19
ENDBRANCH  17  18
ENDBRANCH  16  17
ENDBRANCH   4  16
TORSDOF 11
ENDMDL
MODEL 6
REMARK VINA RESULT:      -6.0      4.191      9.022
REMARK  Name = 
REMARK  11 active torsions:
REMARK  status: ('A' for Active; 'I' for Inactive)
REMARK    1  A    between atoms: C_2  and  N_4
REMARK    2  A    between atoms: N_4  and  C_5
REMARK    3  A    between atoms: C_5  and  C_6
REMARK    4  A    between atoms: C_6  and  C_8
REMARK    5  A    between atoms: C_8  and  O_9
REMARK    6  A    between atoms: O_9  and  C_10
REMARK    7  A    between atoms: C_13  and  C_14
REMARK    8  A    between atoms: C_14  and  C_15
REMARK    9  A    between atoms: C_15  and  O_16
REMARK   10  A    between atoms: O_16  and  C_17
REMARK   11  A    between atoms: C_17  and  C_18
REMARK                            x       y       z     vdW  Elec       q    Type
REMARK                         _______ _______ _______ _____ _____    ______ ____
ROOT
ATOM      1  C   UNL     1       3.569   6.175  -7.961  0.00  0.00    +0.139 A 
ATOM      2  C   UNL     1       4.735   5.454  -7.730  0.00  0.00    +0.037 A 
ATOM      3  C   UNL     1       5.643   5.210  -8.751  0.00  0.00    -0.001 A 
ATOM      4  C   UNL     1       5.659   6.042  -9.866  0.00  0.00    -0.019 A 
ATOM      5  C   UNL     1       4.520   6.799 -10.075  0.00  0.00    -0.001 A 
ATOM      6  C   UNL     1       3.449   6.791  -9.195  0.00  0.00    +0.037 A 
ENDROOT
BRANCH   1   7
ATOM      7  O   UNL     1       2.483   6.026  -7.094  0.00  0.00    -0.473 OA
BRANCH   7   8
ATOM      8  C   UNL     1       1.760   4.837  -7.152  0.00  0.00    +0.240 C 
BRANCH   8   9
ATOM      9  C   UNL     1       1.227   4.526  -5.621  0.00  0.00    +0.213 C 
ATOM     10  O   UNL     1       2.572   4.910  -5.020  0.00  0.00    -0.218 OA
BRANCH   9  11
ATOM     11  C   UNL     1       0.619   6.042  -5.363  0.00  0.00    +0.125 C 
BRANCH  11  12
ATOM     12  N   UNL     1      -0.689   5.692  -4.824  0.00  0.00    -0.217 NA
BRANCH  12  14
ATOM     13  C   UNL     1      -1.980   7.708  -4.752  0.00  0.00    +0.019 C 
ATOM     14  C   UNL     1      -1.738   6.527  -5.284  0.00  0.00    +0.073 C 
ATOM     15  C   UNL     1      -2.596   5.973  -6.364  0.00  0.00    +0.019 C 
ENDBRANCH  12  14
ENDBRANCH  11  12
ENDBRANCH   9  11
ENDBRANCH   8   9
ENDBRANCH   7   8
ENDBRANCH   1   7
BRANCH   4  16
ATOM     16  C   UNL     1       6.996   6.462 -10.342  0.00  0.00    +0.058 C 
BRANCH  16  17
ATOM     17  C   UNL     1       7.928   5.447 -10.749  0.00  0.00    +0.147 C 
BRANCH  17  18
ATOM     18  O   UNL     1       8.614   5.553 -11.917  0.00  0.00    -0.353 OA
BRANCH  18  19
ATOM     19  C   UNL     1       7.832   6.347 -12.757  0.00  0.00    +0.142 C 
BRANCH  19  20
ATOM     20  C   UNL     1       7.116   5.480 -13.778  0.00  0.00    +0.030 C 
ATOM     21  C   UNL     1       6.294   6.318 -14.755  0.00  0.00    +0.003 C 
ATOM     22  C   UNL     1       5.586   5.501 -13.693  0.00  0.00    +0.003 C 
ENDBRANCH  19  20
ENDBRANCH  18  19
ENDBRANCH  17  18
ENDBRANCH  16  17
ENDBRANCH   4  16
TORSDOF 11
ENDMDL
MODEL 7
REMARK VINA RESULT:      -6.0      1.436      2.042
REMARK  Name = 
REMARK  11 active torsions:
REMARK  status: ('A' for Active; 'I' for Inactive)
REMARK    1  A    between atoms: C_2  and  N_4
REMARK    2  A    between atoms: N_4  and  C_5
REMARK    3  A    between atoms: C_5  and  C_6
REMARK    4  A    between atoms: C_6  and  C_8
REMARK    5  A    between atoms: C_8  and  O_9
REMARK    6  A    between atoms: O_9  and  C_10
REMARK    7  A    between atoms: C_13  and  C_14
REMARK    8  A    between atoms: C_14  and  C_15
REMARK    9  A    between atoms: C_15  and  O_16
REMARK   10  A    between atoms: O_16  and  C_17
REMARK   11  A    between atoms: C_17  and  C_18
REMARK                            x       y       z     vdW  Elec       q    Type
REMARK                         _______ _______ _______ _____ _____    ______ ____
ROOT
ATOM      1  C   UNL     1      -0.155   5.904  -6.341  0.00  0.00    +0.139 A 
ATOM      2  C   UNL     1      -0.176   6.497  -5.083  0.00  0.00    +0.037 A 
ATOM      3  C   UNL     1      -1.375   6.759  -4.433  0.00  0.00    -0.001 A 
ATOM      4  C   UNL     1      -2.514   6.040  -4.780  0.00  0.00    -0.019 A 
ATOM      5  C   UNL     1      -2.481   5.407  -6.010  0.00  0.00    -0.001 A 
ATOM      6  C   UNL     1      -1.359   5.422  -6.825  0.00  0.00    +0.037 A 
ENDROOT
BRANCH   1   7
ATOM      7  O   UNL     1       0.968   6.061  -7.158  0.00  0.00    -0.473 OA
BRANCH   7   8
ATOM      8  C   UNL     1       2.145   5.421  -6.778  0.00  0.00    +0.240 C 
BRANCH   8   9
ATOM      9  C   UNL     1       3.389   6.260  -7.466  0.00  0.00    +0.213 C 
ATOM     10  O   UNL     1       2.949   7.557  -6.801  0.00  0.00    -0.218 OA
BRANCH   9  11
ATOM     11  C   UNL     1       4.470   5.943  -6.255  0.00  0.00    +0.125 C 
BRANCH  11  12
ATOM     12  N   UNL     1       3.582   6.042  -5.103  0.00  0.00    -0.217 NA
BRANCH  12  14
ATOM     13  C   UNL     1       4.476   5.298  -3.010  0.00  0.00    +0.019 C 
ATOM     14  C   UNL     1       4.259   6.266  -3.878  0.00  0.00    +0.073 C 
ATOM     15  C   UNL     1       4.659   7.668  -3.592  0.00  0.00    +0.019 C 
ENDBRANCH  12  14
ENDBRANCH  11  12
ENDBRANCH   9  11
ENDBRANCH   8   9
ENDBRANCH   7   8
ENDBRANCH   1   7
BRANCH   4  16
ATOM     16  C   UNL     1      -3.343   5.554  -3.655  0.00  0.00    +0.058 C 
BRANCH  16  17
ATOM     17  C   UNL     1      -2.980   5.944  -2.320  0.00  0.00    +0.147 C 
BRANCH  17  18
ATOM     18  O   UNL     1      -2.327   5.086  -1.492  0.00  0.00    -0.353 OA
BRANCH  18  19
ATOM     19  C   UNL     1      -1.490   5.873  -0.699  0.00  0.00    +0.142 C 
BRANCH  19  20
ATOM     20  C   UNL     1      -2.095   7.252  -0.509  0.00  0.00    +0.030 C 
ATOM     21  C   UNL     1      -1.121   8.209   0.174  0.00  0.00    +0.003 C 
ATOM     22  C   UNL     1      -2.309   7.676   0.948  0.00  0.00    +0.003 C 
ENDBRANCH  19  20
ENDBRANCH  18  19
ENDBRANCH  17  18
ENDBRANCH  16  17
ENDBRANCH   4  16
TORSDOF 11
ENDMDL
MODEL 8
REMARK VINA RESULT:      -5.9      3.040      7.538
REMARK  Name = 
REMARK  11 active torsions:
REMARK  status: ('A' for Active; 'I' for Inactive)
REMARK    1  A    between atoms: C_2  and  N_4
REMARK    2  A    between atoms: N_4  and  C_5
REMARK    3  A    between atoms: C_5  and  C_6
REMARK    4  A    between atoms: C_6  and  C_8
REMARK    5  A    between atoms: C_8  and  O_9
REMARK    6  A    between atoms: O_9  and  C_10
REMARK    7  A    between atoms: C_13  and  C_14
REMARK    8  A    between atoms: C_14  and  C_15
REMARK    9  A    between atoms: C_15  and  O_16
REMARK   10  A    between atoms: O_16  and  C_17
REMARK   11  A    between atoms: C_17  and  C_18
REMARK                            x       y       z     vdW  Elec       q    Type
REMARK                         _______ _______ _______ _____ _____    ______ ____
ROOT
ATOM      1  C   UNL     1       3.186   6.856  -6.743  0.00  0.00    +0.139 A 
ATOM      2  C   UNL     1       3.905   5.868  -7.405  0.00  0.00    +0.037 A 
ATOM      3  C   UNL     1       3.492   5.383  -8.639  0.00  0.00    -0.001 A 
ATOM      4  C   UNL     1       2.662   6.164  -9.438  0.00  0.00    -0.019 A 
ATOM      5  C   UNL     1       1.980   7.180  -8.794  0.00  0.00    -0.001 A 
ATOM      6  C   UNL     1       2.159   7.460  -7.448  0.00  0.00    +0.037 A 
ENDROOT
BRANCH   1   7
ATOM      7  O   UNL     1       3.328   7.004  -5.361  0.00  0.00    -0.473 OA
BRANCH   7   8
ATOM      8  C   UNL     1       2.179   6.938  -4.576  0.00  0.00    +0.240 C 
BRANCH   8   9
ATOM      9  C   UNL     1       2.060   5.385  -4.030  0.00  0.00    +0.213 C 
ATOM     10  O   UNL     1       1.155   5.806  -2.880  0.00  0.00    -0.218 OA
BRANCH   9  11
ATOM     11  C   UNL     1       0.763   4.992  -4.978  0.00  0.00    +0.125 C 
BRANCH  11  12
ATOM     12  N   UNL     1      -0.008   6.224  -4.859  0.00  0.00    -0.217 NA
BRANCH  12  14
ATOM     13  C   UNL     1      -2.272   6.896  -5.251  0.00  0.00    +0.019 C 
ATOM     14  C   UNL     1      -1.201   6.226  -5.625  0.00  0.00    +0.073 C 
ATOM     15  C   UNL     1      -1.201   5.380  -6.847  0.00  0.00    +0.019 C 
ENDBRANCH  12  14
ENDBRANCH  11  12
ENDBRANCH   9  11
ENDBRANCH   8   9
ENDBRANCH   7   8
ENDBRANCH   1   7
BRANCH   4  16
ATOM     16  C   UNL     1       3.014   6.223 -10.874  0.00  0.00    +0.058 C 
BRANCH  16  17
ATOM     17  C   UNL     1       4.382   6.474 -11.234  0.00  0.00    +0.147 C 
BRANCH  17  18
ATOM     18  O   UNL     1       5.004   7.626 -10.867  0.00  0.00    -0.353 OA
BRANCH  18  19
ATOM     19  C   UNL     1       6.351   7.460 -11.192  0.00  0.00    +0.142 C 
BRANCH  19  20
ATOM     20  C   UNL     1       6.762   6.012 -10.996  0.00  0.00    +0.030 C 
ATOM     21  C   UNL     1       7.617   5.829  -9.744  0.00  0.00    +0.003 C 
ATOM     22  C   UNL     1       8.265   5.738 -11.110  0.00  0.00    +0.003 C 
ENDBRANCH  19  20
ENDBRANCH  18  19
ENDBRANCH  17  18
ENDBRANCH  16  17
ENDBRANCH   4  16
TORSDOF 11
ENDMDL
MODEL 9
REMARK VINA RESULT:      -5.8      4.533      9.209
REMARK  Name = 
REMARK  11 active torsions:
REMARK  status: ('A' for Active; 'I' for Inactive)
REMARK    1  A    between atoms: C_2  and  N_4
REMARK    2  A    between atoms: N_4  and  C_5
REMARK    3  A    between atoms: C_5  and  C_6
REMARK    4  A    between atoms: C_6  and  C_8
REMARK    5  A    between atoms: C_8  and  O_9
REMARK    6  A    between atoms: O_9  and  C_10
REMARK    7  A    between atoms: C_13  and  C_14
REMARK    8  A    between atoms: C_14  and  C_15
REMARK    9  A    between atoms: C_15  and  O_16
REMARK   10  A    between atoms: O_16  and  C_17
REMARK   11  A    between atoms: C_17  and  C_18
REMARK                            x       y       z     vdW  Elec       q    Type
REMARK                         _______ _______ _______ _____ _____    ______ ____
ROOT
ATOM      1  C   UNL     1       4.072   5.524  -9.228  0.00  0.00    +0.139 A 
ATOM      2  C   UNL     1       4.182   6.374 -10.322  0.00  0.00    +0.037 A 
ATOM      3  C   UNL     1       5.383   7.001 -10.627  0.00  0.00    -0.001 A 
ATOM      4  C   UNL     1       6.576   6.456 -10.163  0.00  0.00    -0.019 A 
ATOM      5  C   UNL     1       6.469   5.571  -9.104  0.00  0.00    -0.001 A 
ATOM      6  C   UNL     1       5.245   5.187  -8.576  0.00  0.00    +0.037 A 
ENDROOT
BRANCH   1   7
ATOM      7  O   UNL     1       2.813   5.275  -8.672  0.00  0.00    -0.473 OA
BRANCH   7   8
ATOM      8  C   UNL     1       2.626   5.571  -7.324  0.00  0.00    +0.240 C 
BRANCH   8   9
ATOM      9  C   UNL     1       1.301   4.720  -6.827  0.00  0.00    +0.213 C 
ATOM     10  O   UNL     1       2.134   3.467  -6.589  0.00  0.00    -0.218 OA
BRANCH   9  11
ATOM     11  C   UNL     1       1.424   5.168  -5.239  0.00  0.00    +0.125 C 
BRANCH  11  12
ATOM     12  N   UNL     1       2.874   5.160  -5.094  0.00  0.00    -0.217 NA
BRANCH  12  14
ATOM     13  C   UNL     1       3.256   7.165  -3.842  0.00  0.00    +0.019 C 
ATOM     14  C   UNL     1       3.337   5.854  -3.948  0.00  0.00    +0.073 C 
ATOM     15  C   UNL     1       3.978   5.027  -2.892  0.00  0.00    +0.019 C 
ENDBRANCH  12  14
ENDBRANCH  11  12
ENDBRANCH   9  11
ENDBRANCH   8   9
ENDBRANCH   7   8
ENDBRANCH   1   7
BRANCH   4  16
ATOM     16  C   UNL     1       7.687   6.403 -11.139  0.00  0.00    +0.058 C 
BRANCH  16  17
ATOM     17  C   UNL     1       8.069   5.124 -11.672  0.00  0.00    +0.147 C 
BRANCH  17  18
ATOM     18  O   UNL     1       7.748   4.771 -12.944  0.00  0.00    -0.353 OA
BRANCH  18  19
ATOM     19  C   UNL     1       7.843   5.936 -13.707  0.00  0.00    +0.142 C 
BRANCH  19  20
ATOM     20  C   UNL     1       6.765   5.952 -14.776  0.00  0.00    +0.030 C 
ATOM     21  C   UNL     1       6.221   7.358 -15.011  0.00  0.00    +0.003 C 
ATOM     22  C   UNL     1       5.366   6.339 -14.287  0.00  0.00    +0.003 C 
ENDBRANCH  19  20
ENDBRANCH  18  19
ENDBRANCH  17  18
ENDBRANCH  16  17
ENDBRANCH   4  16
TORSDOF 11
ENDMDL
