MODEL 1
REMARK VINA RESULT:      -6.9      0.000      0.000
REMARK  Name = 
REMARK  8 active torsions:
REMARK  status: ('A' for Active; 'I' for Inactive)
REMARK    1  A    between atoms: C_2  and  N_4
REMARK    2  A    between atoms: N_4  and  C_5
REMARK    3  A    between atoms: C_5  and  C_6
REMARK    4  A    between atoms: C_6  and  C_8
REMARK    5  A    between atoms: C_8  and  O_9
REMARK    6  A    between atoms: O_9  and  C_10
REMARK    7  A    between atoms: C_13  and  C_14
REMARK    8  A    between atoms: C_14  and  C_15
REMARK                            x       y       z     vdW  Elec       q    Type
REMARK                         _______ _______ _______ _____ _____    ______ ____
ROOT
ATOM      1  C   UNL     1       4.415   5.258  -8.722  0.00  0.00    +0.139 A 
ATOM      2  C   UNL     1       3.944   6.293  -9.522  0.00  0.00    +0.037 A 
ATOM      3  C   UNL     1       4.787   6.809 -10.465  0.00  0.00    -0.001 A 
ATOM      4  C   UNL     1       6.121   6.485 -10.514  0.00  0.00    -0.013 A 
ATOM      5  C   UNL     1       6.656   5.760  -9.483  0.00  0.00    -0.001 A 
ATOM      6  C   UNL     1       5.789   5.185  -8.561  0.00  0.00    +0.037 A 
ENDROOT
BRANCH   1   7
ATOM      7  O   UNL     1       3.512   4.720  -7.831  0.00  0.00    -0.473 OA
BRANCH   7   8
ATOM      8  C   UNL     1       2.121   4.760  -7.985  0.00  0.00    +0.240 C 
BRANCH   8   9
ATOM      9  C   UNL     1       1.657   5.257  -6.480  0.00  0.00    +0.213 C 
ATOM     10  O   UNL     1       1.254   3.844  -6.078  0.00  0.00    -0.218 OA
BRANCH   9  11
ATOM     11  C   UNL     1       0.129   5.608  -7.000  0.00  0.00    +0.125 C 
BRANCH  11  12
ATOM     12  N   UNL     1      -0.662   5.356  -5.800  0.00  0.00    -0.217 NA
BRANCH  12  14
ATOM     13  C   UNL     1      -2.235   5.459  -6.366  0.00  0.00    +0.019 C 
ATOM     14  C   UNL     1      -1.975   5.899  -6.185  0.00  0.00    +0.073 C 
ATOM     15  C   UNL     1      -2.362   6.984  -5.180  0.00  0.00    +0.019 C 
ENDBRANCH  12  14
ENDBRANCH  11  12
ENDBRANCH   9  11
ENDBRANCH   8   9
ENDBRANCH   7   8
ENDBRANCH   1   7
BRANCH   4  16
ATOM     16  C   UNL     1       6.814   6.584 -11.831  0.00  0.00    +0.115 C 
BRANCH  16  17
ATOM     17  C   UNL     1       6.814   5.285 -12.532  0.00  0.00    +0.265 C 
ATOM     18  O   UNL     1       7.904   4.648 -12.569  0.00  0.00    -0.271 OA
ATOM     19  N   UNL     1       5.707   4.973 -13.377  0.00  0.00    -0.087 NA
ENDBRANCH  16  17
ENDBRANCH   4  16
TORSDOF 8
ENDMDL
MODEL 2
REMARK VINA RESULT:      -6.7      2.077      2.943
REMARK  Name = 
REMARK  8 active torsions:
REMARK  status: ('A' for Active; 'I' for Inactive)
REMARK    1  A    between atoms: C_2  and  N_4
REMARK    2  A    between atoms: N_4  and  C_5
REMARK    3  A    between atoms: C_5  and  C_6
REMARK    4  A    between atoms: C_6  and  C_8
REMARK    5  A    between atoms: C_8  and  O_9
REMARK    6  A    between atoms: O_9  and  C_10
REMARK    7  A    between atoms: C_13  and  C_14
REMARK    8  A    between atoms: C_14  and  C_15
REMARK                            x       y       z     vdW  Elec       q    Type
REMARK                         _______ _______ _______ _____ _____    ______ ____
ROOT
ATOM      1  C   UNL     1       4.439   5.188  -8.705  0.00  0.00    +0.139 A 
ATOM      2  C   UNL     1       3.970   6.231  -9.496  0.00  0.00    +0.037 A 
ATOM      3  C   UNL     1       4.820   6.768 -10.422  0.00  0.00    -0.001 A 
ATOM      4  C   UNL     1       6.156   6.454 -10.459  0.00  0.00    -0.013 A 
ATOM      5  C   UNL     1       6.685   5.719  -9.432  0.00  0.00    -0.001 A 
ATOM      6  C   UNL     1       5.812   5.124  -8.529  0.00  0.00    +0.037 A 
ENDROOT
BRANCH   1   7
ATOM      7  O   UNL     1       3.531   4.632  -7.832  0.00  0.00    -0.473 OA
BRANCH   7   8
ATOM      8  C   UNL     1       2.168   4.951  -7.790  0.00  0.00    +0.240 C 
BRANCH   8   9
ATOM      9  C   UNL     1       1.737   4.275  -6.347  0.00  0.00    +0.213 C 
ATOM     10  O   UNL     1       0.350   4.900  -6.405  0.00  0.00    -0.218 OA
BRANCH   9  11
ATOM     11  C   UNL     1       2.343   5.555  -5.497  0.00  0.00    +0.125 C 
BRANCH  11  12
ATOM     12  N   UNL     1       3.079   4.885  -4.430  0.00  0.00    -0.217 NA
BRANCH  12  14
ATOM     13  C   UNL     1       4.726   5.156  -4.571  0.00  0.00    +0.019 C 
ATOM     14  C   UNL     1       4.383   5.567  -4.489  0.00  0.00    +0.073 C 
ATOM     15  C   UNL     1       4.194   6.908  -5.197  0.00  0.00    +0.019 C 
ENDBRANCH  12  14
ENDBRANCH  11  12
ENDBRANCH   9  11
ENDBRANCH   8   9
ENDBRANCH   7   8
ENDBRANCH   1   7
BRANCH   4  16
ATOM     16  C   UNL     1       6.864   6.578 -11.767  0.00  0.00    +0.115 C 
BRANCH  16  17
ATOM     17  C   UNL     1       6.839   5.301 -12.508  0.00  0.00    +0.265 C 
ATOM     18  O   UNL     1       7.914   4.640 -12.554  0.00  0.00    -0.271 OA
ATOM     19  N   UNL     1       5.734   5.043 -13.373  0.00  0.00    -0.087 NA
ENDBRANCH  16  17
ENDBRANCH   4  16
TORSDOF 8
ENDMDL
MODEL 3
REMARK VINA RESULT:      -6.7      2.223      2.597
REMARK  Name = 
REMARK  8 active torsions:
REMARK  status: ('A' for Active; 'I' for Inactive)
REMARK    1  A    between atoms: C_2  and  N_4
REMARK    2  A    between atoms: N_4  and  C_5
REMARK    3  A    between atoms: C_5  and  C_6
REMARK    4  A    between atoms: C_6  and  C_8
REMARK    5  A    between atoms: C_8  and  O_9
REMARK    6  A    between atoms: O_9  and  C_10
REMARK    7  A    between atoms: C_13  and  C_14
REMARK    8  A    between atoms: C_14  and  C_15
REMARK                            x       y       z     vdW  Elec       q    Type
REMARK                         _______ _______ _______ _____ _____    ______ ____
ROOT
ATOM      1  C   UNL     1       5.177   5.445  -9.026  0.00  0.00    +0.139 A 
ATOM      2  C   UNL     1       4.581   6.392  -9.850  0.00  0.00    +0.037 A 
ATOM      3  C   UNL     1       5.354   6.991 -10.805  0.00  0.00    -0.001 A 
ATOM      4  C   UNL     1       6.718   6.839 -10.844  0.00  0.00    -0.013 A 
ATOM      5  C   UNL     1       7.338   6.213  -9.796  0.00  0.00    -0.001 A 
ATOM      6  C   UNL     1       6.549   5.553  -8.862  0.00  0.00    +0.037 A 
ENDROOT
BRANCH   1   7
ATOM      7  O   UNL     1       4.348   4.817  -8.123  0.00  0.00    -0.473 OA
BRANCH   7   8
ATOM      8  C   UNL     1       3.041   4.397  -8.400  0.00  0.00    +0.240 C 
BRANCH   8   9
ATOM      9  C   UNL     1       2.181   5.370  -7.380  0.00  0.00    +0.213 C 
ATOM     10  O   UNL     1       1.415   4.185  -6.808  0.00  0.00    -0.218 OA
BRANCH   9  11
ATOM     11  C   UNL     1       1.020   5.644  -8.523  0.00  0.00    +0.125 C 
BRANCH  11  12
ATOM     12  N   UNL     1       1.375   4.672  -9.551  0.00  0.00    -0.217 NA
BRANCH  12  14
ATOM     13  C   UNL     1       0.097   4.616 -10.632  0.00  0.00    +0.019 C 
ATOM     14  C   UNL     1       0.448   5.029 -10.638  0.00  0.00    +0.073 C 
ATOM     15  C   UNL     1       0.255   6.545 -10.628  0.00  0.00    +0.019 C 
ENDBRANCH  12  14
ENDBRANCH  11  12
ENDBRANCH   9  11
ENDBRANCH   8   9
ENDBRANCH   7   8
ENDBRANCH   1   7
BRANCH   4  16
ATOM     16  C   UNL     1       7.398   6.996 -12.164  0.00  0.00    +0.115 C 
BRANCH  16  17
ATOM     17  C   UNL     1       8.245   5.826 -12.468  0.00  0.00    +0.265 C 
ATOM     18  O   UNL     1       9.496   6.002 -12.464  0.00  0.00    -0.271 OA
ATOM     19  N   UNL     1       7.628   4.676 -13.045  0.00  0.00    -0.087 NA
ENDBRANCH  16  17
ENDBRANCH   4  16
TORSDOF 8
ENDMDL
MODEL 4
REMARK VINA RESULT:      -6.6      3.856      8.497
REMARK  Name = 
REMARK  8 active torsions:
REMARK  status: ('A' for Active; 'I' for Inactive)
REMARK    1  A    between atoms: C_2  and  N_4
REMARK    2  A    between atoms: N_4  and  C_5
REMARK    3  A    between atoms: C_5  and  C_6
REMARK    4  A    between atoms: C_6  and  C_8
REMARK    5  A    between atoms: C_8  and  O_9
REMARK    6  A    between atoms: O_9  and  C_10
REMARK    7  A    between atoms: C_13  and  C_14
REMARK    8  A    between atoms: C_14  and  C_15
REMARK                            x       y       z     vdW  Elec       q    Type
REMARK                         _______ _______ _______ _____ _____    ______ ____
ROOT
ATOM      1  C   UNL     1      -0.119   5.748  -6.361  0.00  0.00    +0.139 A 
ATOM      2  C   UNL     1       0.095   6.836  -5.524  0.00  0.00    +0.037 A 
ATOM      3  C   UNL     1      -0.925   7.225  -4.702  0.00  0.00    -0.001 A 
ATOM      4  C   UNL     1      -2.195   6.714  -4.817  0.00  0.00    -0.013 A 
ATOM      5  C   UNL     1      -2.487   5.924  -5.896  0.00  0.00    -0.001 A 
ATOM      6  C   UNL     1      -1.438   5.482  -6.694  0.00  0.00    +0.037 A 
ENDROOT
BRANCH   1   7
ATOM      7  O   UNL     1       0.956   5.348  -7.125  0.00  0.00    -0.473 OA
BRANCH   7   8
ATOM      8  C   UNL     1       2.228   5.057  -6.617  0.00  0.00    +0.240 C 
BRANCH   8   9
ATOM      9  C   UNL     1       3.134   6.213  -7.372  0.00  0.00    +0.213 C 
ATOM     10  O   UNL     1       4.334   5.283  -7.476  0.00  0.00    -0.218 OA
BRANCH   9  11
ATOM     11  C   UNL     1       3.660   6.827  -5.932  0.00  0.00    +0.125 C 
BRANCH  11  12
ATOM     12  N   UNL     1       3.866   5.615  -5.146  0.00  0.00    -0.217 NA
BRANCH  12  14
ATOM     13  C   UNL     1       4.851   5.690  -3.793  0.00  0.00    +0.019 C 
ATOM     14  C   UNL     1       4.603   6.133  -3.981  0.00  0.00    +0.073 C 
ATOM     15  C   UNL     1       5.114   7.534  -4.317  0.00  0.00    +0.019 C 
ENDBRANCH  12  14
ENDBRANCH  11  12
ENDBRANCH   9  11
ENDBRANCH   8   9
ENDBRANCH   7   8
ENDBRANCH   1   7
BRANCH   4  16
ATOM     16  C   UNL     1      -3.056   6.709  -3.598  0.00  0.00    +0.115 C 
BRANCH  16  17
ATOM     17  C   UNL     1      -2.513   5.803  -2.567  0.00  0.00    +0.265 C 
ATOM     18  O   UNL     1      -2.770   4.572  -2.686  0.00  0.00    -0.271 OA
ATOM     19  N   UNL     1      -2.017   6.376  -1.358  0.00  0.00    -0.087 NA
ENDBRANCH  16  17
ENDBRANCH   4  16
TORSDOF 8
ENDMDL
MODEL 5
REMARK VINA RESULT:      -6.5      2.320      8.411
REMARK  Name = 
REMARK  8 active torsions:
REMARK  status: ('A' for Active; 'I' for Inactive)
REMARK    1  A    between atoms: C_2  and  N_4
REMARK    2  A    between atoms: N_4  and  C_5
REMARK    3  A    between atoms: C_5  and  C_6
REMARK    4  A    between atoms: C_6  and  C_8
REMARK    5  A    between atoms: C_8  and  O_9
REMARK    6  A    between atoms: O_9  and  C_10
REMARK    7  A    between atoms: C_13  and  C_14
REMARK    8  A    between atoms: C_14  and  C_15
REMARK                            x       y       z     vdW  Elec       q    Type
REMARK                         _______ _______ _______ _____ _____    ______ ____
ROOT
ATOM      1  C   UNL     1       1.073   6.045  -7.974  0.00  0.00    +0.139 A 
ATOM      2  C   UNL     1       1.350   6.959  -6.963  0.00  0.00    +0.037 A 
ATOM      3  C   UNL     1       0.657   6.847  -5.790  0.00  0.00    -0.001 A 
ATOM      4  C   UNL     1      -0.420   6.008  -5.651  0.00  0.00    -0.013 A 
ATOM      5  C   UNL     1      -0.922   5.396  -6.769  0.00  0.00    -0.001 A 
ATOM      6  C   UNL     1      -0.183   5.461  -7.944  0.00  0.00    +0.037 A 
ENDROOT
BRANCH   1   7
ATOM      7  O   UNL     1       1.840   6.150  -9.114  0.00  0.00    -0.473 OA
BRANCH   7   8
ATOM      8  C   UNL     1       3.198   6.490  -9.131  0.00  0.00    +0.240 C 
BRANCH   8   9
ATOM      9  C   UNL     1       3.784   5.367 -10.192  0.00  0.00    +0.213 C 
ATOM     10  O   UNL     1       4.086   4.385  -9.069  0.00  0.00    -0.218 OA
BRANCH   9  11
ATOM     11  C   UNL     1       5.305   6.006 -10.122  0.00  0.00    +0.125 C 
BRANCH  11  12
ATOM     12  N   UNL     1       5.106   7.321 -10.724  0.00  0.00    -0.217 NA
BRANCH  12  14
ATOM     13  C   UNL     1       6.403   8.127 -11.413  0.00  0.00    +0.019 C 
ATOM     14  C   UNL     1       6.441   7.604 -11.278  0.00  0.00    +0.073 C 
ATOM     15  C   UNL     1       7.475   6.821 -10.469  0.00  0.00    +0.019 C 
ENDBRANCH  12  14
ENDBRANCH  11  12
ENDBRANCH   9  11
ENDBRANCH   8   9
ENDBRANCH   7   8
ENDBRANCH   1   7
BRANCH   4  16
ATOM     16  C   UNL     1      -0.736   5.500  -4.284  0.00  0.00    +0.115 C 
BRANCH  16  17
ATOM     17  C   UNL     1      -2.148   5.752  -3.936  0.00  0.00    +0.265 C 
ATOM     18  O   UNL     1      -2.616   6.892  -4.211  0.00  0.00    -0.271 OA
ATOM     19  N   UNL     1      -2.798   4.843  -3.048  0.00  0.00    -0.087 NA
ENDBRANCH  16  17
ENDBRANCH   4  16
TORSDOF 8
ENDMDL
MODEL 6
REMARK VINA RESULT:      -6.4      2.733      8.362
REMARK  Name = 
REMARK  8 active torsions:
REMARK  status: ('A' for Active; 'I' for Inactive)
REMARK    1  A    between atoms: C_2  and  N_4
REMARK    2  A    between atoms: N_4  and  C_5
REMARK    3  A    between atoms: C_5  and  C_6
REMARK    4  A    between atoms: C_6  and  C_8
REMARK    5  A    between atoms: C_8  and  O_9
REMARK    6  A    between atoms: O_9  and  C_10
REMARK    7  A    between atoms: C_13  and  C_14
REMARK    8  A    between atoms: C_14  and  C_15
REMARK                            x       y       z     vdW  Elec       q    Type
REMARK                         _______ _______ _______ _____ _____    ______ ____
ROOT
ATOM      1  C   UNL     1       0.247   5.837  -7.079  0.00  0.00    +0.139 A 
ATOM      2  C   UNL     1      -1.021   5.282  -7.211  0.00  0.00    +0.037 A 
ATOM      3  C   UNL     1      -1.933   5.523  -6.222  0.00  0.00    -0.001 A 
ATOM      4  C   UNL     1      -1.586   6.113  -5.032  0.00  0.00    -0.013 A 
ATOM      5  C   UNL     1      -0.258   6.306  -4.760  0.00  0.00    -0.001 A 
ATOM      6  C   UNL     1       0.660   6.119  -5.787  0.00  0.00    +0.037 A 
ENDROOT
BRANCH   1   7
ATOM      7  O   UNL     1       1.114   5.626  -8.129  0.00  0.00    -0.473 OA
BRANCH   7   8
ATOM      8  C   UNL     1       1.129   6.375  -9.312  0.00  0.00    +0.240 C 
BRANCH   8   9
ATOM      9  C   UNL     1       2.063   5.413 -10.275  0.00  0.00    +0.213 C 
ATOM     10  O   UNL     1       1.937   4.237  -9.316  0.00  0.00    -0.218 OA
BRANCH   9  11
ATOM     11  C   UNL     1       3.453   5.932  -9.551  0.00  0.00    +0.125 C 
BRANCH  11  12
ATOM     12  N   UNL     1       4.144   4.673  -9.291  0.00  0.00    -0.217 NA
BRANCH  12  14
ATOM     13  C   UNL     1       5.554   5.331  -8.670  0.00  0.00    +0.019 C 
ATOM     14  C   UNL     1       5.191   5.094  -8.345  0.00  0.00    +0.073 C 
ATOM     15  C   UNL     1       4.518   5.546  -7.049  0.00  0.00    +0.019 C 
ENDBRANCH  12  14
ENDBRANCH  11  12
ENDBRANCH   9  11
ENDBRANCH   8   9
ENDBRANCH   7   8
ENDBRANCH   1   7
BRANCH   4  16
ATOM     16  C   UNL     1      -2.644   6.859  -4.290  0.00  0.00    +0.115 C 
BRANCH  16  17
ATOM     17  C   UNL     1      -2.900   6.246  -2.971  0.00  0.00    +0.265 C 
ATOM     18  O   UNL     1      -2.846   7.004  -1.962  0.00  0.00    -0.271 OA
ATOM     19  N   UNL     1      -2.879   4.823  -2.871  0.00  0.00    -0.087 NA
ENDBRANCH  16  17
ENDBRANCH   4  16
TORSDOF 8
ENDMDL
MODEL 7
REMARK VINA RESULT:      -6.4      2.480      8.696
REMARK  Name = 
REMARK  8 active torsions:
REMARK  status: ('A' for Active; 'I' for Inactive)
REMARK    1  A    between atoms: C_2  and  N_4
REMARK    2  A    between atoms: N_4  and  C_5
REMARK    3  A    between atoms: C_5  and  C_6
REMARK    4  A    between atoms: C_6  and  C_8
REMARK    5  A    between atoms: C_8  and  O_9
REMARK    6  A    between atoms: O_9  and  C_10
REMARK    7  A    between atoms: C_13  and  C_14
REMARK    8  A    between atoms: C_14  and  C_15
REMARK                            x       y       z     vdW  Elec       q    Type
REMARK                         _______ _______ _______ _____ _____    ______ ____
ROOT
ATOM      1  C   UNL     1      -0.126   5.461  -6.616  0.00  0.00    +0.139 A 
ATOM      2  C   UNL     1       0.259   6.531  -5.817  0.00  0.00    +0.037 A 
ATOM      3  C   UNL     1      -0.662   7.051  -4.951  0.00  0.00    -0.001 A 
ATOM      4  C   UNL     1      -1.986   6.691  -4.987  0.00  0.00    -0.013 A 
ATOM      5  C   UNL     1      -2.428   5.922  -6.030  0.00  0.00    -0.001 A 
ATOM      6  C   UNL     1      -1.483   5.345  -6.871  0.00  0.00    +0.037 A 
ENDROOT
BRANCH   1   7
ATOM      7  O   UNL     1       0.851   4.924  -7.425  0.00  0.00    -0.473 OA
BRANCH   7   8
ATOM      8  C   UNL     1       1.902   5.653  -7.995  0.00  0.00    +0.240 C 
BRANCH   8   9
ATOM      9  C   UNL     1       3.205   4.822  -7.415  0.00  0.00    +0.213 C 
ATOM     10  O   UNL     1       3.966   6.109  -7.125  0.00  0.00    -0.218 OA
BRANCH   9  11
ATOM     11  C   UNL     1       3.873   4.697  -8.920  0.00  0.00    +0.125 C 
BRANCH  11  12
ATOM     12  N   UNL     1       4.499   6.005  -9.081  0.00  0.00    -0.217 NA
BRANCH  12  14
ATOM     13  C   UNL     1       5.319   5.979 -10.542  0.00  0.00    +0.019 C 
ATOM     14  C   UNL     1       5.519   5.727 -10.106  0.00  0.00    +0.073 C 
ATOM     15  C   UNL     1       6.894   5.759  -9.437  0.00  0.00    +0.019 C 
ENDBRANCH  12  14
ENDBRANCH  11  12
ENDBRANCH   9  11
ENDBRANCH   8   9
ENDBRANCH   7   8
ENDBRANCH   1   7
BRANCH   4  16
ATOM     16  C   UNL     1      -2.774   6.808  -3.725  0.00  0.00    +0.115 C 
BRANCH  16  17
ATOM     17  C   UNL     1      -2.382   5.767  -2.754  0.00  0.00    +0.265 C 
ATOM     18  O   UNL     1      -2.916   4.630  -2.879  0.00  0.00    -0.271 OA
ATOM     19  N   UNL     1      -1.690   6.171  -1.573  0.00  0.00    -0.087 NA
ENDBRANCH  16  17
ENDBRANCH   4  16
TORSDOF 8
ENDMDL
MODEL 8
REMARK VINA RESULT:      -6.2      1.701      2.131
REMARK  Name = 
REMARK  8 active torsions:
REMARK  status: ('A' for Active; 'I' for Inactive)
REMARK    1  A    between atoms: C_2  and  N_4
REMARK    2  A    between atoms: N_4  and  C_5
REMARK    3  A    between atoms: C_5  and  C_6
REMARK    4  A    between atoms: C_6  and  C_8
REMARK    5  A    between atoms: C_8  and  O_9
REMARK    6  A    between atoms: O_9  and  C_10
REMARK    7  A    between atoms: C_13  and  C_14
REMARK    8  A    between atoms: C_14  and  C_15
REMARK                            x       y       z     vdW  Elec       q    Type
REMARK                         _______ _______ _______ _____ _____    ______ ____
ROOT
ATOM      1  C   UNL     1       4.537   5.637  -8.747  0.00  0.00    +0.139 A 
ATOM      2  C   UNL     1       5.890   5.419  -8.517  0.00  0.00    +0.037 A 
ATOM      3  C   UNL     1       6.766   5.689  -9.530  0.00  0.00    -0.001 A 
ATOM      4  C   UNL     1       6.346   5.971 -10.807  0.00  0.00    -0.013 A 
ATOM      5  C   UNL     1       5.022   5.805 -11.112  0.00  0.00    -0.001 A 
ATOM      6  C   UNL     1       4.126   5.592 -10.070  0.00  0.00    +0.037 A 
ENDROOT
BRANCH   1   7
ATOM      7  O   UNL     1       3.695   5.416  -7.679  0.00  0.00    -0.473 OA
BRANCH   7   8
ATOM      8  C   UNL     1       3.154   6.423  -6.870  0.00  0.00    +0.240 C 
BRANCH   8   9
ATOM      9  C   UNL     1       1.761   6.762  -7.690  0.00  0.00    +0.213 C 
ATOM     10  O   UNL     1       2.076   8.251  -7.721  0.00  0.00    -0.218 OA
BRANCH   9  11
ATOM     11  C   UNL     1       0.901   6.913  -6.288  0.00  0.00    +0.125 C 
BRANCH  11  12
ATOM     12  N   UNL     1       0.370   5.564  -6.114  0.00  0.00    -0.217 NA
BRANCH  12  14
ATOM     13  C   UNL     1      -0.042   5.554  -4.491  0.00  0.00    +0.019 C 
ATOM     14  C   UNL     1      -0.402   5.702  -4.868  0.00  0.00    +0.073 C 
ATOM     15  C   UNL     1      -1.316   6.920  -5.000  0.00  0.00    +0.019 C 
ENDBRANCH  12  14
ENDBRANCH  11  12
ENDBRANCH   9  11
ENDBRANCH   8   9
ENDBRANCH   7   8
ENDBRANCH   1   7
BRANCH   4  16
ATOM     16  C   UNL     1       7.240   6.801 -11.667  0.00  0.00    +0.115 C 
BRANCH  16  17
ATOM     17  C   UNL     1       7.451   6.167 -12.983  0.00  0.00    +0.265 C 
ATOM     18  O   UNL     1       7.019   6.783 -13.997  0.00  0.00    -0.271 OA
ATOM     19  N   UNL     1       7.830   4.791 -13.018  0.00  0.00    -0.087 NA
ENDBRANCH  16  17
ENDBRANCH   4  16
TORSDOF 8
ENDMDL
MODEL 9
REMARK VINA RESULT:      -6.1      2.113      3.282
REMARK  Name = 
REMARK  8 active torsions:
REMARK  status: ('A' for Active; 'I' for Inactive)
REMARK    1  A    between atoms: C_2  and  N_4
REMARK    2  A    between atoms: N_4  and  C_5
REMARK    3  A    between atoms: C_5  and  C_6
REMARK    4  A    between atoms: C_6  and  C_8
REMARK    5  A    between atoms: C_8  and  O_9
REMARK    6  A    between atoms: O_9  and  C_10
REMARK    7  A    between atoms: C_13  and  C_14
REMARK    8  A    between atoms: C_14  and  C_15
REMARK                            x       y       z     vdW  Elec       q    Type
REMARK                         _______ _______ _______ _____ _____    ______ ____
ROOT
ATOM      1  C   UNL     1       3.846   5.690  -8.810  0.00  0.00    +0.139 A 
ATOM      2  C   UNL     1       5.089   5.369  -8.278  0.00  0.00    +0.037 A 
ATOM      3  C   UNL     1       6.189   5.536  -9.071  0.00  0.00    -0.001 A 
ATOM      4  C   UNL     1       6.091   5.813 -10.413  0.00  0.00    -0.013 A 
ATOM      5  C   UNL     1       4.859   5.747 -11.006  0.00  0.00    -0.001 A 
ATOM      6  C   UNL     1       3.739   5.639 -10.191  0.00  0.00    +0.037 A 
ENDROOT
BRANCH   1   7
ATOM      7  O   UNL     1       2.771   5.571  -7.957  0.00  0.00    -0.473 OA
BRANCH   7   8
ATOM      8  C   UNL     1       2.555   4.489  -7.094  0.00  0.00    +0.240 C 
BRANCH   8   9
ATOM      9  C   UNL     1       1.389   5.112  -6.104  0.00  0.00    +0.213 C 
ATOM     10  O   UNL     1       0.551   5.573  -7.289  0.00  0.00    -0.218 OA
BRANCH   9  11
ATOM     11  C   UNL     1       2.162   6.568  -6.008  0.00  0.00    +0.125 C 
BRANCH  11  12
ATOM     12  N   UNL     1       2.676   6.545  -4.642  0.00  0.00    -0.217 NA
BRANCH  12  14
ATOM     13  C   UNL     1       4.162   7.301  -4.812  0.00  0.00    +0.019 C 
ATOM     14  C   UNL     1       4.116   6.763  -4.858  0.00  0.00    +0.073 C 
ATOM     15  C   UNL     1       4.880   5.607  -4.213  0.00  0.00    +0.019 C 
ENDBRANCH  12  14
ENDBRANCH  11  12
ENDBRANCH   9  11
ENDBRANCH   8   9
ENDBRANCH   7   8
ENDBRANCH   1   7
BRANCH   4  16
ATOM     16  C   UNL     1       7.223   6.541 -11.058  0.00  0.00    +0.115 C 
BRANCH  16  17
ATOM     17  C   UNL     1       7.467   6.040 -12.425  0.00  0.00    +0.265 C 
ATOM     18  O   UNL     1       7.082   6.767 -13.383  0.00  0.00    -0.271 OA
ATOM     19  N   UNL     1       7.821   4.668 -12.589  0.00  0.00    -0.087 NA
ENDBRANCH  16  17
ENDBRANCH   4  16
TORSDOF 8
ENDMDL
