MODEL 1
REMARK VINA RESULT:      -8.6      0.000      0.000
REMARK  Name = 
REMARK  2 active torsions:
REMARK  status: ('A' for Active; 'I' for Inactive)
REMARK    1  A    between atoms: C_2  and  C_3
REMARK    2  A    between atoms: C_22  and  C_23
REMARK                            x       y       z     vdW  Elec       q    Type
REMARK                         _______ _______ _______ _____ _____    ______ ____
ROOT
ATOM      1  C   UNL     1      -1.881   7.284  -3.985  0.00  0.00    +0.180 C 
ATOM      2  C   UNL     1      -0.715   6.482  -4.594  0.00  0.00    +0.037 C 
ATOM      3  C   UNL     1      -1.525   6.275  -5.966  0.00  0.00    +0.003 C 
ATOM      4  C   UNL     1      -0.607   5.081  -6.744  0.00  0.00    +0.001 C 
ATOM      5  C   UNL     1       0.193   6.347  -7.539  0.00  0.00    +0.004 C 
ATOM      6  C   UNL     1       1.087   6.900  -6.333  0.00  0.00    +0.000 C 
ATOM      7  C   UNL     1       1.259   5.232  -8.252  0.00  0.00    +0.019 C 
ATOM      8  C   UNL     1       2.376   5.200  -7.107  0.00  0.00    -0.043 C 
ATOM      9  C   UNL     1       3.561   4.752  -7.541  0.00  0.00    +0.010 C 
ATOM     10  C   UNL     1       4.205   5.746  -8.418  0.00  0.00    +0.101 C 
ATOM     11  C   UNL     1       3.226   6.805  -8.769  0.00  0.00    +0.050 C 
ATOM     12  N   UNL     1       5.325   5.552  -8.992  0.00  0.00    -0.034 NA
ATOM     13  O   UNL     1       5.648   5.975 -10.242  0.00  0.00    -0.143 OA
ATOM     14  C   UNL     1       1.751   4.265  -6.111  0.00  0.00    +0.022 C 
ATOM     15  C   UNL     1       1.920   6.385  -9.178  0.00  0.00    +0.010 C 
ATOM     16  C   UNL     1       0.492   4.717  -5.653  0.00  0.00    +0.004 C 
ATOM     17  C   UNL     1      -2.592   5.303  -5.223  0.00  0.00    +0.004 C 
ATOM     18  C   UNL     1       0.352   7.321  -5.158  0.00  0.00    +0.003 C 
ATOM     19  C   UNL     1      -3.109   6.486  -4.395  0.00  0.00    +0.043 C 
ATOM     20  O   UNL     1      -1.784   8.526  -4.553  0.00  0.00    -0.212 OA
ENDROOT
BRANCH   1  22
ATOM     21  C   UNL     1      -1.875   7.432  -1.348  0.00  0.00    -0.012 C 
ATOM     22  C   UNL     1      -1.801   7.311  -2.532  0.00  0.00    -0.049 C 
ENDBRANCH   1  22
BRANCH   2  23
ATOM     23  C   UNL     1      -0.536   5.484  -3.675  0.00  0.00    +0.003 C 
ATOM     24  C   UNL     1       0.482   5.197  -2.728  0.00  0.00    +0.000 C 
ENDBRANCH   2  23
TORSDOF 2
ENDMDL
MODEL 2
REMARK VINA RESULT:      -8.5      3.844      6.284
REMARK  Name = 
REMARK  2 active torsions:
REMARK  status: ('A' for Active; 'I' for Inactive)
REMARK    1  A    between atoms: C_2  and  C_3
REMARK    2  A    between atoms: C_22  and  C_23
REMARK                            x       y       z     vdW  Elec       q    Type
REMARK                         _______ _______ _______ _____ _____    ______ ____
ROOT
ATOM      1  C   UNL     1       2.070   6.791  -8.273  0.00  0.00    +0.180 C 
ATOM      2  C   UNL     1       2.480   6.145  -6.936  0.00  0.00    +0.037 C 
ATOM      3  C   UNL     1       3.984   6.691  -7.092  0.00  0.00    +0.003 C 
ATOM      4  C   UNL     1       4.806   5.813  -5.898  0.00  0.00    +0.001 C 
ATOM      5  C   UNL     1       4.550   7.143  -4.877  0.00  0.00    +0.004 C 
ATOM      6  C   UNL     1       2.988   6.961  -4.585  0.00  0.00    +0.000 C 
ATOM      7  C   UNL     1       5.227   6.281  -3.578  0.00  0.00    +0.019 C 
ATOM      8  C   UNL     1       3.899   5.570  -3.041  0.00  0.00    -0.043 C 
ATOM      9  C   UNL     1       3.999   5.159  -1.770  0.00  0.00    +0.010 C 
ATOM     10  C   UNL     1       3.994   6.310  -0.849  0.00  0.00    +0.101 C 
ATOM     11  C   UNL     1       4.160   7.566  -1.622  0.00  0.00    +0.050 C 
ATOM     12  N   UNL     1       4.114   6.196   0.414  0.00  0.00    -0.034 NA
ATOM     13  O   UNL     1       4.794   7.055   1.217  0.00  0.00    -0.143 OA
ATOM     14  C   UNL     1       3.774   4.418  -3.997  0.00  0.00    +0.022 C 
ATOM     15  C   UNL     1       5.182   7.590  -2.625  0.00  0.00    +0.010 C 
ATOM     16  C   UNL     1       3.681   4.834  -5.345  0.00  0.00    +0.004 C 
ATOM     17  C   UNL     1       4.248   5.690  -8.342  0.00  0.00    +0.004 C 
ATOM     18  C   UNL     1       2.135   6.952  -5.756  0.00  0.00    +0.003 C 
ATOM     19  C   UNL     1       3.237   6.469  -9.193  0.00  0.00    +0.043 C 
ATOM     20  O   UNL     1       1.913   8.121  -7.984  0.00  0.00    -0.212 OA
ENDROOT
BRANCH   1  22
ATOM     21  C   UNL     1      -0.107   5.780  -9.377  0.00  0.00    -0.012 C 
ATOM     22  C   UNL     1       0.864   6.175  -8.808  0.00  0.00    -0.049 C 
ENDBRANCH   1  22
BRANCH   2  23
ATOM     23  C   UNL     1       2.138   4.835  -7.128  0.00  0.00    +0.003 C 
ATOM     24  C   UNL     1       1.252   3.948  -6.462  0.00  0.00    +0.000 C 
ENDBRANCH   2  23
TORSDOF 2
ENDMDL
MODEL 3
REMARK VINA RESULT:      -8.5      3.201      4.790
REMARK  Name = 
REMARK  2 active torsions:
REMARK  status: ('A' for Active; 'I' for Inactive)
REMARK    1  A    between atoms: C_2  and  C_3
REMARK    2  A    between atoms: C_22  and  C_23
REMARK                            x       y       z     vdW  Elec       q    Type
REMARK                         _______ _______ _______ _____ _____    ______ ____
ROOT
ATOM      1  C   UNL     1       4.422   5.376  -3.445  0.00  0.00    +0.180 C 
ATOM      2  C   UNL     1       3.295   5.606  -4.469  0.00  0.00    +0.037 C 
ATOM      3  C   UNL     1       4.212   6.627  -5.305  0.00  0.00    +0.003 C 
ATOM      4  C   UNL     1       3.083   7.350  -6.343  0.00  0.00    +0.001 C 
ATOM      5  C   UNL     1       3.533   6.185  -7.490  0.00  0.00    +0.004 C 
ATOM      6  C   UNL     1       2.819   4.899  -6.861  0.00  0.00    +0.000 C 
ATOM      7  C   UNL     1       2.323   6.748  -8.542  0.00  0.00    +0.019 C 
ATOM      8  C   UNL     1       1.115   5.831  -8.034  0.00  0.00    -0.043 C 
ATOM      9  C   UNL     1       0.129   5.714  -8.934  0.00  0.00    +0.010 C 
ATOM     10  C   UNL     1       0.554   4.872 -10.066  0.00  0.00    +0.101 C 
ATOM     11  C   UNL     1       2.020   4.648  -9.995  0.00  0.00    +0.050 C 
ATOM     12  N   UNL     1      -0.184   4.631 -11.076  0.00  0.00    -0.034 NA
ATOM     13  O   UNL     1       0.252   4.527 -12.358  0.00  0.00    -0.143 OA
ATOM     14  C   UNL     1       0.672   6.578  -6.809  0.00  0.00    +0.022 C 
ATOM     15  C   UNL     1       2.848   5.787  -9.736  0.00  0.00    +0.010 C 
ATOM     16  C   UNL     1       1.706   6.724  -5.855  0.00  0.00    +0.004 C 
ATOM     17  C   UNL     1       4.151   7.713  -4.100  0.00  0.00    +0.004 C 
ATOM     18  C   UNL     1       3.216   4.569  -5.508  0.00  0.00    +0.003 C 
ATOM     19  C   UNL     1       4.966   6.776  -3.200  0.00  0.00    +0.043 C 
ATOM     20  O   UNL     1       5.291   4.521  -4.068  0.00  0.00    -0.212 OA
ENDROOT
BRANCH   1  22
ATOM     21  C   UNL     1       3.633   4.401  -1.120  0.00  0.00    -0.012 C 
ATOM     22  C   UNL     1       3.898   4.849  -2.193  0.00  0.00    -0.049 C 
ENDBRANCH   1  22
BRANCH   2  23
ATOM     23  C   UNL     1       2.258   6.013  -3.675  0.00  0.00    +0.003 C 
ATOM     24  C   UNL     1       1.004   5.441  -3.334  0.00  0.00    +0.000 C 
ENDBRANCH   2  23
TORSDOF 2
ENDMDL
MODEL 4
REMARK VINA RESULT:      -8.2      3.304      6.090
REMARK  Name = 
REMARK  2 active torsions:
REMARK  status: ('A' for Active; 'I' for Inactive)
REMARK    1  A    between atoms: C_2  and  C_3
REMARK    2  A    between atoms: C_22  and  C_23
REMARK                            x       y       z     vdW  Elec       q    Type
REMARK                         _______ _______ _______ _____ _____    ______ ____
ROOT
ATOM      1  C   UNL     1       2.206   6.179  -9.360  0.00  0.00    +0.180 C 
ATOM      2  C   UNL     1       2.033   6.020  -7.838  0.00  0.00    +0.037 C 
ATOM      3  C   UNL     1       3.464   5.301  -7.713  0.00  0.00    +0.003 C 
ATOM      4  C   UNL     1       3.406   4.664  -6.143  0.00  0.00    +0.001 C 
ATOM      5  C   UNL     1       4.200   6.077  -5.642  0.00  0.00    +0.004 C 
ATOM      6  C   UNL     1       2.993   7.119  -5.759  0.00  0.00    +0.000 C 
ATOM      7  C   UNL     1       4.054   5.590  -4.021  0.00  0.00    +0.019 C 
ATOM      8  C   UNL     1       2.627   6.237  -3.701  0.00  0.00    -0.043 C 
ATOM      9  C   UNL     1       2.410   6.409  -2.390  0.00  0.00    +0.010 C 
ATOM     10  C   UNL     1       3.246   7.501  -1.862  0.00  0.00    +0.101 C 
ATOM     11  C   UNL     1       4.263   7.881  -2.874  0.00  0.00    +0.050 C 
ATOM     12  N   UNL     1       3.256   7.844  -0.635  0.00  0.00    -0.034 NA
ATOM     13  O   UNL     1       4.354   8.249   0.055  0.00  0.00    -0.143 OA
ATOM     14  C   UNL     1       1.700   5.217  -4.297  0.00  0.00    +0.022 C 
ATOM     15  C   UNL     1       4.978   6.822  -3.518  0.00  0.00    +0.010 C 
ATOM     16  C   UNL     1       1.926   5.013  -5.677  0.00  0.00    +0.004 C 
ATOM     17  C   UNL     1       2.912   4.000  -8.513  0.00  0.00    +0.004 C 
ATOM     18  C   UNL     1       2.388   7.224  -7.071  0.00  0.00    +0.003 C 
ATOM     19  C   UNL     1       2.771   4.834  -9.792  0.00  0.00    +0.043 C 
ATOM     20  O   UNL     1       3.062   7.238  -9.506  0.00  0.00    -0.212 OA
ENDROOT
BRANCH   1  22
ATOM     21  C   UNL     1      -0.035   6.578 -10.700  0.00  0.00    -0.012 C 
ATOM     22  C   UNL     1       0.924   6.384 -10.018  0.00  0.00    -0.049 C 
ENDBRANCH   1  22
BRANCH   2  23
ATOM     23  C   UNL     1       0.847   5.345  -7.748  0.00  0.00    +0.003 C 
ATOM     24  C   UNL     1      -0.429   5.674  -7.220  0.00  0.00    +0.000 C 
ENDBRANCH   2  23
TORSDOF 2
ENDMDL
MODEL 5
REMARK VINA RESULT:      -8.0      3.666      5.098
REMARK  Name = 
REMARK  2 active torsions:
REMARK  status: ('A' for Active; 'I' for Inactive)
REMARK    1  A    between atoms: C_2  and  C_3
REMARK    2  A    between atoms: C_22  and  C_23
REMARK                            x       y       z     vdW  Elec       q    Type
REMARK                         _______ _______ _______ _____ _____    ______ ____
ROOT
ATOM      1  C   UNL     1       2.718   6.221  -5.698  0.00  0.00    +0.180 C 
ATOM      2  C   UNL     1       2.817   6.005  -7.220  0.00  0.00    +0.037 C 
ATOM      3  C   UNL     1       1.462   5.141  -7.223  0.00  0.00    +0.003 C 
ATOM      4  C   UNL     1       1.493   4.436  -8.765  0.00  0.00    +0.001 C 
ATOM      5  C   UNL     1       0.531   5.736  -9.275  0.00  0.00    +0.004 C 
ATOM      6  C   UNL     1       1.630   6.898  -9.280  0.00  0.00    +0.000 C 
ATOM      7  C   UNL     1       0.630   5.186 -10.879  0.00  0.00    +0.019 C 
ATOM      8  C   UNL     1       1.962   5.955 -11.317  0.00  0.00    -0.043 C 
ATOM      9  C   UNL     1       2.084   6.083 -12.645  0.00  0.00    +0.010 C 
ATOM     10  C   UNL     1       1.111   7.059 -13.166  0.00  0.00    +0.101 C 
ATOM     11  C   UNL     1       0.121   7.386 -12.109  0.00  0.00    +0.050 C 
ATOM     12  N   UNL     1       0.993   7.338 -14.403  0.00  0.00    -0.034 NA
ATOM     13  O   UNL     1      -0.179   7.596 -15.040  0.00  0.00    -0.143 OA
ATOM     14  C   UNL     1       3.023   5.064 -10.737  0.00  0.00    +0.022 C 
ATOM     15  C   UNL     1      -0.443   6.293 -11.376  0.00  0.00    +0.010 C 
ATOM     16  C   UNL     1       2.900   4.907  -9.337  0.00  0.00    +0.004 C 
ATOM     17  C   UNL     1       2.191   3.943  -6.404  0.00  0.00    +0.004 C 
ATOM     18  C   UNL     1       2.297   7.128  -8.014  0.00  0.00    +0.003 C 
ATOM     19  C   UNL     1       2.320   4.850  -5.173  0.00  0.00    +0.043 C 
ATOM     20  O   UNL     1       1.769   7.196  -5.545  0.00  0.00    -0.212 OA
ENDROOT
BRANCH   1  22
ATOM     21  C   UNL     1       4.977   6.967  -4.549  0.00  0.00    -0.012 C 
ATOM     22  C   UNL     1       4.009   6.585  -5.132  0.00  0.00    -0.049 C 
ENDBRANCH   1  22
BRANCH   2  23
ATOM     23  C   UNL     1       4.059   5.447  -7.356  0.00  0.00    +0.003 C 
ATOM     24  C   UNL     1       5.228   5.824  -8.066  0.00  0.00    +0.000 C 
ENDBRANCH   2  23
TORSDOF 2
ENDMDL
MODEL 6
REMARK VINA RESULT:      -8.0      2.603      3.917
REMARK  Name = 
REMARK  2 active torsions:
REMARK  status: ('A' for Active; 'I' for Inactive)
REMARK    1  A    between atoms: C_2  and  C_3
REMARK    2  A    between atoms: C_22  and  C_23
REMARK                            x       y       z     vdW  Elec       q    Type
REMARK                         _______ _______ _______ _____ _____    ______ ____
ROOT
ATOM      1  C   UNL     1       1.453   6.198  -5.402  0.00  0.00    +0.180 C 
ATOM      2  C   UNL     1       2.683   5.965  -6.300  0.00  0.00    +0.037 C 
ATOM      3  C   UNL     1       1.828   5.038  -7.295  0.00  0.00    +0.003 C 
ATOM      4  C   UNL     1       3.038   4.314  -8.235  0.00  0.00    +0.001 C 
ATOM      5  C   UNL     1       2.781   5.560  -9.357  0.00  0.00    +0.004 C 
ATOM      6  C   UNL     1       3.472   6.772  -8.575  0.00  0.00    +0.000 C 
ATOM      7  C   UNL     1       4.081   4.991 -10.292  0.00  0.00    +0.019 C 
ATOM      8  C   UNL     1       5.260   5.817  -9.594  0.00  0.00    -0.043 C 
ATOM      9  C   UNL     1       6.350   5.931 -10.364  0.00  0.00    +0.010 C 
ATOM     10  C   UNL     1       6.101   6.852 -11.487  0.00  0.00    +0.101 C 
ATOM     11  C   UNL     1       4.648   7.146 -11.574  0.00  0.00    +0.050 C 
ATOM     12  N   UNL     1       6.964   7.107 -12.388  0.00  0.00    -0.034 NA
ATOM     13  O   UNL     1       6.688   7.301 -13.705  0.00  0.00    -0.143 OA
ATOM     14  C   UNL     1       5.519   4.984  -8.371  0.00  0.00    +0.022 C 
ATOM     15  C   UNL     1       3.746   6.039 -11.481  0.00  0.00    +0.010 C 
ATOM     16  C   UNL     1       4.374   4.842  -7.554  0.00  0.00    +0.004 C 
ATOM     17  C   UNL     1       1.696   3.888  -6.156  0.00  0.00    +0.004 C 
ATOM     18  C   UNL     1       2.932   7.051  -7.260  0.00  0.00    +0.003 C 
ATOM     19  C   UNL     1       0.822   4.818  -5.304  0.00  0.00    +0.043 C 
ATOM     20  O   UNL     1       0.704   7.129  -6.072  0.00  0.00    -0.212 OA
ENDROOT
BRANCH   1  22
ATOM     21  C   UNL     1       2.035   6.896  -2.922  0.00  0.00    -0.012 C 
ATOM     22  C   UNL     1       1.847   6.631  -4.069  0.00  0.00    -0.049 C 
ENDBRANCH   1  22
BRANCH   2  23
ATOM     23  C   UNL     1       3.599   5.465  -5.416  0.00  0.00    +0.003 C 
ATOM     24  C   UNL     1       4.800   5.976  -4.857  0.00  0.00    +0.000 C 
ENDBRANCH   2  23
TORSDOF 2
ENDMDL
MODEL 7
REMARK VINA RESULT:      -7.6      2.532      6.724
REMARK  Name = 
REMARK  2 active torsions:
REMARK  status: ('A' for Active; 'I' for Inactive)
REMARK    1  A    between atoms: C_2  and  C_3
REMARK    2  A    between atoms: C_22  and  C_23
REMARK                            x       y       z     vdW  Elec       q    Type
REMARK                         _______ _______ _______ _____ _____    ______ ____
ROOT
ATOM      1  C   UNL     1       4.042   5.733  -8.559  0.00  0.00    +0.180 C 
ATOM      2  C   UNL     1       2.618   5.858  -7.983  0.00  0.00    +0.037 C 
ATOM      3  C   UNL     1       2.796   4.494  -7.152  0.00  0.00    +0.003 C 
ATOM      4  C   UNL     1       1.205   4.163  -6.669  0.00  0.00    +0.001 C 
ATOM      5  C   UNL     1       1.579   4.962  -5.220  0.00  0.00    +0.004 C 
ATOM      6  C   UNL     1       1.594   6.473  -5.742  0.00  0.00    +0.000 C 
ATOM      7  C   UNL     1      -0.036   4.808  -4.713  0.00  0.00    +0.019 C 
ATOM      8  C   UNL     1      -0.618   6.156  -5.346  0.00  0.00    -0.043 C 
ATOM      9  C   UNL     1      -1.759   6.558  -4.772  0.00  0.00    +0.010 C 
ATOM     10  C   UNL     1      -1.507   7.069  -3.413  0.00  0.00    +0.101 C 
ATOM     11  C   UNL     1      -0.122   6.725  -3.002  0.00  0.00    +0.050 C 
ATOM     12  N   UNL     1      -2.430   7.480  -2.637  0.00  0.00    -0.034 NA
ATOM     13  O   UNL     1      -2.462   7.294  -1.291  0.00  0.00    -0.143 OA
ATOM     14  C   UNL     1      -0.821   5.747  -6.777  0.00  0.00    +0.022 C 
ATOM     15  C   UNL     1       0.321   5.385  -3.242  0.00  0.00    +0.010 C 
ATOM     16  C   UNL     1       0.372   5.307  -7.394  0.00  0.00    +0.004 C 
ATOM     17  C   UNL     1       2.809   3.626  -8.524  0.00  0.00    +0.004 C 
ATOM     18  C   UNL     1       2.525   6.749  -6.818  0.00  0.00    +0.003 C 
ATOM     19  C   UNL     1       4.146   4.261  -8.925  0.00  0.00    +0.043 C 
ATOM     20  O   UNL     1       4.866   6.135  -7.541  0.00  0.00    -0.212 OA
ENDROOT
BRANCH   1  22
ATOM     21  C   UNL     1       4.482   7.135 -10.754  0.00  0.00    -0.012 C 
ATOM     22  C   UNL     1       4.194   6.531  -9.767  0.00  0.00    -0.049 C 
ENDBRANCH   1  22
BRANCH   2  23
ATOM     23  C   UNL     1       1.853   5.949  -9.114  0.00  0.00    +0.003 C 
ATOM     24  C   UNL     1       1.037   6.972  -9.662  0.00  0.00    +0.000 C 
ENDBRANCH   2  23
TORSDOF 2
ENDMDL
MODEL 8
REMARK VINA RESULT:      -7.4      3.654      6.878
REMARK  Name = 
REMARK  2 active torsions:
REMARK  status: ('A' for Active; 'I' for Inactive)
REMARK    1  A    between atoms: C_2  and  C_3
REMARK    2  A    between atoms: C_22  and  C_23
REMARK                            x       y       z     vdW  Elec       q    Type
REMARK                         _______ _______ _______ _____ _____    ______ ____
ROOT
ATOM      1  C   UNL     1       4.348   5.354  -8.541  0.00  0.00    +0.180 C 
ATOM      2  C   UNL     1       3.652   5.835  -7.253  0.00  0.00    +0.037 C 
ATOM      3  C   UNL     1       3.499   4.324  -6.728  0.00  0.00    +0.003 C 
ATOM      4  C   UNL     1       2.411   4.504  -5.440  0.00  0.00    +0.001 C 
ATOM      5  C   UNL     1       3.770   4.597  -4.430  0.00  0.00    +0.004 C 
ATOM      6  C   UNL     1       4.284   6.065  -4.804  0.00  0.00    +0.000 C 
ATOM      7  C   UNL     1       2.765   4.932  -3.101  0.00  0.00    +0.019 C 
ATOM      8  C   UNL     1       2.712   6.525  -3.234  0.00  0.00    -0.043 C 
ATOM      9  C   UNL     1       2.357   7.137  -2.096  0.00  0.00    +0.010 C 
ATOM     10  C   UNL     1       3.442   7.056  -1.102  0.00  0.00    +0.101 C 
ATOM     11  C   UNL     1       4.471   6.092  -1.567  0.00  0.00    +0.050 C 
ATOM     12  N   UNL     1       3.347   7.528   0.078  0.00  0.00    -0.034 NA
ATOM     13  O   UNL     1       3.873   6.958   1.194  0.00  0.00    -0.143 OA
ATOM     14  C   UNL     1       1.679   6.698  -4.311  0.00  0.00    +0.022 C 
ATOM     15  C   UNL     1       4.012   4.833  -2.072  0.00  0.00    +0.010 C 
ATOM     16  C   UNL     1       2.031   6.046  -5.515  0.00  0.00    +0.004 C 
ATOM     17  C   UNL     1       2.423   3.996  -7.899  0.00  0.00    +0.004 C 
ATOM     18  C   UNL     1       4.583   6.279  -6.205  0.00  0.00    +0.003 C 
ATOM     19  C   UNL     1       3.517   4.152  -8.963  0.00  0.00    +0.043 C 
ATOM     20  O   UNL     1       5.630   5.064  -8.157  0.00  0.00    -0.212 OA
ENDROOT
BRANCH   1  22
ATOM     21  C   UNL     1       4.350   7.107 -10.517  0.00  0.00    -0.012 C 
ATOM     22  C   UNL     1       4.279   6.365  -9.587  0.00  0.00    -0.049 C 
ENDBRANCH   1  22
BRANCH   2  23
ATOM     23  C   UNL     1       2.604   6.565  -7.743  0.00  0.00    +0.003 C 
ATOM     24  C   UNL     1       2.271   7.945  -7.706  0.00  0.00    +0.000 C 
ENDBRANCH   2  23
TORSDOF 2
ENDMDL
MODEL 9
REMARK VINA RESULT:      -7.3      3.142      4.444
REMARK  Name = 
REMARK  2 active torsions:
REMARK  status: ('A' for Active; 'I' for Inactive)
REMARK    1  A    between atoms: C_2  and  C_3
REMARK    2  A    between atoms: C_22  and  C_23
REMARK                            x       y       z     vdW  Elec       q    Type
REMARK                         _______ _______ _______ _____ _____    ______ ____
ROOT
ATOM      1  C   UNL     1       2.954   6.598  -1.816  0.00  0.00    +0.180 C 
ATOM      2  C   UNL     1       3.248   6.566  -3.327  0.00  0.00    +0.037 C 
ATOM      3  C   UNL     1       2.884   5.002  -3.403  0.00  0.00    +0.003 C 
ATOM      4  C   UNL     1       3.472   4.574  -4.934  0.00  0.00    +0.001 C 
ATOM      5  C   UNL     1       1.901   4.851  -5.510  0.00  0.00    +0.004 C 
ATOM      6  C   UNL     1       1.875   6.449  -5.460  0.00  0.00    +0.000 C 
ATOM      7  C   UNL     1       2.433   4.583  -7.102  0.00  0.00    +0.019 C 
ATOM      8  C   UNL     1       2.868   6.078  -7.467  0.00  0.00    -0.043 C 
ATOM      9  C   UNL     1       2.930   6.301  -8.786  0.00  0.00    +0.010 C 
ATOM     10  C   UNL     1       1.578   6.339  -9.372  0.00  0.00    +0.101 C 
ATOM     11  C   UNL     1       0.593   5.845  -8.377  0.00  0.00    +0.050 C 
ATOM     12  N   UNL     1       1.359   6.500 -10.616  0.00  0.00    -0.034 NA
ATOM     13  O   UNL     1       0.372   5.890 -11.323  0.00  0.00    -0.143 OA
ATOM     14  C   UNL     1       4.220   6.159  -6.818  0.00  0.00    +0.022 C 
ATOM     15  C   UNL     1       0.917   4.644  -7.669  0.00  0.00    +0.010 C 
ATOM     16  C   UNL     1       4.175   5.912  -5.427  0.00  0.00    +0.004 C 
ATOM     17  C   UNL     1       4.201   4.624  -2.532  0.00  0.00    +0.004 C 
ATOM     18  C   UNL     1       2.130   7.034  -4.160  0.00  0.00    +0.003 C 
ATOM     19  C   UNL     1       3.602   5.321  -1.303  0.00  0.00    +0.043 C 
ATOM     20  O   UNL     1       1.587   6.628  -1.727  0.00  0.00    -0.212 OA
ENDROOT
BRANCH   1  22
ATOM     21  C   UNL     1       3.983   8.675  -0.550  0.00  0.00    -0.012 C 
ATOM     22  C   UNL     1       3.594   7.739  -1.177  0.00  0.00    -0.049 C 
ENDBRANCH   1  22
BRANCH   2  23
ATOM     23  C   UNL     1       4.531   7.037  -3.385  0.00  0.00    +0.003 C 
ATOM     24  C   UNL     1       5.138   8.143  -4.036  0.00  0.00    +0.000 C 
ENDBRANCH   2  23
TORSDOF 2
ENDMDL
