MODEL 1
REMARK VINA RESULT:      -9.5      0.000      0.000
REMARK  Name = 
REMARK  15 active torsions:
REMARK  status: ('A' for Active; 'I' for Inactive)
REMARK    1  A    between atoms: C_2  and  C_3
REMARK    2  A    between atoms: C_3  and  O_5
REMARK    3  A    between atoms: O_5  and  C_6
REMARK    4  A    between atoms: C_6  and  O_7
REMARK    5  A    between atoms: C_6  and  C_37
REMARK    6  A    between atoms: O_7  and  P_8
REMARK    7  A    between atoms: P_8  and  C_10
REMARK    8  A    between atoms: P_8  and  C_20
REMARK    9  A    between atoms: C_10  and  C_11
REMARK   10  A    between atoms: C_11  and  C_12
REMARK   11  A    between atoms: C_12  and  C_13
REMARK   12  A    between atoms: C_13  and  C_14
REMARK   13  A    between atoms: C_20  and  C_21
REMARK   14  A    between atoms: C_25  and  C_26
REMARK   15  A    between atoms: C_33  and  C_34
REMARK                            x       y       z     vdW  Elec       q    Type
REMARK                         _______ _______ _______ _____ _____    ______ ____
ROOT
ATOM      1  P   UNL     1       2.818   5.108  -5.282  0.00  0.00    +0.234 P 
ATOM      2  O   UNL     1       3.814   4.126  -4.683  0.00  0.00    -0.289 OA
ENDROOT
BRANCH   1   3
ATOM      3  C   UNL     1       3.670   5.816  -6.735  0.00  0.00    +0.172 C 
BRANCH   3   4
ATOM      4  C   UNL     1       2.657   6.275  -7.745  0.00  0.00    +0.236 C 
ATOM      5  N   UNL     1       3.006   5.906  -9.087  0.00  0.00    -0.271 N 
ATOM      6  C   UNL     1       2.107   6.617 -10.214  0.00  0.00    +0.179 C 
ATOM      7  C   UNL     1       2.775   5.715 -11.447  0.00  0.00    +0.033 C 
ATOM      8  C   UNL     1       4.229   5.358 -10.757  0.00  0.00    +0.022 C 
ATOM      9  C   UNL     1       4.160   6.605  -9.666  0.00  0.00    +0.094 C 
ATOM     10  O   UNL     1       2.231   7.444  -7.483  0.00  0.00    -0.274 OA
BRANCH   8  11
ATOM     11  C   UNL     1       5.087   6.199 -11.891  0.00  0.00    +0.002 C 
ATOM     12  C   UNL     1       5.964   5.332 -12.642  0.00  0.00    +0.000 C 
ATOM     13  C   UNL     1       7.342   5.168 -12.058  0.00  0.00    +0.000 C 
ATOM     14  C   UNL     1       7.911   6.471 -11.554  0.00  0.00    +0.000 C 
ATOM     15  C   UNL     1       7.014   7.647 -11.829  0.00  0.00    +0.000 C 
ATOM     16  C   UNL     1       5.625   7.413 -11.247  0.00  0.00    +0.000 C 
ENDBRANCH   8  11
BRANCH   6  17
ATOM     17  C   UNL     1       0.862   5.583  -9.928  0.00  0.00    +0.382 C 
ATOM     18  O   UNL     1       0.921   4.332 -10.392  0.00  0.00    -0.244 OA
ATOM     19  O   UNL     1      -0.216   6.248  -9.998  0.00  0.00    -0.244 OA
ENDBRANCH   6  17
ENDBRANCH   3   4
ENDBRANCH   1   3
BRANCH   1  20
ATOM     20  O   UNL     1       2.496   6.389  -4.282  0.00  0.00    -0.276 OA
BRANCH  20  21
ATOM     21  C   UNL     1       3.386   6.180  -3.010  0.00  0.00    +0.295 C 
BRANCH  21  22
ATOM     22  C   UNL     1       3.849   7.820  -2.972  0.00  0.00    +0.071 C 
ATOM     23  C   UNL     1       5.159   7.665  -3.751  0.00  0.00    +0.006 C 
ATOM     24  C   UNL     1       4.354   8.015  -1.563  0.00  0.00    +0.006 C 
ENDBRANCH  21  22
BRANCH  21  25
ATOM     25  O   UNL     1       2.171   6.401  -2.006  0.00  0.00    -0.424 OA
BRANCH  25  26
ATOM     26  C   UNL     1       1.575   5.251  -1.572  0.00  0.00    +0.319 C 
ATOM     27  O   UNL     1       2.324   4.621  -0.763  0.00  0.00    -0.250 OA
BRANCH  26  29
ATOM     28  C   UNL     1      -0.143   6.256  -0.303  0.00  0.00    +0.012 C 
ATOM     29  C   UNL     1       0.158   5.335  -1.107  0.00  0.00    +0.110 C 
ENDBRANCH  26  29
ENDBRANCH  25  26
ENDBRANCH  21  25
ENDBRANCH  20  21
ENDBRANCH   1  20
BRANCH   1  30
ATOM     30  C   UNL     1       1.352   4.301  -5.940  0.00  0.00    +0.088 C 
BRANCH  30  31
ATOM     31  C   UNL     1       0.132   4.993  -5.370  0.00  0.00    +0.011 C 
BRANCH  31  32
ATOM     32  C   UNL     1      -0.684   5.554  -6.528  0.00  0.00    +0.005 C 
BRANCH  32  33
ATOM     33  C   UNL     1      -2.158   5.349  -6.323  0.00  0.00    +0.026 C 
BRANCH  33  34
ATOM     34  C   UNL     1      -2.709   6.210  -5.232  0.00  0.00    -0.022 A 
ATOM     35  C   UNL     1      -2.384   7.557  -5.126  0.00  0.00    -0.004 A 
ATOM     36  C   UNL     1      -2.011   8.135  -3.919  0.00  0.00    -0.000 A 
ATOM     37  C   UNL     1      -2.360   7.486  -2.753  0.00  0.00    -0.000 A 
ATOM     38  C   UNL     1      -2.936   6.241  -2.822  0.00  0.00    -0.000 A 
ATOM     39  C   UNL     1      -3.105   5.604  -4.046  0.00  0.00    -0.004 A 
ENDBRANCH  33  34
ENDBRANCH  32  33
ENDBRANCH  31  32
ENDBRANCH  30  31
ENDBRANCH   1  30
TORSDOF 15
ENDMDL
MODEL 2
REMARK VINA RESULT:      -9.1      0.989      2.305
REMARK  Name = 
REMARK  15 active torsions:
REMARK  status: ('A' for Active; 'I' for Inactive)
REMARK    1  A    between atoms: C_2  and  C_3
REMARK    2  A    between atoms: C_3  and  O_5
REMARK    3  A    between atoms: O_5  and  C_6
REMARK    4  A    between atoms: C_6  and  O_7
REMARK    5  A    between atoms: C_6  and  C_37
REMARK    6  A    between atoms: O_7  and  P_8
REMARK    7  A    between atoms: P_8  and  C_10
REMARK    8  A    between atoms: P_8  and  C_20
REMARK    9  A    between atoms: C_10  and  C_11
REMARK   10  A    between atoms: C_11  and  C_12
REMARK   11  A    between atoms: C_12  and  C_13
REMARK   12  A    between atoms: C_13  and  C_14
REMARK   13  A    between atoms: C_20  and  C_21
REMARK   14  A    between atoms: C_25  and  C_26
REMARK   15  A    between atoms: C_33  and  C_34
REMARK                            x       y       z     vdW  Elec       q    Type
REMARK                         _______ _______ _______ _____ _____    ______ ____
ROOT
ATOM      1  P   UNL     1       2.216   5.052  -5.417  0.00  0.00    +0.234 P 
ATOM      2  O   UNL     1       2.363   3.722  -6.142  0.00  0.00    -0.289 OA
ENDROOT
BRANCH   1   3
ATOM      3  C   UNL     1       3.082   6.263  -6.476  0.00  0.00    +0.172 C 
BRANCH   3   4
ATOM      4  C   UNL     1       2.223   6.611  -7.658  0.00  0.00    +0.236 C 
ATOM      5  N   UNL     1       2.758   6.118  -8.896  0.00  0.00    -0.271 N 
ATOM      6  C   UNL     1       2.030   6.705 -10.202  0.00  0.00    +0.179 C 
ATOM      7  C   UNL     1       2.864   5.696 -11.234  0.00  0.00    +0.033 C 
ATOM      8  C   UNL     1       4.204   5.424 -10.314  0.00  0.00    +0.022 C 
ATOM      9  C   UNL     1       3.985   6.770  -9.370  0.00  0.00    +0.094 C 
ATOM     10  O   UNL     1       1.767   7.794  -7.574  0.00  0.00    -0.274 OA
BRANCH   8  11
ATOM     11  C   UNL     1       5.217   6.161 -11.392  0.00  0.00    +0.002 C 
ATOM     12  C   UNL     1       6.386   5.356 -11.656  0.00  0.00    +0.000 C 
ATOM     13  C   UNL     1       7.551   5.616 -10.739  0.00  0.00    +0.000 C 
ATOM     14  C   UNL     1       7.760   7.087 -10.477  0.00  0.00    +0.000 C 
ATOM     15  C   UNL     1       6.816   7.959 -11.259  0.00  0.00    +0.000 C 
ATOM     16  C   UNL     1       5.369   7.571 -10.984  0.00  0.00    +0.000 C 
ENDBRANCH   8  11
BRANCH   6  17
ATOM     17  C   UNL     1       0.754   5.690  -9.995  0.00  0.00    +0.382 C 
ATOM     18  O   UNL     1       0.877   4.400 -10.316  0.00  0.00    -0.244 OA
ATOM     19  O   UNL     1      -0.301   6.331 -10.287  0.00  0.00    -0.244 OA
ENDBRANCH   6  17
ENDBRANCH   3   4
ENDBRANCH   1   3
BRANCH   1  20
ATOM     20  O   UNL     1       3.006   5.082  -3.961  0.00  0.00    -0.276 OA
BRANCH  20  21
ATOM     21  C   UNL     1       2.263   6.149  -3.088  0.00  0.00    +0.295 C 
BRANCH  21  22
ATOM     22  C   UNL     1       2.099   5.071  -1.776  0.00  0.00    +0.071 C 
ATOM     23  C   UNL     1       0.583   4.876  -1.881  0.00  0.00    +0.006 C 
ATOM     24  C   UNL     1       2.207   5.965  -0.565  0.00  0.00    +0.006 C 
ENDBRANCH  21  22
BRANCH  21  25
ATOM     25  O   UNL     1       3.615   6.773  -2.529  0.00  0.00    -0.424 OA
BRANCH  25  26
ATOM     26  C   UNL     1       3.930   8.000  -3.041  0.00  0.00    +0.319 C 
ATOM     27  O   UNL     1       4.111   8.851  -2.117  0.00  0.00    -0.250 OA
BRANCH  26  29
ATOM     28  C   UNL     1       5.944   7.256  -4.022  0.00  0.00    +0.012 C 
ATOM     29  C   UNL     1       4.980   8.062  -4.101  0.00  0.00    +0.110 C 
ENDBRANCH  26  29
ENDBRANCH  25  26
ENDBRANCH  21  25
ENDBRANCH  20  21
ENDBRANCH   1  20
BRANCH   1  30
ATOM     30  C   UNL     1       0.513   5.622  -5.343  0.00  0.00    +0.088 C 
BRANCH  30  31
ATOM     31  C   UNL     1      -0.322   4.745  -6.253  0.00  0.00    +0.011 C 
BRANCH  31  32
ATOM     32  C   UNL     1      -1.416   5.606  -6.873  0.00  0.00    +0.005 C 
BRANCH  32  33
ATOM     33  C   UNL     1      -2.754   5.350  -6.241  0.00  0.00    +0.026 C 
BRANCH  33  34
ATOM     34  C   UNL     1      -3.003   6.229  -5.056  0.00  0.00    -0.022 A 
ATOM     35  C   UNL     1      -2.574   7.550  -5.020  0.00  0.00    -0.004 A 
ATOM     36  C   UNL     1      -1.917   8.084  -3.919  0.00  0.00    -0.000 A 
ATOM     37  C   UNL     1      -2.054   7.441  -2.706  0.00  0.00    -0.000 A 
ATOM     38  C   UNL     1      -2.714   6.238  -2.653  0.00  0.00    -0.000 A 
ATOM     39  C   UNL     1      -3.180   5.632  -3.814  0.00  0.00    -0.004 A 
ENDBRANCH  33  34
ENDBRANCH  32  33
ENDBRANCH  31  32
ENDBRANCH  30  31
ENDBRANCH   1  30
TORSDOF 15
ENDMDL
MODEL 3
REMARK VINA RESULT:      -9.0      2.184      9.873
REMARK  Name = 
REMARK  15 active torsions:
REMARK  status: ('A' for Active; 'I' for Inactive)
REMARK    1  A    between atoms: C_2  and  C_3
REMARK    2  A    between atoms: C_3  and  O_5
REMARK    3  A    between atoms: O_5  and  C_6
REMARK    4  A    between atoms: C_6  and  O_7
REMARK    5  A    between atoms: C_6  and  C_37
REMARK    6  A    between atoms: O_7  and  P_8
REMARK    7  A    between atoms: P_8  and  C_10
REMARK    8  A    between atoms: P_8  and  C_20
REMARK    9  A    between atoms: C_10  and  C_11
REMARK   10  A    between atoms: C_11  and  C_12
REMARK   11  A    between atoms: C_12  and  C_13
REMARK   12  A    between atoms: C_13  and  C_14
REMARK   13  A    between atoms: C_20  and  C_21
REMARK   14  A    between atoms: C_25  and  C_26
REMARK   15  A    between atoms: C_33  and  C_34
REMARK                            x       y       z     vdW  Elec       q    Type
REMARK                         _______ _______ _______ _____ _____    ______ ____
ROOT
ATOM      1  P   UNL     1       1.657   5.250  -9.880  0.00  0.00    +0.234 P 
ATOM      2  O   UNL     1       0.610   4.235 -10.313  0.00  0.00    -0.289 OA
ENDROOT
BRANCH   1   3
ATOM      3  C   UNL     1       0.868   6.194  -8.530  0.00  0.00    +0.172 C 
BRANCH   3   4
ATOM      4  C   UNL     1       1.903   6.596  -7.518  0.00  0.00    +0.236 C 
ATOM      5  N   UNL     1       1.580   6.157  -6.190  0.00  0.00    -0.271 N 
ATOM      6  C   UNL     1       2.504   6.804  -5.045  0.00  0.00    +0.179 C 
ATOM      7  C   UNL     1       1.858   5.839  -3.849  0.00  0.00    +0.033 C 
ATOM      8  C   UNL     1       0.389   5.523  -4.528  0.00  0.00    +0.022 C 
ATOM      9  C   UNL     1       0.440   6.827  -5.552  0.00  0.00    +0.094 C 
ATOM     10  O   UNL     1       2.328   7.776  -7.726  0.00  0.00    -0.274 OA
BRANCH   8  11
ATOM     11  C   UNL     1      -0.443   6.304  -3.333  0.00  0.00    +0.002 C 
ATOM     12  C   UNL     1      -1.181   5.377  -2.507  0.00  0.00    +0.000 C 
ATOM     13  C   UNL     1      -2.582   5.092  -2.977  0.00  0.00    +0.000 C 
ATOM     14  C   UNL     1      -3.298   6.336  -3.442  0.00  0.00    +0.000 C 
ATOM     15  C   UNL     1      -2.483   7.586  -3.247  0.00  0.00    +0.000 C 
ATOM     16  C   UNL     1      -1.131   7.461  -3.938  0.00  0.00    +0.000 C 
ENDBRANCH   8  11
BRANCH   6  17
ATOM     17  C   UNL     1       3.739   5.784  -5.412  0.00  0.00    +0.382 C 
ATOM     18  O   UNL     1       3.707   4.522  -4.975  0.00  0.00    -0.244 OA
ATOM     19  O   UNL     1       4.817   6.453  -5.375  0.00  0.00    -0.244 OA
ENDBRANCH   6  17
ENDBRANCH   3   4
ENDBRANCH   1   3
BRANCH   1  20
ATOM     20  O   UNL     1       2.006   6.360 -11.060  0.00  0.00    -0.276 OA
BRANCH  20  21
ATOM     21  C   UNL     1       1.086   6.002 -12.275  0.00  0.00    +0.295 C 
BRANCH  21  22
ATOM     22  C   UNL     1       0.542   7.611 -12.433  0.00  0.00    +0.071 C 
ATOM     23  C   UNL     1      -0.804   7.425 -11.724  0.00  0.00    +0.006 C 
ATOM     24  C   UNL     1       0.114   7.703 -13.877  0.00  0.00    +0.006 C 
ENDBRANCH  21  22
BRANCH  21  25
ATOM     25  O   UNL     1       2.253   6.193 -13.339  0.00  0.00    -0.424 OA
BRANCH  25  26
ATOM     26  C   UNL     1       3.027   5.086 -13.540  0.00  0.00    +0.319 C 
ATOM     27  O   UNL     1       2.510   4.313 -14.403  0.00  0.00    -0.250 OA
BRANCH  26  29
ATOM     28  C   UNL     1       4.853   6.118 -14.623  0.00  0.00    +0.012 C 
ATOM     29  C   UNL     1       4.493   5.290 -13.746  0.00  0.00    +0.110 C 
ENDBRANCH  26  29
ENDBRANCH  25  26
ENDBRANCH  21  25
ENDBRANCH  20  21
ENDBRANCH   1  20
BRANCH   1  30
ATOM     30  C   UNL     1       3.105   4.485  -9.138  0.00  0.00    +0.088 C 
BRANCH  30  31
ATOM     31  C   UNL     1       4.327   4.924  -9.917  0.00  0.00    +0.011 C 
BRANCH  31  32
ATOM     32  C   UNL     1       5.110   5.911  -9.061  0.00  0.00    +0.005 C 
BRANCH  32  33
ATOM     33  C   UNL     1       6.558   5.528  -8.949  0.00  0.00    +0.026 C 
BRANCH  33  34
ATOM     34  C   UNL     1       7.390   6.111 -10.047  0.00  0.00    -0.022 A 
ATOM     35  C   UNL     1       7.040   7.296 -10.681  0.00  0.00    -0.004 A 
ATOM     36  C   UNL     1       7.057   7.428 -12.064  0.00  0.00    -0.000 A 
ATOM     37  C   UNL     1       7.814   6.533 -12.792  0.00  0.00    -0.000 A 
ATOM     38  C   UNL     1       8.407   5.474 -12.149  0.00  0.00    -0.000 A 
ATOM     39  C   UNL     1       8.195   5.258 -10.793  0.00  0.00    -0.004 A 
ENDBRANCH  33  34
ENDBRANCH  32  33
ENDBRANCH  31  32
ENDBRANCH  30  31
ENDBRANCH   1  30
TORSDOF 15
ENDMDL
MODEL 4
REMARK VINA RESULT:      -8.3      1.453      4.371
REMARK  Name = 
REMARK  15 active torsions:
REMARK  status: ('A' for Active; 'I' for Inactive)
REMARK    1  A    between atoms: C_2  and  C_3
REMARK    2  A    between atoms: C_3  and  O_5
REMARK    3  A    between atoms: O_5  and  C_6
REMARK    4  A    between atoms: C_6  and  O_7
REMARK    5  A    between atoms: C_6  and  C_37
REMARK    6  A    between atoms: O_7  and  P_8
REMARK    7  A    between atoms: P_8  and  C_10
REMARK    8  A    between atoms: P_8  and  C_20
REMARK    9  A    between atoms: C_10  and  C_11
REMARK   10  A    between atoms: C_11  and  C_12
REMARK   11  A    between atoms: C_12  and  C_13
REMARK   12  A    between atoms: C_13  and  C_14
REMARK   13  A    between atoms: C_20  and  C_21
REMARK   14  A    between atoms: C_25  and  C_26
REMARK   15  A    between atoms: C_33  and  C_34
REMARK                            x       y       z     vdW  Elec       q    Type
REMARK                         _______ _______ _______ _____ _____    ______ ____
ROOT
ATOM      1  P   UNL     1       2.275   5.911  -5.288  0.00  0.00    +0.234 P 
ATOM      2  O   UNL     1       2.176   7.262  -4.593  0.00  0.00    -0.289 OA
ENDROOT
BRANCH   1   3
ATOM      3  C   UNL     1       3.226   6.235  -6.814  0.00  0.00    +0.172 C 
BRANCH   3   4
ATOM      4  C   UNL     1       2.287   6.595  -7.931  0.00  0.00    +0.236 C 
ATOM      5  N   UNL     1       2.747   6.136  -9.210  0.00  0.00    -0.271 N 
ATOM      6  C   UNL     1       1.928   6.740 -10.454  0.00  0.00    +0.179 C 
ATOM      7  C   UNL     1       2.706   5.765 -11.560  0.00  0.00    +0.033 C 
ATOM      8  C   UNL     1       4.106   5.493 -10.734  0.00  0.00    +0.022 C 
ATOM      9  C   UNL     1       3.931   6.816  -9.749  0.00  0.00    +0.094 C 
ATOM     10  O   UNL     1       1.822   7.770  -7.791  0.00  0.00    -0.274 OA
BRANCH   8  11
ATOM     11  C   UNL     1       5.037   6.267 -11.859  0.00  0.00    +0.002 C 
ATOM     12  C   UNL     1       5.934   5.352 -12.525  0.00  0.00    +0.000 C 
ATOM     13  C   UNL     1       7.277   5.192 -11.864  0.00  0.00    +0.000 C 
ATOM     14  C   UNL     1       7.845   6.506 -11.390  0.00  0.00    +0.000 C 
ATOM     15  C   UNL     1       6.986   7.683 -11.763  0.00  0.00    +0.000 C 
ATOM     16  C   UNL     1       5.565   7.500 -11.244  0.00  0.00    +0.000 C 
ENDBRANCH   8  11
BRANCH   6  17
ATOM     17  C   UNL     1       0.682   5.703 -10.187  0.00  0.00    +0.382 C 
ATOM     18  O   UNL     1       0.849   4.397 -10.410  0.00  0.00    -0.244 OA
ATOM     19  O   UNL     1      -0.389   6.287 -10.538  0.00  0.00    -0.244 OA
ENDBRANCH   6  17
ENDBRANCH   3   4
ENDBRANCH   1   3
BRANCH   1  20
ATOM     20  O   UNL     1       0.804   5.335  -5.788  0.00  0.00    -0.276 OA
BRANCH  20  21
ATOM     21  C   UNL     1      -0.270   6.096  -4.940  0.00  0.00    +0.295 C 
BRANCH  21  22
ATOM     22  C   UNL     1      -1.559   5.277  -5.700  0.00  0.00    +0.071 C 
ATOM     23  C   UNL     1      -1.206   5.665  -7.140  0.00  0.00    +0.006 C 
ATOM     24  C   UNL     1      -2.751   6.162  -5.431  0.00  0.00    +0.006 C 
ENDBRANCH  21  22
BRANCH  21  25
ATOM     25  O   UNL     1      -0.195   5.058  -3.737  0.00  0.00    -0.424 OA
BRANCH  25  26
ATOM     26  C   UNL     1      -0.369   5.608  -2.499  0.00  0.00    +0.319 C 
ATOM     27  O   UNL     1      -1.390   5.127  -1.920  0.00  0.00    -0.250 OA
BRANCH  26  29
ATOM     28  C   UNL     1       0.752   6.452  -0.600  0.00  0.00    +0.012 C 
ATOM     29  C   UNL     1       0.822   5.691  -1.601  0.00  0.00    +0.110 C 
ENDBRANCH  26  29
ENDBRANCH  25  26
ENDBRANCH  21  25
ENDBRANCH  20  21
ENDBRANCH   1  20
BRANCH   1  30
ATOM     30  C   UNL     1       3.256   4.722  -4.363  0.00  0.00    +0.088 C 
BRANCH  30  31
ATOM     31  C   UNL     1       4.720   5.036  -4.588  0.00  0.00    +0.011 C 
BRANCH  31  32
ATOM     32  C   UNL     1       5.160   6.045  -3.535  0.00  0.00    +0.005 C 
BRANCH  32  33
ATOM     33  C   UNL     1       4.402   5.877  -2.249  0.00  0.00    +0.026 C 
BRANCH  33  34
ATOM     34  C   UNL     1       4.576   7.041  -1.326  0.00  0.00    -0.022 A 
ATOM     35  C   UNL     1       4.829   6.870   0.029  0.00  0.00    -0.004 A 
ATOM     36  C   UNL     1       4.143   7.582   1.005  0.00  0.00    -0.000 A 
ATOM     37  C   UNL     1       3.512   8.751   0.633  0.00  0.00    -0.000 A 
ATOM     38  C   UNL     1       3.467   9.098  -0.696  0.00  0.00    -0.000 A 
ATOM     39  C   UNL     1       3.987   8.252  -1.668  0.00  0.00    -0.004 A 
ENDBRANCH  33  34
ENDBRANCH  32  33
ENDBRANCH  31  32
ENDBRANCH  30  31
ENDBRANCH   1  30
TORSDOF 15
ENDMDL
MODEL 5
REMARK VINA RESULT:      -8.3      2.211      9.611
REMARK  Name = 
REMARK  15 active torsions:
REMARK  status: ('A' for Active; 'I' for Inactive)
REMARK    1  A    between atoms: C_2  and  C_3
REMARK    2  A    between atoms: C_3  and  O_5
REMARK    3  A    between atoms: O_5  and  C_6
REMARK    4  A    between atoms: C_6  and  O_7
REMARK    5  A    between atoms: C_6  and  C_37
REMARK    6  A    between atoms: O_7  and  P_8
REMARK    7  A    between atoms: P_8  and  C_10
REMARK    8  A    between atoms: P_8  and  C_20
REMARK    9  A    between atoms: C_10  and  C_11
REMARK   10  A    between atoms: C_11  and  C_12
REMARK   11  A    between atoms: C_12  and  C_13
REMARK   12  A    between atoms: C_13  and  C_14
REMARK   13  A    between atoms: C_20  and  C_21
REMARK   14  A    between atoms: C_25  and  C_26
REMARK   15  A    between atoms: C_33  and  C_34
REMARK                            x       y       z     vdW  Elec       q    Type
REMARK                         _______ _______ _______ _____ _____    ______ ____
ROOT
ATOM      1  P   UNL     1       2.645   5.785  -6.203  0.00  0.00    +0.234 P 
ATOM      2  O   UNL     1       2.434   4.419  -5.565  0.00  0.00    -0.289 OA
ENDROOT
BRANCH   1   3
ATOM      3  C   UNL     1       3.091   6.889  -4.818  0.00  0.00    +0.172 C 
BRANCH   3   4
ATOM      4  C   UNL     1       3.708   6.087  -3.707  0.00  0.00    +0.236 C 
ATOM      5  N   UNL     1       3.469   6.658  -2.412  0.00  0.00    -0.271 N 
ATOM      6  C   UNL     1       4.343   5.998  -1.236  0.00  0.00    +0.179 C 
ATOM      7  C   UNL     1       3.546   6.846  -0.042  0.00  0.00    +0.033 C 
ATOM      8  C   UNL     1       3.041   8.140  -0.929  0.00  0.00    +0.022 C 
ATOM      9  C   UNL     1       4.165   7.919  -2.128  0.00  0.00    +0.094 C 
ATOM     10  O   UNL     1       4.862   5.659  -4.025  0.00  0.00    -0.274 OA
BRANCH   8  11
ATOM     11  C   UNL     1       3.954   9.214  -0.066  0.00  0.00    +0.002 C 
ATOM     12  C   UNL     1       4.028   8.848   1.329  0.00  0.00    +0.000 C 
ATOM     13  C   UNL     1       2.942   9.432   2.194  0.00  0.00    +0.000 C 
ATOM     14  C   UNL     1       2.661  10.877   1.865  0.00  0.00    +0.000 C 
ATOM     15  C   UNL     1       3.586  11.428   0.815  0.00  0.00    +0.000 C 
ATOM     16  C   UNL     1       3.537  10.577  -0.448  0.00  0.00    +0.000 C 
ENDBRANCH   8  11
BRANCH   6  17
ATOM     17  C   UNL     1       3.351   4.689  -1.181  0.00  0.00    +0.382 C 
ATOM     18  O   UNL     1       2.087   4.833  -0.770  0.00  0.00    -0.244 OA
ATOM     19  O   UNL     1       4.043   3.695  -0.804  0.00  0.00    -0.244 OA
ENDBRANCH   6  17
ENDBRANCH   3   4
ENDBRANCH   1   3
BRANCH   1  20
ATOM     20  O   UNL     1       1.255   6.414  -6.850  0.00  0.00    -0.276 OA
BRANCH  20  21
ATOM     21  C   UNL     1       0.207   5.251  -6.840  0.00  0.00    +0.295 C 
BRANCH  21  22
ATOM     22  C   UNL     1      -0.943   6.193  -6.005  0.00  0.00    +0.071 C 
ATOM     23  C   UNL     1      -0.690   5.607  -4.611  0.00  0.00    +0.006 C 
ATOM     24  C   UNL     1      -2.260   5.553  -6.369  0.00  0.00    +0.006 C 
ENDBRANCH  21  22
BRANCH  21  25
ATOM     25  O   UNL     1      -0.376   5.635  -8.269  0.00  0.00    -0.424 OA
BRANCH  25  26
ATOM     26  C   UNL     1       0.492   5.447  -9.308  0.00  0.00    +0.319 C 
ATOM     27  O   UNL     1       0.133   4.472 -10.037  0.00  0.00    -0.250 OA
BRANCH  26  29
ATOM     28  C   UNL     1       1.095   6.495 -11.334  0.00  0.00    +0.012 C 
ATOM     29  C   UNL     1       0.898   6.646 -10.100  0.00  0.00    +0.110 C 
ENDBRANCH  26  29
ENDBRANCH  25  26
ENDBRANCH  21  25
ENDBRANCH  20  21
ENDBRANCH   1  20
BRANCH   1  30
ATOM     30  C   UNL     1       4.058   5.825  -7.314  0.00  0.00    +0.088 C 
BRANCH  30  31
ATOM     31  C   UNL     1       3.796   4.862  -8.452  0.00  0.00    +0.011 C 
BRANCH  31  32
ATOM     32  C   UNL     1       4.781   5.168  -9.573  0.00  0.00    +0.005 C 
BRANCH  32  33
ATOM     33  C   UNL     1       6.094   5.669  -9.042  0.00  0.00    +0.026 C 
BRANCH  33  34
ATOM     34  C   UNL     1       6.978   6.209 -10.121  0.00  0.00    -0.022 A 
ATOM     35  C   UNL     1       6.600   7.290 -10.906  0.00  0.00    -0.004 A 
ATOM     36  C   UNL     1       6.738   7.284 -12.289  0.00  0.00    -0.000 A 
ATOM     37  C   UNL     1       7.626   6.389 -12.849  0.00  0.00    -0.000 A 
ATOM     38  C   UNL     1       8.235   5.454 -12.047  0.00  0.00    -0.000 A 
ATOM     39  C   UNL     1       7.913   5.358 -10.699  0.00  0.00    -0.004 A 
ENDBRANCH  33  34
ENDBRANCH  32  33
ENDBRANCH  31  32
ENDBRANCH  30  31
ENDBRANCH   1  30
TORSDOF 15
ENDMDL
MODEL 6
REMARK VINA RESULT:      -8.2      2.203      8.078
REMARK  Name = 
REMARK  15 active torsions:
REMARK  status: ('A' for Active; 'I' for Inactive)
REMARK    1  A    between atoms: C_2  and  C_3
REMARK    2  A    between atoms: C_3  and  O_5
REMARK    3  A    between atoms: O_5  and  C_6
REMARK    4  A    between atoms: C_6  and  O_7
REMARK    5  A    between atoms: C_6  and  C_37
REMARK    6  A    between atoms: O_7  and  P_8
REMARK    7  A    between atoms: P_8  and  C_10
REMARK    8  A    between atoms: P_8  and  C_20
REMARK    9  A    between atoms: C_10  and  C_11
REMARK   10  A    between atoms: C_11  and  C_12
REMARK   11  A    between atoms: C_12  and  C_13
REMARK   12  A    between atoms: C_13  and  C_14
REMARK   13  A    between atoms: C_20  and  C_21
REMARK   14  A    between atoms: C_25  and  C_26
REMARK   15  A    between atoms: C_33  and  C_34
REMARK                            x       y       z     vdW  Elec       q    Type
REMARK                         _______ _______ _______ _____ _____    ______ ____
ROOT
ATOM      1  P   UNL     1       3.064   6.528  -6.185  0.00  0.00    +0.234 P 
ATOM      2  O   UNL     1       2.537   7.807  -6.821  0.00  0.00    -0.289 OA
ENDROOT
BRANCH   1   3
ATOM      3  C   UNL     1       4.108   7.089  -4.795  0.00  0.00    +0.172 C 
BRANCH   3   4
ATOM      4  C   UNL     1       3.923   6.173  -3.619  0.00  0.00    +0.236 C 
ATOM      5  N   UNL     1       3.443   6.858  -2.453  0.00  0.00    -0.271 N 
ATOM      6  C   UNL     1       3.503   5.981  -1.108  0.00  0.00    +0.179 C 
ATOM      7  C   UNL     1       2.688   7.126  -0.213  0.00  0.00    +0.033 C 
ATOM      8  C   UNL     1       3.065   8.468  -1.093  0.00  0.00    +0.022 C 
ATOM      9  C   UNL     1       4.391   7.778  -1.813  0.00  0.00    +0.094 C 
ATOM     10  O   UNL     1       4.868   5.327  -3.531  0.00  0.00    -0.274 OA
BRANCH   8  11
ATOM     11  C   UNL     1       3.911   9.164   0.144  0.00  0.00    +0.002 C 
ATOM     12  C   UNL     1       3.558   8.587   1.419  0.00  0.00    +0.000 C 
ATOM     13  C   UNL     1       2.417   9.269   2.126  0.00  0.00    +0.000 C 
ATOM     14  C   UNL     1       2.503  10.772   2.039  0.00  0.00    +0.000 C 
ATOM     15  C   UNL     1       3.751  11.247   1.346  0.00  0.00    +0.000 C 
ATOM     16  C   UNL     1       3.867  10.627  -0.041  0.00  0.00    +0.000 C 
ENDBRANCH   8  11
BRANCH   6  17
ATOM     17  C   UNL     1       2.158   5.145  -1.547  0.00  0.00    +0.382 C 
ATOM     18  O   UNL     1       1.093   5.803  -2.013  0.00  0.00    -0.244 OA
ATOM     19  O   UNL     1       2.017   4.183  -0.731  0.00  0.00    -0.244 OA
ENDBRANCH   6  17
ENDBRANCH   3   4
ENDBRANCH   1   3
BRANCH   1  20
ATOM     20  O   UNL     1       4.070   5.678  -7.189  0.00  0.00    -0.276 OA
BRANCH  20  21
ATOM     21  C   UNL     1       3.685   6.099  -8.647  0.00  0.00    +0.295 C 
BRANCH  21  22
ATOM     22  C   UNL     1       4.756   4.965  -9.338  0.00  0.00    +0.071 C 
ATOM     23  C   UNL     1       6.057   5.674  -8.949  0.00  0.00    +0.006 C 
ATOM     24  C   UNL     1       4.680   5.259 -10.817  0.00  0.00    +0.006 C 
ENDBRANCH  21  22
BRANCH  21  25
ATOM     25  O   UNL     1       2.443   5.106  -8.709  0.00  0.00    -0.424 OA
BRANCH  25  26
ATOM     26  C   UNL     1       1.371   5.579  -9.410  0.00  0.00    +0.319 C 
ATOM     27  O   UNL     1       1.553   6.781  -9.774  0.00  0.00    -0.250 OA
BRANCH  26  29
ATOM     28  C   UNL     1      -0.166   5.159 -11.152  0.00  0.00    +0.012 C 
ATOM     29  C   UNL     1       0.817   4.720 -10.499  0.00  0.00    +0.110 C 
ENDBRANCH  26  29
ENDBRANCH  25  26
ENDBRANCH  21  25
ENDBRANCH  20  21
ENDBRANCH   1  20
BRANCH   1  30
ATOM     30  C   UNL     1       1.766   5.538  -5.432  0.00  0.00    +0.088 C 
BRANCH  30  31
ATOM     31  C   UNL     1       0.433   6.186  -5.741  0.00  0.00    +0.011 C 
BRANCH  31  32
ATOM     32  C   UNL     1      -0.524   5.104  -6.224  0.00  0.00    +0.005 C 
BRANCH  32  33
ATOM     33  C   UNL     1      -1.891   5.656  -6.516  0.00  0.00    +0.026 C 
BRANCH  33  34
ATOM     34  C   UNL     1      -2.554   6.214  -5.297  0.00  0.00    -0.022 A 
ATOM     35  C   UNL     1      -2.495   7.566  -4.984  0.00  0.00    -0.004 A 
ATOM     36  C   UNL     1      -2.193   8.017  -3.706  0.00  0.00    -0.000 A 
ATOM     37  C   UNL     1      -2.358   7.142  -2.652  0.00  0.00    -0.000 A 
ATOM     38  C   UNL     1      -2.682   5.833  -2.910  0.00  0.00    -0.000 A 
ATOM     39  C   UNL     1      -2.774   5.368  -4.216  0.00  0.00    -0.004 A 
ENDBRANCH  33  34
ENDBRANCH  32  33
ENDBRANCH  31  32
ENDBRANCH  30  31
ENDBRANCH   1  30
TORSDOF 15
ENDMDL
MODEL 7
REMARK VINA RESULT:      -8.1      3.175      5.097
REMARK  Name = 
REMARK  15 active torsions:
REMARK  status: ('A' for Active; 'I' for Inactive)
REMARK    1  A    between atoms: C_2  and  C_3
REMARK    2  A    between atoms: C_3  and  O_5
REMARK    3  A    between atoms: O_5  and  C_6
REMARK    4  A    between atoms: C_6  and  O_7
REMARK    5  A    between atoms: C_6  and  C_37
REMARK    6  A    between atoms: O_7  and  P_8
REMARK    7  A    between atoms: P_8  and  C_10
REMARK    8  A    between atoms: P_8  and  C_20
REMARK    9  A    between atoms: C_10  and  C_11
REMARK   10  A    between atoms: C_11  and  C_12
REMARK   11  A    between atoms: C_12  and  C_13
REMARK   12  A    between atoms: C_13  and  C_14
REMARK   13  A    between atoms: C_20  and  C_21
REMARK   14  A    between atoms: C_25  and  C_26
REMARK   15  A    between atoms: C_33  and  C_34
REMARK                            x       y       z     vdW  Elec       q    Type
REMARK                         _______ _______ _______ _____ _____    ______ ____
ROOT
ATOM      1  P   UNL     1       1.156   6.284  -1.113  0.00  0.00    +0.234 P 
ATOM      2  O   UNL     1       1.357   5.200  -0.064  0.00  0.00    -0.289 OA
ENDROOT
BRANCH   1   3
ATOM      3  C   UNL     1       1.565   5.483  -2.703  0.00  0.00    +0.172 C 
BRANCH   3   4
ATOM      4  C   UNL     1       3.046   5.558  -2.944  0.00  0.00    +0.236 C 
ATOM      5  N   UNL     1       3.370   6.076  -4.243  0.00  0.00    -0.271 N 
ATOM      6  C   UNL     1       4.917   5.907  -4.646  0.00  0.00    +0.179 C 
ATOM      7  C   UNL     1       4.748   6.806  -6.039  0.00  0.00    +0.033 C 
ATOM      8  C   UNL     1       3.139   6.572  -6.312  0.00  0.00    +0.022 C 
ATOM      9  C   UNL     1       3.051   5.204  -5.380  0.00  0.00    +0.094 C 
ATOM     10  O   UNL     1       3.648   4.538  -2.483  0.00  0.00    -0.274 OA
BRANCH   8  11
ATOM     11  C   UNL     1       3.395   5.768  -7.733  0.00  0.00    +0.002 C 
ATOM     12  C   UNL     1       3.193   6.630  -8.874  0.00  0.00    +0.000 C 
ATOM     13  C   UNL     1       1.786   6.650  -9.409  0.00  0.00    +0.000 C 
ATOM     14  C   UNL     1       1.168   5.274  -9.454  0.00  0.00    +0.000 C 
ATOM     15  C   UNL     1       2.126   4.190  -9.041  0.00  0.00    +0.000 C 
ATOM     16  C   UNL     1       2.695   4.472  -7.655  0.00  0.00    +0.000 C 
ENDBRANCH   8  11
BRANCH   6  17
ATOM     17  C   UNL     1       5.343   7.178  -3.696  0.00  0.00    +0.382 C 
ATOM     18  O   UNL     1       4.573   8.270  -3.666  0.00  0.00    -0.244 OA
ATOM     19  O   UNL     1       6.607   7.280  -3.731  0.00  0.00    -0.244 OA
ENDBRANCH   6  17
ENDBRANCH   3   4
ENDBRANCH   1   3
BRANCH   1  20
ATOM     20  O   UNL     1       2.225   7.540  -0.955  0.00  0.00    -0.276 OA
BRANCH  20  21
ATOM     21  C   UNL     1       2.614   7.589   0.562  0.00  0.00    +0.295 C 
BRANCH  21  22
ATOM     22  C   UNL     1       4.181   8.169   0.218  0.00  0.00    +0.071 C 
ATOM     23  C   UNL     1       4.874   6.805   0.138  0.00  0.00    +0.006 C 
ATOM     24  C   UNL     1       4.671   8.680   1.551  0.00  0.00    +0.006 C 
ENDBRANCH  21  22
BRANCH  21  25
ATOM     25  O   UNL     1       2.016   9.048   0.768  0.00  0.00    -0.424 OA
BRANCH  25  26
ATOM     26  C   UNL     1       0.897   9.099   1.550  0.00  0.00    +0.319 C 
ATOM     27  O   UNL     1      -0.106   9.516   0.892  0.00  0.00    -0.250 OA
BRANCH  26  29
ATOM     28  C   UNL     1      -0.588   7.447   2.349  0.00  0.00    +0.012 C 
ATOM     29  C   UNL     1       0.583   7.907   2.393  0.00  0.00    +0.110 C 
ENDBRANCH  26  29
ENDBRANCH  25  26
ENDBRANCH  21  25
ENDBRANCH  20  21
ENDBRANCH   1  20
BRANCH   1  30
ATOM     30  C   UNL     1      -0.561   6.795  -1.269  0.00  0.00    +0.088 C 
BRANCH  30  31
ATOM     31  C   UNL     1      -1.335   5.667  -1.917  0.00  0.00    +0.011 C 
BRANCH  31  32
ATOM     32  C   UNL     1      -2.581   6.254  -2.567  0.00  0.00    +0.005 C 
BRANCH  32  33
ATOM     33  C   UNL     1      -2.272   7.506  -3.338  0.00  0.00    +0.026 C 
BRANCH  33  34
ATOM     34  C   UNL     1      -1.963   7.231  -4.775  0.00  0.00    -0.022 A 
ATOM     35  C   UNL     1      -2.865   6.578  -5.606  0.00  0.00    -0.004 A 
ATOM     36  C   UNL     1      -2.479   5.540  -6.445  0.00  0.00    -0.000 A 
ATOM     37  C   UNL     1      -1.143   5.427  -6.767  0.00  0.00    -0.000 A 
ATOM     38  C   UNL     1      -0.230   6.249  -6.151  0.00  0.00    -0.000 A 
ATOM     39  C   UNL     1      -0.632   7.138  -5.161  0.00  0.00    -0.004 A 
ENDBRANCH  33  34
ENDBRANCH  32  33
ENDBRANCH  31  32
ENDBRANCH  30  31
ENDBRANCH   1  30
TORSDOF 15
ENDMDL
MODEL 8
REMARK VINA RESULT:      -8.0      2.045      9.843
REMARK  Name = 
REMARK  15 active torsions:
REMARK  status: ('A' for Active; 'I' for Inactive)
REMARK    1  A    between atoms: C_2  and  C_3
REMARK    2  A    between atoms: C_3  and  O_5
REMARK    3  A    between atoms: O_5  and  C_6
REMARK    4  A    between atoms: C_6  and  O_7
REMARK    5  A    between atoms: C_6  and  C_37
REMARK    6  A    between atoms: O_7  and  P_8
REMARK    7  A    between atoms: P_8  and  C_10
REMARK    8  A    between atoms: P_8  and  C_20
REMARK    9  A    between atoms: C_10  and  C_11
REMARK   10  A    between atoms: C_11  and  C_12
REMARK   11  A    between atoms: C_12  and  C_13
REMARK   12  A    between atoms: C_13  and  C_14
REMARK   13  A    between atoms: C_20  and  C_21
REMARK   14  A    between atoms: C_25  and  C_26
REMARK   15  A    between atoms: C_33  and  C_34
REMARK                            x       y       z     vdW  Elec       q    Type
REMARK                         _______ _______ _______ _____ _____    ______ ____
ROOT
ATOM      1  P   UNL     1       3.272   5.235  -8.489  0.00  0.00    +0.234 P 
ATOM      2  O   UNL     1       3.022   3.834  -9.028  0.00  0.00    -0.289 OA
ENDROOT
BRANCH   1   3
ATOM      3  C   UNL     1       2.143   5.399  -7.062  0.00  0.00    +0.172 C 
BRANCH   3   4
ATOM      4  C   UNL     1       2.803   6.208  -5.983  0.00  0.00    +0.236 C 
ATOM      5  N   UNL     1       2.198   6.013  -4.696  0.00  0.00    -0.271 N 
ATOM      6  C   UNL     1       2.682   7.063  -3.580  0.00  0.00    +0.179 C 
ATOM      7  C   UNL     1       1.877   6.273  -2.353  0.00  0.00    +0.033 C 
ATOM      8  C   UNL     1       0.703   5.531  -3.241  0.00  0.00    +0.022 C 
ATOM      9  C   UNL     1       0.848   6.565  -4.530  0.00  0.00    +0.094 C 
ATOM     10  O   UNL     1       3.101   7.375  -6.389  0.00  0.00    -0.274 OA
BRANCH   8  11
ATOM     11  C   UNL     1      -0.519   6.371  -2.512  0.00  0.00    +0.002 C 
ATOM     12  C   UNL     1      -1.448   5.487  -1.849  0.00  0.00    +0.000 C 
ATOM     13  C   UNL     1      -2.595   5.019  -2.705  0.00  0.00    +0.000 C 
ATOM     14  C   UNL     1      -3.168   6.126  -3.555  0.00  0.00    +0.000 C 
ATOM     15  C   UNL     1      -2.525   7.460  -3.288  0.00  0.00    +0.000 C 
ATOM     16  C   UNL     1      -1.015   7.378  -3.471  0.00  0.00    +0.000 C 
ENDBRANCH   8  11
BRANCH   6  17
ATOM     17  C   UNL     1       4.098   6.255  -3.378  0.00  0.00    +0.382 C 
ATOM     18  O   UNL     1       4.135   5.168  -2.601  0.00  0.00    -0.244 OA
ATOM     19  O   UNL     1       5.031   7.114  -3.331  0.00  0.00    -0.244 OA
ENDBRANCH   6  17
ENDBRANCH   3   4
ENDBRANCH   1   3
BRANCH   1  20
ATOM     20  O   UNL     1       2.826   6.423  -9.554  0.00  0.00    -0.276 OA
BRANCH  20  21
ATOM     21  C   UNL     1       1.946   5.721 -10.643  0.00  0.00    +0.295 C 
BRANCH  21  22
ATOM     22  C   UNL     1       0.624   6.759 -10.351  0.00  0.00    +0.071 C 
ATOM     23  C   UNL     1      -0.277   5.727  -9.664  0.00  0.00    +0.006 C 
ATOM     24  C   UNL     1      -0.035   6.884 -11.703  0.00  0.00    +0.006 C 
ENDBRANCH  21  22
BRANCH  21  25
ATOM     25  O   UNL     1       2.516   6.623 -11.823  0.00  0.00    -0.424 OA
BRANCH  25  26
ATOM     26  C   UNL     1       3.305   5.958 -12.718  0.00  0.00    +0.319 C 
ATOM     27  O   UNL     1       3.923   4.999 -12.162  0.00  0.00    -0.250 OA
BRANCH  26  29
ATOM     28  C   UNL     1       1.824   4.673 -14.032  0.00  0.00    +0.012 C 
ATOM     29  C   UNL     1       2.700   5.577 -14.029  0.00  0.00    +0.110 C 
ENDBRANCH  26  29
ENDBRANCH  25  26
ENDBRANCH  21  25
ENDBRANCH  20  21
ENDBRANCH   1  20
BRANCH   1  30
ATOM     30  C   UNL     1       4.924   5.437  -7.810  0.00  0.00    +0.088 C 
BRANCH  30  31
ATOM     31  C   UNL     1       5.914   4.822  -8.777  0.00  0.00    +0.011 C 
BRANCH  31  32
ATOM     32  C   UNL     1       7.111   5.757  -8.894  0.00  0.00    +0.005 C 
BRANCH  32  33
ATOM     33  C   UNL     1       8.059   5.319  -9.974  0.00  0.00    +0.026 C 
BRANCH  33  34
ATOM     34  C   UNL     1       7.995   6.198 -11.182  0.00  0.00    -0.022 A 
ATOM     35  C   UNL     1       7.269   7.383 -11.189  0.00  0.00    -0.004 A 
ATOM     36  C   UNL     1       6.414   7.720 -12.230  0.00  0.00    -0.000 A 
ATOM     37  C   UNL     1       6.592   7.093 -13.446  0.00  0.00    -0.000 A 
ATOM     38  C   UNL     1       7.506   6.073 -13.550  0.00  0.00    -0.000 A 
ATOM     39  C   UNL     1       8.198   5.624 -12.431  0.00  0.00    -0.004 A 
ENDBRANCH  33  34
ENDBRANCH  32  33
ENDBRANCH  31  32
ENDBRANCH  30  31
ENDBRANCH   1  30
TORSDOF 15
ENDMDL
MODEL 9
REMARK VINA RESULT:      -8.0      1.583      2.097
REMARK  Name = 
REMARK  15 active torsions:
REMARK  status: ('A' for Active; 'I' for Inactive)
REMARK    1  A    between atoms: C_2  and  C_3
REMARK    2  A    between atoms: C_3  and  O_5
REMARK    3  A    between atoms: O_5  and  C_6
REMARK    4  A    between atoms: C_6  and  O_7
REMARK    5  A    between atoms: C_6  and  C_37
REMARK    6  A    between atoms: O_7  and  P_8
REMARK    7  A    between atoms: P_8  and  C_10
REMARK    8  A    between atoms: P_8  and  C_20
REMARK    9  A    between atoms: C_10  and  C_11
REMARK   10  A    between atoms: C_11  and  C_12
REMARK   11  A    between atoms: C_12  and  C_13
REMARK   12  A    between atoms: C_13  and  C_14
REMARK   13  A    between atoms: C_20  and  C_21
REMARK   14  A    between atoms: C_25  and  C_26
REMARK   15  A    between atoms: C_33  and  C_34
REMARK                            x       y       z     vdW  Elec       q    Type
REMARK                         _______ _______ _______ _____ _____    ______ ____
ROOT
ATOM      1  P   UNL     1       1.138   5.091  -6.755  0.00  0.00    +0.234 P 
ATOM      2  O   UNL     1       1.218   3.830  -5.907  0.00  0.00    -0.289 OA
ENDROOT
BRANCH   1   3
ATOM      3  C   UNL     1       2.231   4.768  -8.183  0.00  0.00    +0.172 C 
BRANCH   3   4
ATOM      4  C   UNL     1       1.762   5.560  -9.370  0.00  0.00    +0.236 C 
ATOM      5  N   UNL     1       2.714   5.563 -10.445  0.00  0.00    -0.271 N 
ATOM      6  C   UNL     1       2.383   6.621 -11.608  0.00  0.00    +0.179 C 
ATOM      7  C   UNL     1       3.606   6.062 -12.593  0.00  0.00    +0.033 C 
ATOM      8  C   UNL     1       4.602   5.428 -11.444  0.00  0.00    +0.022 C 
ATOM      9  C   UNL     1       3.950   6.318 -10.205  0.00  0.00    +0.094 C 
ATOM     10  O   UNL     1       1.179   6.633  -9.017  0.00  0.00    -0.274 OA
BRANCH   8  11
ATOM     11  C   UNL     1       5.821   6.495 -11.769  0.00  0.00    +0.002 C 
ATOM     12  C   UNL     1       6.251   6.408 -13.144  0.00  0.00    +0.000 C 
ATOM     13  C   UNL     1       7.360   5.422 -13.398  0.00  0.00    +0.000 C 
ATOM     14  C   UNL     1       8.429   5.474 -12.334  0.00  0.00    +0.000 C 
ATOM     15  C   UNL     1       8.188   6.555 -11.316  0.00  0.00    +0.000 C 
ATOM     16  C   UNL     1       6.812   6.401 -10.680  0.00  0.00    +0.000 C 
ENDBRANCH   8  11
BRANCH   6  17
ATOM     17  C   UNL     1       1.224   5.635 -12.229  0.00  0.00    +0.382 C 
ATOM     18  O   UNL     1       1.525   4.816 -13.240  0.00  0.00    -0.244 OA
ATOM     19  O   UNL     1       0.127   6.272 -12.218  0.00  0.00    -0.244 OA
ENDBRANCH   6  17
ENDBRANCH   3   4
ENDBRANCH   1   3
BRANCH   1  20
ATOM     20  O   UNL     1       1.772   6.419  -5.994  0.00  0.00    -0.276 OA
BRANCH  20  21
ATOM     21  C   UNL     1       2.671   5.867  -4.837  0.00  0.00    +0.295 C 
BRANCH  21  22
ATOM     22  C   UNL     1       3.941   6.943  -5.209  0.00  0.00    +0.071 C 
ATOM     23  C   UNL     1       4.764   5.974  -6.066  0.00  0.00    +0.006 C 
ATOM     24  C   UNL     1       4.754   6.988  -3.938  0.00  0.00    +0.006 C 
ENDBRANCH  21  22
BRANCH  21  25
ATOM     25  O   UNL     1       2.038   6.841  -3.750  0.00  0.00    -0.424 OA
BRANCH  25  26
ATOM     26  C   UNL     1       1.381   6.209  -2.733  0.00  0.00    +0.319 C 
ATOM     27  O   UNL     1       0.826   5.141  -3.136  0.00  0.00    -0.250 OA
BRANCH  26  29
ATOM     28  C   UNL     1       2.966   5.115  -1.368  0.00  0.00    +0.012 C 
ATOM     29  C   UNL     1       2.108   6.033  -1.440  0.00  0.00    +0.110 C 
ENDBRANCH  26  29
ENDBRANCH  25  26
ENDBRANCH  21  25
ENDBRANCH  20  21
ENDBRANCH   1  20
BRANCH   1  30
ATOM     30  C   UNL     1      -0.495   5.356  -7.459  0.00  0.00    +0.088 C 
BRANCH  30  31
ATOM     31  C   UNL     1      -1.528   4.958  -6.426  0.00  0.00    +0.011 C 
BRANCH  31  32
ATOM     32  C   UNL     1      -2.768   5.820  -6.634  0.00  0.00    +0.005 C 
BRANCH  32  33
ATOM     33  C   UNL     1      -2.786   7.005  -5.711  0.00  0.00    +0.026 C 
BRANCH  33  34
ATOM     34  C   UNL     1      -2.233   6.684  -4.359  0.00  0.00    -0.022 A 
ATOM     35  C   UNL     1      -2.587   5.526  -3.678  0.00  0.00    -0.004 A 
ATOM     36  C   UNL     1      -2.947   5.538  -2.337  0.00  0.00    -0.000 A 
ATOM     37  C   UNL     1      -2.559   6.617  -1.569  0.00  0.00    -0.000 A 
ATOM     38  C   UNL     1      -1.955   7.691  -2.175  0.00  0.00    -0.000 A 
ATOM     39  C   UNL     1      -1.797   7.731  -3.556  0.00  0.00    -0.004 A 
ENDBRANCH  33  34
ENDBRANCH  32  33
ENDBRANCH  31  32
ENDBRANCH  30  31
ENDBRANCH   1  30
TORSDOF 15
ENDMDL
