MODEL 1
REMARK VINA RESULT:      -4.7      0.000      0.000
REMARK  Name = 
REMARK  5 active torsions:
REMARK  status: ('A' for Active; 'I' for Inactive)
REMARK    1  A    between atoms: C_2  and  C_4
REMARK    2  A    between atoms: C_4  and  C_5
REMARK    3  A    between atoms: C_5  and  C_7
REMARK    4  A    between atoms: C_5  and  C_11
REMARK    5  A    between atoms: C_7  and  C_8
REMARK                            x       y       z     vdW  Elec       q    Type
REMARK                         _______ _______ _______ _____ _____    ______ ____
ROOT
ATOM      1  C   UNL     1       0.348   6.106  -6.025  0.00  0.00    +0.240 C 
ATOM      2  O   UNL     1       0.495   7.293  -5.339  0.00  0.00    -0.213 OA
ENDROOT
BRANCH   1   3
ATOM      3  C   UNL     1       1.026   4.998  -5.288  0.00  0.00    +0.393 C 
ATOM      4  O   UNL     1       1.355   3.865  -5.999  0.00  0.00    -0.243 OA
ATOM      5  O   UNL     1       0.936   5.046  -4.029  0.00  0.00    -0.243 OA
ENDBRANCH   1   3
BRANCH   1   6
ATOM      6  C   UNL     1       1.097   6.262  -7.340  0.00  0.00    +0.156 C 
BRANCH   6   8
ATOM      7  O   UNL     1       2.125   8.321  -7.875  0.00  0.00    -0.246 OA
ATOM      8  C   UNL     1       2.174   7.256  -7.189  0.00  0.00    +0.368 C 
ATOM      9  O   UNL     1       3.257   7.120  -6.347  0.00  0.00    -0.246 OA
ENDBRANCH   6   8
ENDBRANCH   1   6
BRANCH   1  10
ATOM     10  C   UNL     1      -1.067   5.752  -6.363  0.00  0.00    +0.156 C 
BRANCH  10  11
ATOM     11  C   UNL     1      -2.058   6.276  -5.405  0.00  0.00    +0.368 C 
ATOM     12  O   UNL     1      -2.591   5.375  -4.484  0.00  0.00    -0.246 OA
ATOM     13  O   UNL     1      -2.759   7.309  -5.625  0.00  0.00    -0.246 OA
ENDBRANCH  10  11
ENDBRANCH   1  10
TORSDOF 5
ENDMDL
MODEL 2
REMARK VINA RESULT:      -4.6      2.477      4.321
REMARK  Name = 
REMARK  5 active torsions:
REMARK  status: ('A' for Active; 'I' for Inactive)
REMARK    1  A    between atoms: C_2  and  C_4
REMARK    2  A    between atoms: C_4  and  C_5
REMARK    3  A    between atoms: C_5  and  C_7
REMARK    4  A    between atoms: C_5  and  C_11
REMARK    5  A    between atoms: C_7  and  C_8
REMARK                            x       y       z     vdW  Elec       q    Type
REMARK                         _______ _______ _______ _____ _____    ______ ____
ROOT
ATOM      1  C   UNL     1       1.969   4.962  -8.064  0.00  0.00    +0.240 C 
ATOM      2  O   UNL     1       2.333   3.807  -8.721  0.00  0.00    -0.213 OA
ENDROOT
BRANCH   1   3
ATOM      3  C   UNL     1       1.573   4.652  -6.657  0.00  0.00    +0.393 C 
ATOM      4  O   UNL     1       2.480   3.972  -5.874  0.00  0.00    -0.243 OA
ATOM      5  O   UNL     1       0.338   4.732  -6.409  0.00  0.00    -0.243 OA
ENDBRANCH   1   3
BRANCH   1   6
ATOM      6  C   UNL     1       0.717   5.485  -8.752  0.00  0.00    +0.156 C 
BRANCH   6   8
ATOM      7  O   UNL     1       0.035   4.298 -10.678  0.00  0.00    -0.246 OA
ATOM      8  C   UNL     1       0.783   5.201 -10.196  0.00  0.00    +0.368 C 
ATOM      9  O   UNL     1       1.610   5.850 -11.088  0.00  0.00    -0.246 OA
ENDBRANCH   6   8
ENDBRANCH   1   6
BRANCH   1  10
ATOM     10  C   UNL     1       2.990   6.057  -8.116  0.00  0.00    +0.156 C 
BRANCH  10  11
ATOM     11  C   UNL     1       2.665   7.216  -7.264  0.00  0.00    +0.368 C 
ATOM     12  O   UNL     1       2.106   8.330  -7.890  0.00  0.00    -0.246 OA
ATOM     13  O   UNL     1       3.231   7.442  -6.152  0.00  0.00    -0.246 OA
ENDBRANCH  10  11
ENDBRANCH   1  10
TORSDOF 5
ENDMDL
MODEL 3
REMARK VINA RESULT:      -4.6      5.794      8.675
REMARK  Name = 
REMARK  5 active torsions:
REMARK  status: ('A' for Active; 'I' for Inactive)
REMARK    1  A    between atoms: C_2  and  C_4
REMARK    2  A    between atoms: C_4  and  C_5
REMARK    3  A    between atoms: C_5  and  C_7
REMARK    4  A    between atoms: C_5  and  C_11
REMARK    5  A    between atoms: C_7  and  C_8
REMARK                            x       y       z     vdW  Elec       q    Type
REMARK                         _______ _______ _______ _____ _____    ______ ____
ROOT
ATOM      1  C   UNL     1       6.035   6.125 -10.668  0.00  0.00    +0.240 C 
ATOM      2  O   UNL     1       6.679   5.344  -9.733  0.00  0.00    -0.213 OA
ENDROOT
BRANCH   1   3
ATOM      3  C   UNL     1       6.794   7.392 -10.893  0.00  0.00    +0.393 C 
ATOM      4  O   UNL     1       7.970   7.564 -10.196  0.00  0.00    -0.243 OA
ATOM      5  O   UNL     1       6.142   8.330 -11.431  0.00  0.00    -0.243 OA
ENDBRANCH   1   3
BRANCH   1   6
ATOM      6  C   UNL     1       4.702   6.532 -10.060  0.00  0.00    +0.156 C 
BRANCH   6   8
ATOM      7  O   UNL     1       4.391   5.856  -7.817  0.00  0.00    -0.246 OA
ATOM      8  C   UNL     1       4.293   5.548  -9.043  0.00  0.00    +0.368 C 
ATOM      9  O   UNL     1       3.804   4.288  -9.319  0.00  0.00    -0.246 OA
ENDBRANCH   6   8
ENDBRANCH   1   6
BRANCH   1  10
ATOM     10  C   UNL     1       5.736   5.431 -11.961  0.00  0.00    +0.156 C 
BRANCH  10  11
ATOM     11  C   UNL     1       6.900   5.311 -12.858  0.00  0.00    +0.368 C 
ATOM     12  O   UNL     1       6.707   5.637 -14.200  0.00  0.00    -0.246 OA
ATOM     13  O   UNL     1       7.887   4.552 -12.617  0.00  0.00    -0.246 OA
ENDBRANCH  10  11
ENDBRANCH   1  10
TORSDOF 5
ENDMDL
MODEL 4
REMARK VINA RESULT:      -4.5      1.851      2.948
REMARK  Name = 
REMARK  5 active torsions:
REMARK  status: ('A' for Active; 'I' for Inactive)
REMARK    1  A    between atoms: C_2  and  C_4
REMARK    2  A    between atoms: C_4  and  C_5
REMARK    3  A    between atoms: C_5  and  C_7
REMARK    4  A    between atoms: C_5  and  C_11
REMARK    5  A    between atoms: C_7  and  C_8
REMARK                            x       y       z     vdW  Elec       q    Type
REMARK                         _______ _______ _______ _____ _____    ______ ____
ROOT
ATOM      1  C   UNL     1      -0.531   5.848  -5.214  0.00  0.00    +0.240 C 
ATOM      2  O   UNL     1       0.267   4.752  -4.964  0.00  0.00    -0.213 OA
ENDROOT
BRANCH   1   3
ATOM      3  C   UNL     1      -1.377   5.606  -6.421  0.00  0.00    +0.393 C 
ATOM      4  O   UNL     1      -2.715   5.345  -6.221  0.00  0.00    -0.243 OA
ATOM      5  O   UNL     1      -0.748   5.326  -7.479  0.00  0.00    -0.243 OA
ENDBRANCH   1   3
BRANCH   1   6
ATOM      6  C   UNL     1       0.399   6.997  -5.571  0.00  0.00    +0.156 C 
BRANCH   6   8
ATOM      7  O   UNL     1       2.679   6.425  -5.816  0.00  0.00    -0.246 OA
ATOM      8  C   UNL     1       1.743   6.744  -5.022  0.00  0.00    +0.368 C 
ATOM      9  O   UNL     1       2.075   6.826  -3.686  0.00  0.00    -0.246 OA
ENDBRANCH   6   8
ENDBRANCH   1   6
BRANCH   1  10
ATOM     10  C   UNL     1      -1.357   6.296  -4.048  0.00  0.00    +0.156 C 
BRANCH  10  11
ATOM     11  C   UNL     1      -1.505   5.275  -2.994  0.00  0.00    +0.368 C 
ATOM     12  O   UNL     1      -2.765   4.697  -2.839  0.00  0.00    -0.246 OA
ATOM     13  O   UNL     1      -0.746   5.207  -1.981  0.00  0.00    -0.246 OA
ENDBRANCH  10  11
ENDBRANCH   1  10
TORSDOF 5
ENDMDL
MODEL 5
REMARK VINA RESULT:      -4.5      3.660      5.092
REMARK  Name = 
REMARK  5 active torsions:
REMARK  status: ('A' for Active; 'I' for Inactive)
REMARK    1  A    between atoms: C_2  and  C_4
REMARK    2  A    between atoms: C_4  and  C_5
REMARK    3  A    between atoms: C_5  and  C_7
REMARK    4  A    between atoms: C_5  and  C_11
REMARK    5  A    between atoms: C_7  and  C_8
REMARK                            x       y       z     vdW  Elec       q    Type
REMARK                         _______ _______ _______ _____ _____    ______ ____
ROOT
ATOM      1  C   UNL     1       2.729   5.594  -9.691  0.00  0.00    +0.240 C 
ATOM      2  O   UNL     1       2.760   5.490 -11.065  0.00  0.00    -0.213 OA
ENDROOT
BRANCH   1   3
ATOM      3  C   UNL     1       3.354   4.390  -9.068  0.00  0.00    +0.393 C 
ATOM      4  O   UNL     1       2.526   3.507  -8.410  0.00  0.00    -0.243 OA
ATOM      5  O   UNL     1       4.605   4.450  -8.902  0.00  0.00    -0.243 OA
ENDBRANCH   1   3
BRANCH   1   6
ATOM      6  C   UNL     1       1.264   5.573  -9.280  0.00  0.00    +0.156 C 
BRANCH   6   8
ATOM      7  O   UNL     1       0.246   7.101 -10.767  0.00  0.00    -0.246 OA
ATOM      8  C   UNL     1       0.413   5.888 -10.440  0.00  0.00    +0.368 C 
ATOM      9  O   UNL     1      -0.234   4.951 -11.219  0.00  0.00    -0.246 OA
ENDBRANCH   6   8
ENDBRANCH   1   6
BRANCH   1  10
ATOM     10  C   UNL     1       3.320   6.859  -9.149  0.00  0.00    +0.156 C 
BRANCH  10  11
ATOM     11  C   UNL     1       2.761   7.268  -7.847  0.00  0.00    +0.368 C 
ATOM     12  O   UNL     1       2.031   8.456  -7.811  0.00  0.00    -0.246 OA
ATOM     13  O   UNL     1       3.239   6.888  -6.735  0.00  0.00    -0.246 OA
ENDBRANCH  10  11
ENDBRANCH   1  10
TORSDOF 5
ENDMDL
MODEL 6
REMARK VINA RESULT:      -4.5      6.266      8.450
REMARK  Name = 
REMARK  5 active torsions:
REMARK  status: ('A' for Active; 'I' for Inactive)
REMARK    1  A    between atoms: C_2  and  C_4
REMARK    2  A    between atoms: C_4  and  C_5
REMARK    3  A    between atoms: C_5  and  C_7
REMARK    4  A    between atoms: C_5  and  C_11
REMARK    5  A    between atoms: C_7  and  C_8
REMARK                            x       y       z     vdW  Elec       q    Type
REMARK                         _______ _______ _______ _____ _____    ______ ____
ROOT
ATOM      1  C   UNL     1       5.914   6.273 -11.539  0.00  0.00    +0.240 C 
ATOM      2  O   UNL     1       5.355   5.494 -12.529  0.00  0.00    -0.213 OA
ENDROOT
BRANCH   1   3
ATOM      3  C   UNL     1       6.414   7.558 -12.113  0.00  0.00    +0.393 C 
ATOM      4  O   UNL     1       6.667   8.593 -11.240  0.00  0.00    -0.243 OA
ATOM      5  O   UNL     1       6.241   7.703 -13.356  0.00  0.00    -0.243 OA
ENDBRANCH   1   3
BRANCH   1   6
ATOM      6  C   UNL     1       7.141   5.530 -11.032  0.00  0.00    +0.156 C 
BRANCH   6   8
ATOM      7  O   UNL     1       7.814   4.667 -13.126  0.00  0.00    -0.246 OA
ATOM      8  C   UNL     1       8.120   5.377 -12.122  0.00  0.00    +0.368 C 
ATOM      9  O   UNL     1       9.373   5.953 -12.140  0.00  0.00    -0.246 OA
ENDBRANCH   6   8
ENDBRANCH   1   6
BRANCH   1  10
ATOM     10  C   UNL     1       5.025   6.512 -10.357  0.00  0.00    +0.156 C 
BRANCH  10  11
ATOM     11  C   UNL     1       3.971   5.494 -10.189  0.00  0.00    +0.368 C 
ATOM     12  O   UNL     1       2.659   5.887 -10.449  0.00  0.00    -0.246 OA
ATOM     13  O   UNL     1       4.099   4.480  -9.438  0.00  0.00    -0.246 OA
ENDBRANCH  10  11
ENDBRANCH   1  10
TORSDOF 5
ENDMDL
MODEL 7
REMARK VINA RESULT:      -4.4      2.578      3.926
REMARK  Name = 
REMARK  5 active torsions:
REMARK  status: ('A' for Active; 'I' for Inactive)
REMARK    1  A    between atoms: C_2  and  C_4
REMARK    2  A    between atoms: C_4  and  C_5
REMARK    3  A    between atoms: C_5  and  C_7
REMARK    4  A    between atoms: C_5  and  C_11
REMARK    5  A    between atoms: C_7  and  C_8
REMARK                            x       y       z     vdW  Elec       q    Type
REMARK                         _______ _______ _______ _____ _____    ______ ____
ROOT
ATOM      1  C   UNL     1       3.028   5.830  -5.823  0.00  0.00    +0.240 C 
ATOM      2  O   UNL     1       2.644   6.834  -4.960  0.00  0.00    -0.213 OA
ENDROOT
BRANCH   1   3
ATOM      3  C   UNL     1       2.120   4.653  -5.681  0.00  0.00    +0.393 C 
ATOM      4  O   UNL     1       2.215   3.655  -6.626  0.00  0.00    -0.243 OA
ATOM      5  O   UNL     1       1.124   4.822  -4.923  0.00  0.00    -0.243 OA
ENDBRANCH   1   3
BRANCH   1   6
ATOM      6  C   UNL     1       4.403   5.363  -5.371  0.00  0.00    +0.156 C 
BRANCH   6   8
ATOM      7  O   UNL     1       5.274   6.716  -3.641  0.00  0.00    -0.246 OA
ATOM      8  C   UNL     1       4.600   5.687  -3.947  0.00  0.00    +0.368 C 
ATOM      9  O   UNL     1       4.103   4.947  -2.895  0.00  0.00    -0.246 OA
ENDBRANCH   6   8
ENDBRANCH   1   6
BRANCH   1  10
ATOM     10  C   UNL     1       3.156   6.253  -7.254  0.00  0.00    +0.156 C 
BRANCH  10  11
ATOM     11  C   UNL     1       2.040   7.093  -7.729  0.00  0.00    +0.368 C 
ATOM     12  O   UNL     1       1.056   6.470  -8.496  0.00  0.00    -0.246 OA
ATOM     13  O   UNL     1       2.128   8.349  -7.872  0.00  0.00    -0.246 OA
ENDBRANCH  10  11
ENDBRANCH   1  10
TORSDOF 5
ENDMDL
MODEL 8
REMARK VINA RESULT:      -4.4      1.489      1.761
REMARK  Name = 
REMARK  5 active torsions:
REMARK  status: ('A' for Active; 'I' for Inactive)
REMARK    1  A    between atoms: C_2  and  C_4
REMARK    2  A    between atoms: C_4  and  C_5
REMARK    3  A    between atoms: C_5  and  C_7
REMARK    4  A    between atoms: C_5  and  C_11
REMARK    5  A    between atoms: C_7  and  C_8
REMARK                            x       y       z     vdW  Elec       q    Type
REMARK                         _______ _______ _______ _____ _____    ______ ____
ROOT
ATOM      1  C   UNL     1       1.766   6.355  -5.221  0.00  0.00    +0.240 C 
ATOM      2  O   UNL     1       1.883   6.789  -3.918  0.00  0.00    -0.213 OA
ENDROOT
BRANCH   1   3
ATOM      3  C   UNL     1       2.043   4.890  -5.303  0.00  0.00    +0.393 C 
ATOM      4  O   UNL     1       3.329   4.467  -5.048  0.00  0.00    -0.243 OA
ATOM      5  O   UNL     1       1.179   4.206  -5.921  0.00  0.00    -0.243 OA
ENDBRANCH   1   3
BRANCH   1   6
ATOM      6  C   UNL     1       2.867   7.041  -6.015  0.00  0.00    +0.156 C 
BRANCH   6   8
ATOM      7  O   UNL     1       2.095   8.341  -7.831  0.00  0.00    -0.246 OA
ATOM      8  C   UNL     1       2.451   7.196  -7.420  0.00  0.00    +0.368 C 
ATOM      9  O   UNL     1       2.414   6.175  -8.346  0.00  0.00    -0.246 OA
ENDBRANCH   6   8
ENDBRANCH   1   6
BRANCH   1  10
ATOM     10  C   UNL     1       0.466   6.704  -5.879  0.00  0.00    +0.156 C 
BRANCH  10  11
ATOM     11  C   UNL     1      -0.631   6.966  -4.930  0.00  0.00    +0.368 C 
ATOM     12  O   UNL     1      -1.382   5.870  -4.506  0.00  0.00    -0.246 OA
ATOM     13  O   UNL     1      -1.202   8.093  -4.822  0.00  0.00    -0.246 OA
ENDBRANCH  10  11
ENDBRANCH   1  10
TORSDOF 5
ENDMDL
MODEL 9
REMARK VINA RESULT:      -4.4      2.074      4.627
REMARK  Name = 
REMARK  5 active torsions:
REMARK  status: ('A' for Active; 'I' for Inactive)
REMARK    1  A    between atoms: C_2  and  C_4
REMARK    2  A    between atoms: C_4  and  C_5
REMARK    3  A    between atoms: C_5  and  C_7
REMARK    4  A    between atoms: C_5  and  C_11
REMARK    5  A    between atoms: C_7  and  C_8
REMARK                            x       y       z     vdW  Elec       q    Type
REMARK                         _______ _______ _______ _____ _____    ______ ____
ROOT
ATOM      1  C   UNL     1      -0.910   6.101  -4.960  0.00  0.00    +0.240 C 
ATOM      2  O   UNL     1      -0.825   7.473  -4.854  0.00  0.00    -0.213 OA
ENDROOT
BRANCH   1   3
ATOM      3  C   UNL     1      -0.558   5.668  -6.346  0.00  0.00    +0.393 C 
ATOM      4  O   UNL     1       0.592   6.184  -6.903  0.00  0.00    -0.243 OA
ATOM      5  O   UNL     1      -1.497   5.145  -7.008  0.00  0.00    -0.243 OA
ENDBRANCH   1   3
BRANCH   1   6
ATOM      6  C   UNL     1      -2.373   5.734  -4.760  0.00  0.00    +0.156 C 
BRANCH   6   8
ATOM      7  O   UNL     1      -2.905   4.680  -2.713  0.00  0.00    -0.246 OA
ATOM      8  C   UNL     1      -2.708   5.773  -3.326  0.00  0.00    +0.368 C 
ATOM      9  O   UNL     1      -2.830   6.924  -2.577  0.00  0.00    -0.246 OA
ENDBRANCH   6   8
ENDBRANCH   1   6
BRANCH   1  10
ATOM     10  C   UNL     1      -0.122   5.346  -3.934  0.00  0.00    +0.156 C 
BRANCH  10  11
ATOM     11  C   UNL     1       0.904   6.159  -3.254  0.00  0.00    +0.368 C 
ATOM     12  O   UNL     1       2.133   6.301  -3.897  0.00  0.00    -0.246 OA
ATOM     13  O   UNL     1       0.918   6.353  -2.002  0.00  0.00    -0.246 OA
ENDBRANCH  10  11
ENDBRANCH   1  10
TORSDOF 5
ENDMDL
