MODEL 1
REMARK VINA RESULT:      -9.0      0.000      0.000
REMARK  Name = 
REMARK  9 active torsions:
REMARK  status: ('A' for Active; 'I' for Inactive)
REMARK    1  A    between atoms: C_2  and  O_3
REMARK    2  A    between atoms: O_3  and  C_4
REMARK    3  A    between atoms: C_4  and  O_6
REMARK    4  A    between atoms: O_6  and  C_7
REMARK    5  A    between atoms: C_7  and  C_8
REMARK    6  A    between atoms: C_8  and  C_10
REMARK    7  A    between atoms: C_10  and  O_11
REMARK    8  A    between atoms: O_11  and  C_12
REMARK    9  A    between atoms: C_12  and  C_14
REMARK                            x       y       z     vdW  Elec       q    Type
REMARK                         _______ _______ _______ _____ _____    ______ ____
ROOT
ATOM      1  C   UNL     1       2.062   5.465  -8.691  0.00  0.00    +0.193 C 
ATOM      2  C   UNL     1       2.073   5.454  -7.185  0.00  0.00    +0.043 C 
ATOM      3  C   UNL     1       3.473   6.241  -7.041  0.00  0.00    +0.004 C 
ATOM      4  C   UNL     1       3.069   6.673  -5.469  0.00  0.00    +0.003 C 
ATOM      5  C   UNL     1       3.715   5.266  -4.840  0.00  0.00    +0.038 C 
ATOM      6  C   UNL     1       2.339   4.257  -4.941  0.00  0.00    +0.153 C 
ATOM      7  O   UNL     1       1.292   5.332  -4.758  0.00  0.00    -0.223 OA
ATOM      8  C   UNL     1       3.399   5.706  -3.344  0.00  0.00    +0.036 C 
ATOM      9  C   UNL     1       4.736   6.319  -3.009  0.00  0.00    -0.038 C 
ATOM     10  C   UNL     1       4.764   6.670  -1.718  0.00  0.00    +0.034 C 
ATOM     11  C   UNL     1       3.801   6.126  -0.747  0.00  0.00    +0.195 C 
ATOM     12  C   UNL     1       2.989   4.986  -1.205  0.00  0.00    +0.038 C 
ATOM     13  O   UNL     1       3.724   6.576   0.437  0.00  0.00    -0.287 OA
ATOM     14  C   UNL     1       5.207   7.153  -4.102  0.00  0.00    +0.022 C 
ATOM     15  C   UNL     1       2.510   6.860  -3.194  0.00  0.00    +0.009 C 
ATOM     16  C   UNL     1       3.072   4.596  -2.485  0.00  0.00    -0.020 C 
ATOM     17  C   UNL     1       4.439   7.468  -5.254  0.00  0.00    +0.004 C 
ATOM     18  C   UNL     1       2.807   7.565  -7.691  0.00  0.00    +0.004 C 
ATOM     19  C   UNL     1       0.941   6.366  -6.872  0.00  0.00    +0.004 C 
ATOM     20  C   UNL     1       2.277   4.226  -6.574  0.00  0.00    +0.037 C 
ATOM     21  C   UNL     1       2.036   7.010  -8.847  0.00  0.00    +0.048 C 
ENDROOT
BRANCH   1  22
ATOM     22  C   UNL     1       3.273   5.081  -9.369  0.00  0.00    +0.230 C 
ATOM     23  O   UNL     1       3.815   4.009  -9.060  0.00  0.00    -0.288 OA
BRANCH  22  24
ATOM     24  C   UNL     1       4.035   5.717 -10.428  0.00  0.00    +0.276 C 
BRANCH  24  25
ATOM     25  O   UNL     1       5.332   5.438 -10.658  0.00  0.00    -0.440 OA
BRANCH  25  26
ATOM     26  C   UNL     1       6.416   6.094 -10.128  0.00  0.00    +0.317 C 
ATOM     27  O   UNL     1       6.781   5.576  -9.057  0.00  0.00    -0.250 OA
BRANCH  26  28
ATOM     28  C   UNL     1       7.269   7.057 -10.856  0.00  0.00    +0.110 C 
ATOM     29  C   UNL     1       6.506   8.222 -11.415  0.00  0.00    +0.012 C 
ENDBRANCH  26  28
ENDBRANCH  25  26
ENDBRANCH  24  25
ENDBRANCH  22  24
ENDBRANCH   1  22
BRANCH   1  30
ATOM     30  O   UNL     1       0.825   5.202  -9.061  0.00  0.00    -0.418 OA
BRANCH  30  31
ATOM     31  C   UNL     1       0.062   5.033 -10.138  0.00  0.00    +0.512 C 
ATOM     32  O   UNL     1       0.393   3.940 -10.631  0.00  0.00    -0.203 OA
BRANCH  31  33
ATOM     33  O   UNL     1      -0.346   6.034 -10.997  0.00  0.00    -0.418 OA
BRANCH  33  35
ATOM     34  C   UNL     1       0.043   7.531 -12.483  0.00  0.00    +0.051 C 
ATOM     35  C   UNL     1       0.425   6.503 -12.076  0.00  0.00    +0.212 C 
ENDBRANCH  33  35
ENDBRANCH  31  33
ENDBRANCH  30  31
ENDBRANCH   1  30
TORSDOF 9
ENDMDL
MODEL 2
REMARK VINA RESULT:      -8.7      2.123      6.777
REMARK  Name = 
REMARK  9 active torsions:
REMARK  status: ('A' for Active; 'I' for Inactive)
REMARK    1  A    between atoms: C_2  and  O_3
REMARK    2  A    between atoms: O_3  and  C_4
REMARK    3  A    between atoms: C_4  and  O_6
REMARK    4  A    between atoms: O_6  and  C_7
REMARK    5  A    between atoms: C_7  and  C_8
REMARK    6  A    between atoms: C_8  and  C_10
REMARK    7  A    between atoms: C_10  and  O_11
REMARK    8  A    between atoms: O_11  and  C_12
REMARK    9  A    between atoms: C_12  and  C_14
REMARK                            x       y       z     vdW  Elec       q    Type
REMARK                         _______ _______ _______ _____ _____    ______ ____
ROOT
ATOM      1  C   UNL     1       0.744   5.838  -6.047  0.00  0.00    +0.193 C 
ATOM      2  C   UNL     1       1.563   6.028  -7.296  0.00  0.00    +0.043 C 
ATOM      3  C   UNL     1       2.897   5.344  -6.704  0.00  0.00    +0.004 C 
ATOM      4  C   UNL     1       3.456   5.080  -8.266  0.00  0.00    +0.003 C 
ATOM      5  C   UNL     1       4.177   6.585  -8.340  0.00  0.00    +0.038 C 
ATOM      6  C   UNL     1       2.860   7.496  -8.939  0.00  0.00    +0.153 C 
ATOM      7  O   UNL     1       2.205   6.393  -9.739  0.00  0.00    -0.223 OA
ATOM      8  C   UNL     1       4.769   6.308  -9.790  0.00  0.00    +0.036 C 
ATOM      9  C   UNL     1       6.133   5.816  -9.380  0.00  0.00    -0.038 C 
ATOM     10  C   UNL     1       6.892   5.623 -10.465  0.00  0.00    +0.034 C 
ATOM     11  C   UNL     1       6.551   6.223 -11.765  0.00  0.00    +0.195 C 
ATOM     12  C   UNL     1       5.498   7.252 -11.749  0.00  0.00    +0.038 C 
ATOM     13  O   UNL     1       7.174   5.913 -12.825  0.00  0.00    -0.287 OA
ATOM     14  C   UNL     1       6.031   4.885  -8.268  0.00  0.00    +0.022 C 
ATOM     15  C   UNL     1       4.235   5.132 -10.482  0.00  0.00    +0.009 C 
ATOM     16  C   UNL     1       4.834   7.492 -10.609  0.00  0.00    -0.020 C 
ATOM     17  C   UNL     1       4.804   4.393  -7.749  0.00  0.00    +0.004 C 
ATOM     18  C   UNL     1       2.139   3.916  -6.617  0.00  0.00    +0.004 C 
ATOM     19  C   UNL     1       0.889   5.098  -8.239  0.00  0.00    +0.004 C 
ATOM     20  C   UNL     1       1.925   7.330  -7.609  0.00  0.00    +0.037 C 
ATOM     21  C   UNL     1       0.810   4.287  -6.037  0.00  0.00    +0.048 C 
ENDROOT
BRANCH   1  22
ATOM     22  C   UNL     1       1.346   6.207  -4.792  0.00  0.00    +0.230 C 
ATOM     23  O   UNL     1       1.787   7.358  -4.657  0.00  0.00    -0.288 OA
BRANCH  22  24
ATOM     24  C   UNL     1       1.540   5.470  -3.556  0.00  0.00    +0.276 C 
BRANCH  24  25
ATOM     25  O   UNL     1       2.429   5.848  -2.617  0.00  0.00    -0.440 OA
BRANCH  25  26
ATOM     26  C   UNL     1       3.727   5.416  -2.499  0.00  0.00    +0.317 C 
ATOM     27  O   UNL     1       3.948   4.942  -1.371  0.00  0.00    -0.250 OA
BRANCH  26  28
ATOM     28  C   UNL     1       4.662   5.208  -3.626  0.00  0.00    +0.110 C 
ATOM     29  C   UNL     1       5.263   6.482  -4.142  0.00  0.00    +0.012 C 
ENDBRANCH  26  28
ENDBRANCH  25  26
ENDBRANCH  24  25
ENDBRANCH  22  24
ENDBRANCH   1  22
BRANCH   1  30
ATOM     30  O   UNL     1      -0.518   5.985  -6.397  0.00  0.00    -0.418 OA
BRANCH  30  31
ATOM     31  C   UNL     1      -1.745   6.096  -5.893  0.00  0.00    +0.512 C 
ATOM     32  O   UNL     1      -2.448   5.270  -6.502  0.00  0.00    -0.203 OA
BRANCH  31  33
ATOM     33  O   UNL     1      -2.338   7.272  -5.479  0.00  0.00    -0.418 OA
BRANCH  33  35
ATOM     34  C   UNL     1      -1.936   7.510  -3.385  0.00  0.00    +0.051 C 
ATOM     35  C   UNL     1      -1.859   8.059  -4.415  0.00  0.00    +0.212 C 
ENDBRANCH  33  35
ENDBRANCH  31  33
ENDBRANCH  30  31
ENDBRANCH   1  30
TORSDOF 9
ENDMDL
MODEL 3
REMARK VINA RESULT:      -8.5      1.394      4.242
REMARK  Name = 
REMARK  9 active torsions:
REMARK  status: ('A' for Active; 'I' for Inactive)
REMARK    1  A    between atoms: C_2  and  O_3
REMARK    2  A    between atoms: O_3  and  C_4
REMARK    3  A    between atoms: C_4  and  O_6
REMARK    4  A    between atoms: O_6  and  C_7
REMARK    5  A    between atoms: C_7  and  C_8
REMARK    6  A    between atoms: C_8  and  C_10
REMARK    7  A    between atoms: C_10  and  O_11
REMARK    8  A    between atoms: O_11  and  C_12
REMARK    9  A    between atoms: C_12  and  C_14
REMARK                            x       y       z     vdW  Elec       q    Type
REMARK                         _______ _______ _______ _____ _____    ______ ____
ROOT
ATOM      1  C   UNL     1       2.853   5.588  -7.693  0.00  0.00    +0.193 C 
ATOM      2  C   UNL     1       3.354   5.872  -6.301  0.00  0.00    +0.043 C 
ATOM      3  C   UNL     1       1.918   5.702  -5.589  0.00  0.00    +0.004 C 
ATOM      4  C   UNL     1       2.679   5.441  -4.115  0.00  0.00    +0.003 C 
ATOM      5  C   UNL     1       2.735   7.075  -3.772  0.00  0.00    +0.038 C 
ATOM      6  C   UNL     1       4.230   7.464  -4.503  0.00  0.00    +0.153 C 
ATOM      7  O   UNL     1       4.906   6.128  -4.292  0.00  0.00    -0.223 OA
ATOM      8  C   UNL     1       3.389   6.825  -2.343  0.00  0.00    +0.036 C 
ATOM      9  C   UNL     1       2.126   6.825  -1.520  0.00  0.00    -0.038 C 
ATOM     10  C   UNL     1       2.431   6.747  -0.220  0.00  0.00    +0.034 C 
ATOM     11  C   UNL     1       3.780   7.059   0.278  0.00  0.00    +0.195 C 
ATOM     12  C   UNL     1       4.691   7.712  -0.676  0.00  0.00    +0.038 C 
ATOM     13  O   UNL     1       4.113   6.832   1.481  0.00  0.00    -0.287 OA
ATOM     14  C   UNL     1       1.087   6.044  -2.173  0.00  0.00    +0.022 C 
ATOM     15  C   UNL     1       3.889   5.470  -2.101  0.00  0.00    +0.009 C 
ATOM     16  C   UNL     1       4.302   7.868  -1.950  0.00  0.00    -0.020 C 
ATOM     17  C   UNL     1       1.291   5.265  -3.343  0.00  0.00    +0.004 C 
ATOM     18  C   UNL     1       1.898   4.132  -5.981  0.00  0.00    +0.004 C 
ATOM     19  C   UNL     1       4.198   4.677  -6.039  0.00  0.00    +0.004 C 
ATOM     20  C   UNL     1       3.745   7.176  -6.036  0.00  0.00    +0.037 C 
ATOM     21  C   UNL     1       2.363   4.143  -7.403  0.00  0.00    +0.048 C 
ENDROOT
BRANCH   1  22
ATOM     22  C   UNL     1       1.658   6.267  -8.123  0.00  0.00    +0.230 C 
ATOM     23  O   UNL     1       1.724   7.474  -8.399  0.00  0.00    -0.288 OA
BRANCH  22  24
ATOM     24  C   UNL     1       0.301   5.799  -8.338  0.00  0.00    +0.276 C 
BRANCH  24  25
ATOM     25  O   UNL     1      -0.290   5.815  -9.549  0.00  0.00    -0.440 OA
BRANCH  25  26
ATOM     26  C   UNL     1       0.261   5.394 -10.734  0.00  0.00    +0.317 C 
ATOM     27  O   UNL     1       0.377   4.156 -10.766  0.00  0.00    -0.250 OA
BRANCH  26  28
ATOM     28  C   UNL     1       0.390   6.218 -11.954  0.00  0.00    +0.110 C 
ATOM     29  C   UNL     1      -0.337   7.528 -11.867  0.00  0.00    +0.012 C 
ENDBRANCH  26  28
ENDBRANCH  25  26
ENDBRANCH  24  25
ENDBRANCH  22  24
ENDBRANCH   1  22
BRANCH   1  30
ATOM     30  O   UNL     1       3.911   5.301  -8.424  0.00  0.00    -0.418 OA
BRANCH  30  31
ATOM     31  C   UNL     1       4.584   5.694  -9.503  0.00  0.00    +0.512 C 
ATOM     32  O   UNL     1       3.965   5.244 -10.483  0.00  0.00    -0.203 OA
BRANCH  31  33
ATOM     33  O   UNL     1       5.957   5.799  -9.597  0.00  0.00    -0.418 OA
BRANCH  33  35
ATOM     34  C   UNL     1       7.450   6.978 -10.589  0.00  0.00    +0.051 C 
ATOM     35  C   UNL     1       6.637   6.159 -10.776  0.00  0.00    +0.212 C 
ENDBRANCH  33  35
ENDBRANCH  31  33
ENDBRANCH  30  31
ENDBRANCH   1  30
TORSDOF 9
ENDMDL
MODEL 4
REMARK VINA RESULT:      -8.3      2.194      5.065
REMARK  Name = 
REMARK  9 active torsions:
REMARK  status: ('A' for Active; 'I' for Inactive)
REMARK    1  A    between atoms: C_2  and  O_3
REMARK    2  A    between atoms: O_3  and  C_4
REMARK    3  A    between atoms: C_4  and  O_6
REMARK    4  A    between atoms: O_6  and  C_7
REMARK    5  A    between atoms: C_7  and  C_8
REMARK    6  A    between atoms: C_8  and  C_10
REMARK    7  A    between atoms: C_10  and  O_11
REMARK    8  A    between atoms: O_11  and  C_12
REMARK    9  A    between atoms: C_12  and  C_14
REMARK                            x       y       z     vdW  Elec       q    Type
REMARK                         _______ _______ _______ _____ _____    ______ ____
ROOT
ATOM      1  C   UNL     1       1.478   5.958 -10.997  0.00  0.00    +0.193 C 
ATOM      2  C   UNL     1       1.654   5.846  -9.506  0.00  0.00    +0.043 C 
ATOM      3  C   UNL     1       0.077   5.843  -9.171  0.00  0.00    +0.004 C 
ATOM      4  C   UNL     1       0.395   5.138  -7.680  0.00  0.00    +0.003 C 
ATOM      5  C   UNL     1       0.620   6.622  -6.945  0.00  0.00    +0.038 C 
ATOM      6  C   UNL     1       2.292   6.825  -7.232  0.00  0.00    +0.153 C 
ATOM      7  O   UNL     1       2.675   5.362  -7.217  0.00  0.00    -0.223 OA
ATOM      8  C   UNL     1       0.848   5.959  -5.517  0.00  0.00    +0.036 C 
ATOM      9  C   UNL     1      -0.564   6.060  -4.999  0.00  0.00    -0.038 C 
ATOM     10  C   UNL     1      -0.610   5.661  -3.723  0.00  0.00    +0.034 C 
ATOM     11  C   UNL     1       0.604   5.576  -2.895  0.00  0.00    +0.195 C 
ATOM     12  C   UNL     1       1.816   6.200  -3.451  0.00  0.00    +0.038 C 
ATOM     13  O   UNL     1       0.586   5.048  -1.741  0.00  0.00    -0.287 OA
ATOM     14  C   UNL     1      -1.516   5.661  -6.024  0.00  0.00    +0.022 C 
ATOM     15  C   UNL     1       1.052   4.508  -5.513  0.00  0.00    +0.009 C 
ATOM     16  C   UNL     1       1.787   6.686  -4.700  0.00  0.00    -0.020 C 
ATOM     17  C   UNL     1      -1.153   5.107  -7.279  0.00  0.00    +0.004 C 
ATOM     18  C   UNL     1      -0.092   4.423  -9.929  0.00  0.00    +0.004 C 
ATOM     19  C   UNL     1       2.206   4.472  -9.373  0.00  0.00    +0.004 C 
ATOM     20  C   UNL     1       2.166   6.959  -8.856  0.00  0.00    +0.037 C 
ATOM     21  C   UNL     1       0.709   4.621 -11.177  0.00  0.00    +0.048 C 
ENDROOT
BRANCH   1  22
ATOM     22  C   UNL     1       0.551   6.945 -11.487  0.00  0.00    +0.230 C 
ATOM     23  O   UNL     1       0.012   7.712 -10.675  0.00  0.00    -0.288 OA
BRANCH  22  24
ATOM     24  C   UNL     1       0.100   7.270 -12.828  0.00  0.00    +0.276 C 
BRANCH  24  25
ATOM     25  O   UNL     1       0.951   7.558 -13.831  0.00  0.00    -0.440 OA
BRANCH  25  26
ATOM     26  C   UNL     1       1.050   6.903 -15.034  0.00  0.00    +0.317 C 
ATOM     27  O   UNL     1       1.315   5.698 -14.875  0.00  0.00    -0.250 OA
BRANCH  26  28
ATOM     28  C   UNL     1       0.578   7.429 -16.332  0.00  0.00    +0.110 C 
ATOM     29  C   UNL     1      -0.879   7.170 -16.584  0.00  0.00    +0.012 C 
ENDBRANCH  26  28
ENDBRANCH  25  26
ENDBRANCH  24  25
ENDBRANCH  22  24
ENDBRANCH   1  22
BRANCH   1  30
ATOM     30  O   UNL     1       2.626   5.606 -11.540  0.00  0.00    -0.418 OA
BRANCH  30  31
ATOM     31  C   UNL     1       3.752   6.110 -12.039  0.00  0.00    +0.512 C 
ATOM     32  O   UNL     1       4.106   5.339 -12.949  0.00  0.00    -0.203 OA
BRANCH  31  33
ATOM     33  O   UNL     1       4.737   6.748 -11.311  0.00  0.00    -0.418 OA
BRANCH  33  35
ATOM     34  C   UNL     1       5.559   5.814  -9.563  0.00  0.00    +0.051 C 
ATOM     35  C   UNL     1       5.800   6.078 -10.677  0.00  0.00    +0.212 C 
ENDBRANCH  33  35
ENDBRANCH  31  33
ENDBRANCH  30  31
ENDBRANCH   1  30
TORSDOF 9
ENDMDL
MODEL 5
REMARK VINA RESULT:      -8.3      2.055      7.476
REMARK  Name = 
REMARK  9 active torsions:
REMARK  status: ('A' for Active; 'I' for Inactive)
REMARK    1  A    between atoms: C_2  and  O_3
REMARK    2  A    between atoms: O_3  and  C_4
REMARK    3  A    between atoms: C_4  and  O_6
REMARK    4  A    between atoms: O_6  and  C_7
REMARK    5  A    between atoms: C_7  and  C_8
REMARK    6  A    between atoms: C_8  and  C_10
REMARK    7  A    between atoms: C_10  and  O_11
REMARK    8  A    between atoms: O_11  and  C_12
REMARK    9  A    between atoms: C_12  and  C_14
REMARK                            x       y       z     vdW  Elec       q    Type
REMARK                         _______ _______ _______ _____ _____    ______ ____
ROOT
ATOM      1  C   UNL     1       2.693   5.758  -4.001  0.00  0.00    +0.193 C 
ATOM      2  C   UNL     1       2.425   5.684  -5.481  0.00  0.00    +0.043 C 
ATOM      3  C   UNL     1       3.963   5.885  -5.921  0.00  0.00    +0.004 C 
ATOM      4  C   UNL     1       3.624   5.204  -7.419  0.00  0.00    +0.003 C 
ATOM      5  C   UNL     1       3.173   6.677  -8.067  0.00  0.00    +0.038 C 
ATOM      6  C   UNL     1       1.513   6.665  -7.659  0.00  0.00    +0.153 C 
ATOM      7  O   UNL     1       1.307   5.168  -7.717  0.00  0.00    -0.223 OA
ATOM      8  C   UNL     1       2.922   6.046  -9.506  0.00  0.00    +0.036 C 
ATOM      9  C   UNL     1       4.272   6.337 -10.111  0.00  0.00    -0.038 C 
ATOM     10  C   UNL     1       4.273   5.997 -11.405  0.00  0.00    +0.034 C 
ATOM     11  C   UNL     1       3.021   5.797 -12.154  0.00  0.00    +0.195 C 
ATOM     12  C   UNL     1       1.787   6.248 -11.489  0.00  0.00    +0.038 C 
ATOM     13  O   UNL     1       3.018   5.320 -13.329  0.00  0.00    -0.287 OA
ATOM     14  C   UNL     1       5.336   6.018  -9.173  0.00  0.00    +0.022 C 
ATOM     15  C   UNL     1       2.892   4.583  -9.564  0.00  0.00    +0.009 C 
ATOM     16  C   UNL     1       1.848   6.686 -10.223  0.00  0.00    -0.020 C 
ATOM     17  C   UNL     1       5.132   5.376  -7.923  0.00  0.00    +0.004 C 
ATOM     18  C   UNL     1       4.353   4.467  -5.244  0.00  0.00    +0.004 C 
ATOM     19  C   UNL     1       2.031   4.259  -5.641  0.00  0.00    +0.004 C 
ATOM     20  C   UNL     1       1.739   6.750  -6.043  0.00  0.00    +0.037 C 
ATOM     21  C   UNL     1       3.626   4.518  -3.937  0.00  0.00    +0.048 C 
ENDROOT
BRANCH   1  22
ATOM     22  C   UNL     1       3.530   6.831  -3.529  0.00  0.00    +0.230 C 
ATOM     23  O   UNL     1       3.203   8.000  -3.783  0.00  0.00    -0.288 OA
BRANCH  22  24
ATOM     24  C   UNL     1       4.751   6.834  -2.743  0.00  0.00    +0.276 C 
BRANCH  24  25
ATOM     25  O   UNL     1       4.751   6.964  -1.402  0.00  0.00    -0.440 OA
BRANCH  25  26
ATOM     26  C   UNL     1       3.725   6.642  -0.549  0.00  0.00    +0.317 C 
ATOM     27  O   UNL     1       3.647   5.412  -0.375  0.00  0.00    -0.250 OA
BRANCH  26  28
ATOM     28  C   UNL     1       3.013   7.596   0.327  0.00  0.00    +0.110 C 
ATOM     29  C   UNL     1       3.243   9.031  -0.047  0.00  0.00    +0.012 C 
ENDBRANCH  26  28
ENDBRANCH  25  26
ENDBRANCH  24  25
ENDBRANCH  22  24
ENDBRANCH   1  22
BRANCH   1  30
ATOM     30  O   UNL     1       1.637   5.250  -3.400  0.00  0.00    -0.418 OA
BRANCH  30  31
ATOM     31  C   UNL     1       0.556   5.592  -2.704  0.00  0.00    +0.512 C 
ATOM     32  O   UNL     1       0.317   4.641  -1.940  0.00  0.00    -0.203 OA
BRANCH  31  33
ATOM     33  O   UNL     1      -0.515   6.317  -3.190  0.00  0.00    -0.418 OA
BRANCH  33  35
ATOM     34  C   UNL     1      -1.726   6.282  -4.961  0.00  0.00    +0.051 C 
ATOM     35  C   UNL     1      -1.572   5.752  -3.929  0.00  0.00    +0.212 C 
ENDBRANCH  33  35
ENDBRANCH  31  33
ENDBRANCH  30  31
ENDBRANCH   1  30
TORSDOF 9
ENDMDL
MODEL 6
REMARK VINA RESULT:      -8.1      1.938      4.971
REMARK  Name = 
REMARK  9 active torsions:
REMARK  status: ('A' for Active; 'I' for Inactive)
REMARK    1  A    between atoms: C_2  and  O_3
REMARK    2  A    between atoms: O_3  and  C_4
REMARK    3  A    between atoms: C_4  and  O_6
REMARK    4  A    between atoms: O_6  and  C_7
REMARK    5  A    between atoms: C_7  and  C_8
REMARK    6  A    between atoms: C_8  and  C_10
REMARK    7  A    between atoms: C_10  and  O_11
REMARK    8  A    between atoms: O_11  and  C_12
REMARK    9  A    between atoms: C_12  and  C_14
REMARK                            x       y       z     vdW  Elec       q    Type
REMARK                         _______ _______ _______ _____ _____    ______ ____
ROOT
ATOM      1  C   UNL     1       3.132   5.628  -7.320  0.00  0.00    +0.193 C 
ATOM      2  C   UNL     1       3.584   5.915  -5.912  0.00  0.00    +0.043 C 
ATOM      3  C   UNL     1       2.112   5.817  -5.261  0.00  0.00    +0.004 C 
ATOM      4  C   UNL     1       2.797   5.550  -3.751  0.00  0.00    +0.003 C 
ATOM      5  C   UNL     1       2.905   7.186  -3.431  0.00  0.00    +0.038 C 
ATOM      6  C   UNL     1       4.446   7.500  -4.100  0.00  0.00    +0.153 C 
ATOM      7  O   UNL     1       5.056   6.141  -3.839  0.00  0.00    -0.223 OA
ATOM      8  C   UNL     1       3.485   6.933  -1.971  0.00  0.00    +0.036 C 
ATOM      9  C   UNL     1       2.188   6.999  -1.205  0.00  0.00    -0.038 C 
ATOM     10  C   UNL     1       2.433   6.931   0.109  0.00  0.00    +0.034 C 
ATOM     11  C   UNL     1       3.771   7.195   0.662  0.00  0.00    +0.195 C 
ATOM     12  C   UNL     1       4.750   7.794  -0.262  0.00  0.00    +0.038 C 
ATOM     13  O   UNL     1       4.042   6.976   1.881  0.00  0.00    -0.287 OA
ATOM     14  C   UNL     1       1.148   6.251  -1.891  0.00  0.00    +0.022 C 
ATOM     15  C   UNL     1       3.918   5.563  -1.686  0.00  0.00    +0.009 C 
ATOM     16  C   UNL     1       4.423   7.944  -1.553  0.00  0.00    -0.020 C 
ATOM     17  C   UNL     1       1.369   5.444  -3.038  0.00  0.00    +0.004 C 
ATOM     18  C   UNL     1       2.043   4.242  -5.630  0.00  0.00    +0.004 C 
ATOM     19  C   UNL     1       4.364   4.691  -5.594  0.00  0.00    +0.004 C 
ATOM     20  C   UNL     1       4.016   7.207  -5.649  0.00  0.00    +0.037 C 
ATOM     21  C   UNL     1       2.569   4.210  -7.030  0.00  0.00    +0.048 C 
ENDROOT
BRANCH   1  22
ATOM     22  C   UNL     1       1.986   6.349  -7.812  0.00  0.00    +0.230 C 
ATOM     23  O   UNL     1       2.118   7.544  -8.114  0.00  0.00    -0.288 OA
BRANCH  22  24
ATOM     24  C   UNL     1       0.619   5.936  -8.070  0.00  0.00    +0.276 C 
BRANCH  24  25
ATOM     25  O   UNL     1      -0.433   6.450  -7.404  0.00  0.00    -0.440 OA
BRANCH  25  26
ATOM     26  C   UNL     1      -1.254   5.782  -6.530  0.00  0.00    +0.317 C 
ATOM     27  O   UNL     1      -1.581   4.667  -6.976  0.00  0.00    -0.250 OA
BRANCH  26  28
ATOM     28  C   UNL     1      -1.465   6.144  -5.112  0.00  0.00    +0.110 C 
ATOM     29  C   UNL     1      -1.273   7.607  -4.838  0.00  0.00    +0.012 C 
ENDBRANCH  26  28
ENDBRANCH  25  26
ENDBRANCH  24  25
ENDBRANCH  22  24
ENDBRANCH   1  22
BRANCH   1  30
ATOM     30  O   UNL     1       4.208   5.285  -7.998  0.00  0.00    -0.418 OA
BRANCH  30  31
ATOM     31  C   UNL     1       4.856   5.524  -9.136  0.00  0.00    +0.512 C 
ATOM     32  O   UNL     1       4.189   4.985 -10.037  0.00  0.00    -0.203 OA
BRANCH  31  33
ATOM     33  O   UNL     1       6.228   5.568  -9.283  0.00  0.00    -0.418 OA
BRANCH  33  35
ATOM     34  C   UNL     1       7.705   5.850 -10.813  0.00  0.00    +0.051 C 
ATOM     35  C   UNL     1       6.892   6.414 -10.191  0.00  0.00    +0.212 C 
ENDBRANCH  33  35
ENDBRANCH  31  33
ENDBRANCH  30  31
ENDBRANCH   1  30
TORSDOF 9
ENDMDL
MODEL 7
REMARK VINA RESULT:      -8.0      2.474      7.450
REMARK  Name = 
REMARK  9 active torsions:
REMARK  status: ('A' for Active; 'I' for Inactive)
REMARK    1  A    between atoms: C_2  and  O_3
REMARK    2  A    between atoms: O_3  and  C_4
REMARK    3  A    between atoms: C_4  and  O_6
REMARK    4  A    between atoms: O_6  and  C_7
REMARK    5  A    between atoms: C_7  and  C_8
REMARK    6  A    between atoms: C_8  and  C_10
REMARK    7  A    between atoms: C_10  and  O_11
REMARK    8  A    between atoms: O_11  and  C_12
REMARK    9  A    between atoms: C_12  and  C_14
REMARK                            x       y       z     vdW  Elec       q    Type
REMARK                         _______ _______ _______ _____ _____    ______ ____
ROOT
ATOM      1  C   UNL     1       1.023   5.855  -5.934  0.00  0.00    +0.193 C 
ATOM      2  C   UNL     1       1.779   6.027  -7.225  0.00  0.00    +0.043 C 
ATOM      3  C   UNL     1       3.149   5.373  -6.682  0.00  0.00    +0.004 C 
ATOM      4  C   UNL     1       3.636   5.080  -8.263  0.00  0.00    +0.003 C 
ATOM      5  C   UNL     1       4.332   6.592  -8.405  0.00  0.00    +0.038 C 
ATOM      6  C   UNL     1       2.977   7.473  -8.960  0.00  0.00    +0.153 C 
ATOM      7  O   UNL     1       2.299   6.344  -9.703  0.00  0.00    -0.223 OA
ATOM      8  C   UNL     1       4.858   6.289  -9.876  0.00  0.00    +0.036 C 
ATOM      9  C   UNL     1       6.247   5.823  -9.520  0.00  0.00    -0.038 C 
ATOM     10  C   UNL     1       6.956   5.614 -10.636  0.00  0.00    +0.034 C 
ATOM     11  C   UNL     1       6.545   6.181 -11.931  0.00  0.00    +0.195 C 
ATOM     12  C   UNL     1       5.481   7.197 -11.888  0.00  0.00    +0.038 C 
ATOM     13  O   UNL     1       7.122   5.854 -13.013  0.00  0.00    -0.287 OA
ATOM     14  C   UNL     1       6.210   4.917  -8.384  0.00  0.00    +0.022 C 
ATOM     15  C   UNL     1       4.308   5.091 -10.514  0.00  0.00    +0.009 C 
ATOM     16  C   UNL     1       4.868   7.455 -10.723  0.00  0.00    -0.020 C 
ATOM     17  C   UNL     1       5.017   4.422  -7.796  0.00  0.00    +0.004 C 
ATOM     18  C   UNL     1       2.415   3.939  -6.527  0.00  0.00    +0.004 C 
ATOM     19  C   UNL     1       1.073   5.067  -8.114  0.00  0.00    +0.004 C 
ATOM     20  C   UNL     1       2.109   7.325  -7.584  0.00  0.00    +0.037 C 
ATOM     21  C   UNL     1       1.111   4.306  -5.892  0.00  0.00    +0.048 C 
ENDROOT
BRANCH   1  22
ATOM     22  C   UNL     1       1.680   6.260  -4.718  0.00  0.00    +0.230 C 
ATOM     23  O   UNL     1       2.380   7.284  -4.730  0.00  0.00    -0.288 OA
BRANCH  22  24
ATOM     24  C   UNL     1       1.677   5.696  -3.380  0.00  0.00    +0.276 C 
BRANCH  24  25
ATOM     25  O   UNL     1       0.856   6.137  -2.407  0.00  0.00    -0.440 OA
BRANCH  25  26
ATOM     26  C   UNL     1       0.054   5.367  -1.603  0.00  0.00    +0.317 C 
ATOM     27  O   UNL     1       0.570   4.258  -1.374  0.00  0.00    -0.250 OA
BRANCH  26  28
ATOM     28  C   UNL     1      -1.097   5.864  -0.820  0.00  0.00    +0.110 C 
ATOM     29  C   UNL     1      -0.971   7.308  -0.431  0.00  0.00    +0.012 C 
ENDBRANCH  26  28
ENDBRANCH  25  26
ENDBRANCH  24  25
ENDBRANCH  22  24
ENDBRANCH   1  22
BRANCH   1  30
ATOM     30  O   UNL     1      -0.255   5.979  -6.226  0.00  0.00    -0.418 OA
BRANCH  30  31
ATOM     31  C   UNL     1      -1.473   5.738  -5.747  0.00  0.00    +0.512 C 
ATOM     32  O   UNL     1      -2.233   5.695  -6.730  0.00  0.00    -0.203 OA
BRANCH  31  33
ATOM     33  O   UNL     1      -1.979   6.227  -4.559  0.00  0.00    -0.418 OA
BRANCH  33  35
ATOM     34  C   UNL     1      -2.284   8.349  -4.648  0.00  0.00    +0.051 C 
ATOM     35  C   UNL     1      -1.707   7.516  -4.063  0.00  0.00    +0.212 C 
ENDBRANCH  33  35
ENDBRANCH  31  33
ENDBRANCH  30  31
ENDBRANCH   1  30
TORSDOF 9
ENDMDL
MODEL 8
REMARK VINA RESULT:      -7.8      2.340      8.303
REMARK  Name = 
REMARK  9 active torsions:
REMARK  status: ('A' for Active; 'I' for Inactive)
REMARK    1  A    between atoms: C_2  and  O_3
REMARK    2  A    between atoms: O_3  and  C_4
REMARK    3  A    between atoms: C_4  and  O_6
REMARK    4  A    between atoms: O_6  and  C_7
REMARK    5  A    between atoms: C_7  and  C_8
REMARK    6  A    between atoms: C_8  and  C_10
REMARK    7  A    between atoms: C_10  and  O_11
REMARK    8  A    between atoms: O_11  and  C_12
REMARK    9  A    between atoms: C_12  and  C_14
REMARK                            x       y       z     vdW  Elec       q    Type
REMARK                         _______ _______ _______ _____ _____    ______ ____
ROOT
ATOM      1  C   UNL     1       2.539   6.435  -5.987  0.00  0.00    +0.193 C 
ATOM      2  C   UNL     1       2.655   6.474  -7.488  0.00  0.00    +0.043 C 
ATOM      3  C   UNL     1       1.289   5.663  -7.763  0.00  0.00    +0.004 C 
ATOM      4  C   UNL     1       1.233   6.285  -9.322  0.00  0.00    +0.003 C 
ATOM      5  C   UNL     1       2.174   5.044  -9.928  0.00  0.00    +0.038 C 
ATOM      6  C   UNL     1       3.723   5.724  -9.687  0.00  0.00    +0.153 C 
ATOM      7  O   UNL     1       3.329   7.175  -9.848  0.00  0.00    -0.223 OA
ATOM      8  C   UNL     1       2.061   5.591 -11.418  0.00  0.00    +0.036 C 
ATOM      9  C   UNL     1       0.891   4.755 -11.871  0.00  0.00    -0.038 C 
ATOM     10  C   UNL     1       0.669   4.952 -13.175  0.00  0.00    +0.034 C 
ATOM     11  C   UNL     1       1.690   5.546 -14.053  0.00  0.00    +0.195 C 
ATOM     12  C   UNL     1       3.045   5.661 -13.488  0.00  0.00    +0.038 C 
ATOM     13  O   UNL     1       1.427   5.881 -15.248  0.00  0.00    -0.287 OA
ATOM     14  C   UNL     1      -0.146   4.727 -10.851  0.00  0.00    +0.022 C 
ATOM     15  C   UNL     1       1.518   6.944 -11.560  0.00  0.00    +0.009 C 
ATOM     16  C   UNL     1       3.246   5.348 -12.200  0.00  0.00    -0.020 C 
ATOM     17  C   UNL     1      -0.121   5.507  -9.666  0.00  0.00    +0.004 C 
ATOM     18  C   UNL     1       0.428   6.880  -7.131  0.00  0.00    +0.004 C 
ATOM     19  C   UNL     1       2.454   7.921  -7.765  0.00  0.00    +0.004 C 
ATOM     20  C   UNL     1       3.660   5.704  -8.054  0.00  0.00    +0.037 C 
ATOM     21  C   UNL     1       1.206   7.227  -5.900  0.00  0.00    +0.048 C 
ENDROOT
BRANCH   1  22
ATOM     22  C   UNL     1       2.219   5.171  -5.376  0.00  0.00    +0.230 C 
ATOM     23  O   UNL     1       3.027   4.237  -5.477  0.00  0.00    -0.288 OA
BRANCH  22  24
ATOM     24  C   UNL     1       1.078   4.736  -4.590  0.00  0.00    +0.276 C 
BRANCH  24  25
ATOM     25  O   UNL     1       0.710   5.343  -3.445  0.00  0.00    -0.440 OA
BRANCH  25  26
ATOM     26  C   UNL     1      -0.527   5.293  -2.854  0.00  0.00    +0.317 C 
ATOM     27  O   UNL     1      -0.444   4.992  -1.649  0.00  0.00    -0.250 OA
BRANCH  26  28
ATOM     28  C   UNL     1      -1.771   5.844  -3.432  0.00  0.00    +0.110 C 
ATOM     29  C   UNL     1      -1.738   7.335  -3.602  0.00  0.00    +0.012 C 
ENDBRANCH  26  28
ENDBRANCH  25  26
ENDBRANCH  24  25
ENDBRANCH  22  24
ENDBRANCH   1  22
BRANCH   1  30
ATOM     30  O   UNL     1       3.355   7.359  -5.522  0.00  0.00    -0.418 OA
BRANCH  30  31
ATOM     31  C   UNL     1       4.404   7.531  -4.722  0.00  0.00    +0.512 C 
ATOM     32  O   UNL     1       5.277   6.736  -5.113  0.00  0.00    -0.203 OA
BRANCH  31  33
ATOM     33  O   UNL     1       4.345   7.813  -3.371  0.00  0.00    -0.418 OA
BRANCH  33  35
ATOM     34  C   UNL     1       3.317   6.911  -1.718  0.00  0.00    +0.051 C 
ATOM     35  C   UNL     1       3.180   7.675  -2.593  0.00  0.00    +0.212 C 
ENDBRANCH  33  35
ENDBRANCH  31  33
ENDBRANCH  30  31
ENDBRANCH   1  30
TORSDOF 9
ENDMDL
MODEL 9
REMARK VINA RESULT:      -7.7      2.556      4.650
REMARK  Name = 
REMARK  9 active torsions:
REMARK  status: ('A' for Active; 'I' for Inactive)
REMARK    1  A    between atoms: C_2  and  O_3
REMARK    2  A    between atoms: O_3  and  C_4
REMARK    3  A    between atoms: C_4  and  O_6
REMARK    4  A    between atoms: O_6  and  C_7
REMARK    5  A    between atoms: C_7  and  C_8
REMARK    6  A    between atoms: C_8  and  C_10
REMARK    7  A    between atoms: C_10  and  O_11
REMARK    8  A    between atoms: O_11  and  C_12
REMARK    9  A    between atoms: C_12  and  C_14
REMARK                            x       y       z     vdW  Elec       q    Type
REMARK                         _______ _______ _______ _____ _____    ______ ____
ROOT
ATOM      1  C   UNL     1       2.051   5.660  -7.972  0.00  0.00    +0.193 C 
ATOM      2  C   UNL     1       1.682   5.671  -6.512  0.00  0.00    +0.043 C 
ATOM      3  C   UNL     1       0.162   6.155  -6.747  0.00  0.00    +0.004 C 
ATOM      4  C   UNL     1      -0.262   5.561  -5.234  0.00  0.00    +0.003 C 
ATOM      5  C   UNL     1       0.151   6.991  -4.476  0.00  0.00    +0.038 C 
ATOM      6  C   UNL     1       1.802   6.676  -4.164  0.00  0.00    +0.153 C 
ATOM      7  O   UNL     1       1.690   5.176  -4.008  0.00  0.00    -0.223 OA
ATOM      8  C   UNL     1      -0.319   6.455  -3.054  0.00  0.00    +0.036 C 
ATOM      9  C   UNL     1      -1.720   7.012  -3.062  0.00  0.00    -0.038 C 
ATOM     10  C   UNL     1      -2.304   6.789  -1.879  0.00  0.00    +0.034 C 
ATOM     11  C   UNL     1      -1.519   6.455  -0.679  0.00  0.00    +0.195 C 
ATOM     12  C   UNL     1      -0.062   6.641  -0.782  0.00  0.00    +0.038 C 
ATOM     13  O   UNL     1      -2.077   6.087   0.399  0.00  0.00    -0.287 OA
ATOM     14  C   UNL     1      -2.354   6.790  -4.351  0.00  0.00    +0.022 C 
ATOM     15  C   UNL     1      -0.583   5.017  -2.971  0.00  0.00    +0.009 C 
ATOM     16  C   UNL     1       0.473   6.972  -1.966  0.00  0.00    -0.020 C 
ATOM     17  C   UNL     1      -1.785   6.018  -5.398  0.00  0.00    +0.004 C 
ATOM     18  C   UNL     1      -0.174   4.767  -7.508  0.00  0.00    +0.004 C 
ATOM     19  C   UNL     1       1.709   4.220  -6.187  0.00  0.00    +0.004 C 
ATOM     20  C   UNL     1       2.266   6.656  -5.731  0.00  0.00    +0.037 C 
ATOM     21  C   UNL     1       1.013   4.586  -8.400  0.00  0.00    +0.048 C 
ENDROOT
BRANCH   1  22
ATOM     22  C   UNL     1       1.687   6.809  -8.760  0.00  0.00    +0.230 C 
ATOM     23  O   UNL     1       2.224   7.898  -8.510  0.00  0.00    -0.288 OA
BRANCH  22  24
ATOM     24  C   UNL     1       0.777   6.968  -9.880  0.00  0.00    +0.276 C 
BRANCH  24  25
ATOM     25  O   UNL     1       1.129   6.685 -11.149  0.00  0.00    -0.440 OA
BRANCH  25  26
ATOM     26  C   UNL     1       0.733   5.595 -11.884  0.00  0.00    +0.317 C 
ATOM     27  O   UNL     1      -0.335   5.123 -11.456  0.00  0.00    -0.250 OA
BRANCH  26  28
ATOM     28  C   UNL     1       1.277   5.214 -13.205  0.00  0.00    +0.110 C 
ATOM     29  C   UNL     1       1.159   6.302 -14.232  0.00  0.00    +0.012 C 
ENDBRANCH  26  28
ENDBRANCH  25  26
ENDBRANCH  24  25
ENDBRANCH  22  24
ENDBRANCH   1  22
BRANCH   1  30
ATOM     30  O   UNL     1       3.147   4.937  -8.079  0.00  0.00    -0.418 OA
BRANCH  30  31
ATOM     31  C   UNL     1       4.442   5.025  -8.373  0.00  0.00    +0.512 C 
ATOM     32  O   UNL     1       5.032   5.227  -7.297  0.00  0.00    -0.203 OA
BRANCH  31  33
ATOM     33  O   UNL     1       4.967   5.595  -9.516  0.00  0.00    -0.418 OA
BRANCH  33  35
ATOM     34  C   UNL     1       4.462   6.368 -11.453  0.00  0.00    +0.051 C 
ATOM     35  C   UNL     1       4.439   5.394 -10.805  0.00  0.00    +0.212 C 
ENDBRANCH  33  35
ENDBRANCH  31  33
ENDBRANCH  30  31
ENDBRANCH   1  30
TORSDOF 9
ENDMDL
