MODEL 1
REMARK VINA RESULT:      -8.1      0.000      0.000
REMARK  Name = 
REMARK  8 active torsions:
REMARK  status: ('A' for Active; 'I' for Inactive)
REMARK    1  A    between atoms: O_2  and  C_3
REMARK    2  A    between atoms: C_6  and  C_7
REMARK    3  A    between atoms: C_7  and  C_8
REMARK    4  A    between atoms: C_8  and  N_10
REMARK    5  A    between atoms: N_10  and  C_11
REMARK    6  A    between atoms: C_11  and  C_12
REMARK    7  A    between atoms: C_12  and  C_14
REMARK    8  A    between atoms: C_19  and  N_20
REMARK                            x       y       z     vdW  Elec       q    Type
REMARK                         _______ _______ _______ _____ _____    ______ ____
ROOT
ATOM      1  C   UNL     1       3.847   5.928  -7.962  0.00  0.00    +0.126 C 
ENDROOT
BRANCH   1   2
ATOM      2  C   UNL     1       4.306   4.707  -9.026  0.00  0.00    +0.192 C 
ATOM      3  O   UNL     1       2.977   4.791  -9.835  0.00  0.00    -0.217 OA
BRANCH   2   4
ATOM      4  C   UNL     1       5.121   5.791  -9.976  0.00  0.00    +0.011 A 
ATOM      5  C   UNL     1       4.897   5.777 -11.296  0.00  0.00    +0.018 A 
ATOM      6  C   UNL     1       5.901   5.937 -12.252  0.00  0.00    +0.112 A 
ATOM      7  C   UNL     1       7.183   5.524 -11.903  0.00  0.00    +0.211 A 
ATOM      8  O   UNL     1       7.871   4.547 -12.638  0.00  0.00    -0.285 OA
ATOM      9  C   UNL     1       7.484   5.726 -10.559  0.00  0.00    +0.043 A 
ATOM     10  C   UNL     1       6.467   5.869  -9.617  0.00  0.00    +0.002 A 
BRANCH   6  11
ATOM     11  N   UNL     1       5.451   5.703 -13.592  0.00  0.00    -0.168 NA
ATOM     12  C   UNL     1       6.012   6.490 -14.635  0.00  0.00    +0.325 C 
ATOM     13  O   UNL     1       6.266   7.698 -14.432  0.00  0.00    -0.263 OA
ENDBRANCH   6  11
ENDBRANCH   2   4
ENDBRANCH   1   2
BRANCH   1  14
ATOM     14  N   UNL     1       2.990   5.409  -7.017  0.00  0.00    -0.216 NA
BRANCH  14  15
ATOM     15  C   UNL     1       1.973   6.533  -6.519  0.00  0.00    +0.077 C 
ATOM     16  C   UNL     1       2.335   7.559  -7.787  0.00  0.00    +0.019 C 
BRANCH  15  17
ATOM     17  C   UNL     1       0.731   5.823  -7.379  0.00  0.00    +0.044 C 
BRANCH  17  21
ATOM     18  C   UNL     1      -2.384   5.577  -4.434  0.00  0.00    +0.139 A 
ATOM     19  C   UNL     1      -1.066   5.809  -4.091  0.00  0.00    +0.037 A 
ATOM     20  C   UNL     1      -0.067   5.615  -5.029  0.00  0.00    -0.001 A 
ATOM     21  C   UNL     1      -0.356   5.655  -6.388  0.00  0.00    -0.021 A 
ATOM     22  C   UNL     1      -1.678   5.469  -6.726  0.00  0.00    -0.001 A 
ATOM     23  C   UNL     1      -2.688   5.487  -5.775  0.00  0.00    +0.037 A 
BRANCH  18  25
ATOM     24  C   UNL     1      -3.141   6.316  -2.318  0.00  0.00    +0.252 C 
ATOM     25  O   UNL     1      -3.400   5.600  -3.476  0.00  0.00    -0.471 OA
ENDBRANCH  18  25
ENDBRANCH  17  21
ENDBRANCH  15  17
ENDBRANCH  14  15
ENDBRANCH   1  14
TORSDOF 8
ENDMDL
MODEL 2
REMARK VINA RESULT:      -8.1      2.102     10.087
REMARK  Name = 
REMARK  8 active torsions:
REMARK  status: ('A' for Active; 'I' for Inactive)
REMARK    1  A    between atoms: O_2  and  C_3
REMARK    2  A    between atoms: C_6  and  C_7
REMARK    3  A    between atoms: C_7  and  C_8
REMARK    4  A    between atoms: C_8  and  N_10
REMARK    5  A    between atoms: N_10  and  C_11
REMARK    6  A    between atoms: C_11  and  C_12
REMARK    7  A    between atoms: C_12  and  C_14
REMARK    8  A    between atoms: C_19  and  N_20
REMARK                            x       y       z     vdW  Elec       q    Type
REMARK                         _______ _______ _______ _____ _____    ______ ____
ROOT
ATOM      1  C   UNL     1       1.194   5.411  -7.293  0.00  0.00    +0.126 C 
ENDROOT
BRANCH   1   2
ATOM      2  C   UNL     1       1.041   4.322  -6.018  0.00  0.00    +0.192 C 
ATOM      3  O   UNL     1       2.479   4.606  -5.487  0.00  0.00    -0.217 OA
BRANCH   2   4
ATOM      4  C   UNL     1       0.311   5.472  -5.076  0.00  0.00    +0.011 A 
ATOM      5  C   UNL     1       0.348   5.324  -3.746  0.00  0.00    +0.018 A 
ATOM      6  C   UNL     1      -0.731   5.603  -2.907  0.00  0.00    +0.112 A 
ATOM      7  C   UNL     1      -2.007   5.464  -3.444  0.00  0.00    +0.211 A 
ATOM      8  O   UNL     1      -2.951   4.585  -2.892  0.00  0.00    -0.285 OA
ATOM      9  C   UNL     1      -2.083   5.812  -4.791  0.00  0.00    +0.043 A 
ATOM     10  C   UNL     1      -0.939   5.827  -5.585  0.00  0.00    +0.002 A 
BRANCH   6  11
ATOM     11  N   UNL     1      -0.515   5.196  -1.550  0.00  0.00    -0.168 NA
ATOM     12  C   UNL     1      -1.000   6.037  -0.512  0.00  0.00    +0.325 C 
ATOM     13  O   UNL     1      -0.938   7.281  -0.642  0.00  0.00    -0.263 OA
ENDBRANCH   6  11
ENDBRANCH   2   4
ENDBRANCH   1   2
BRANCH   1  14
ATOM     14  N   UNL     1       2.058   4.893  -8.232  0.00  0.00    -0.216 NA
BRANCH  14  15
ATOM     15  C   UNL     1       2.719   6.070  -9.081  0.00  0.00    +0.077 C 
ATOM     16  C   UNL     1       2.295   7.241  -7.969  0.00  0.00    +0.019 C 
BRANCH  15  17
ATOM     17  C   UNL     1       4.189   5.816  -8.333  0.00  0.00    +0.044 C 
BRANCH  17  21
ATOM     18  C   UNL     1       7.090   5.437 -11.475  0.00  0.00    +0.139 A 
ATOM     19  C   UNL     1       7.448   5.429 -10.141  0.00  0.00    +0.037 A 
ATOM     20  C   UNL     1       6.531   5.819  -9.181  0.00  0.00    -0.001 A 
ATOM     21  C   UNL     1       5.167   5.765  -9.443  0.00  0.00    -0.021 A 
ATOM     22  C   UNL     1       4.813   5.727 -10.774  0.00  0.00    -0.001 A 
ATOM     23  C   UNL     1       5.747   5.507 -11.775  0.00  0.00    +0.037 A 
BRANCH  18  25
ATOM     24  C   UNL     1       9.263   5.826 -12.325  0.00  0.00    +0.252 C 
ATOM     25  O   UNL     1       8.031   5.212 -12.482  0.00  0.00    -0.471 OA
ENDBRANCH  18  25
ENDBRANCH  17  21
ENDBRANCH  15  17
ENDBRANCH  14  15
ENDBRANCH   1  14
TORSDOF 8
ENDMDL
MODEL 3
REMARK VINA RESULT:      -8.0      4.516      8.756
REMARK  Name = 
REMARK  8 active torsions:
REMARK  status: ('A' for Active; 'I' for Inactive)
REMARK    1  A    between atoms: O_2  and  C_3
REMARK    2  A    between atoms: C_6  and  C_7
REMARK    3  A    between atoms: C_7  and  C_8
REMARK    4  A    between atoms: C_8  and  N_10
REMARK    5  A    between atoms: N_10  and  C_11
REMARK    6  A    between atoms: C_11  and  C_12
REMARK    7  A    between atoms: C_12  and  C_14
REMARK    8  A    between atoms: C_19  and  N_20
REMARK                            x       y       z     vdW  Elec       q    Type
REMARK                         _______ _______ _______ _____ _____    ______ ____
ROOT
ATOM      1  C   UNL     1       1.041   5.075  -6.393  0.00  0.00    +0.126 C 
ENDROOT
BRANCH   1   2
ATOM      2  C   UNL     1      -0.279   5.990  -6.902  0.00  0.00    +0.192 C 
ATOM      3  O   UNL     1      -1.282   4.815  -6.700  0.00  0.00    -0.217 OA
BRANCH   2   4
ATOM      4  C   UNL     1      -0.480   6.612  -5.380  0.00  0.00    +0.011 A 
ATOM      5  C   UNL     1       0.062   5.957  -4.346  0.00  0.00    +0.018 A 
ATOM      6  C   UNL     1      -0.575   5.794  -3.115  0.00  0.00    +0.112 A 
ATOM      7  C   UNL     1      -1.966   5.774  -3.116  0.00  0.00    +0.211 A 
ATOM      8  O   UNL     1      -2.691   4.675  -2.631  0.00  0.00    -0.285 OA
ATOM      9  C   UNL     1      -2.532   6.616  -4.070  0.00  0.00    +0.043 A 
ATOM     10  C   UNL     1      -1.794   7.036  -5.174  0.00  0.00    +0.002 A 
BRANCH   6  11
ATOM     11  N   UNL     1       0.119   4.906  -2.231  0.00  0.00    -0.168 NA
ATOM     12  C   UNL     1       0.424   5.366  -0.921  0.00  0.00    +0.325 C 
ATOM     13  O   UNL     1       0.763   6.558  -0.745  0.00  0.00    -0.263 OA
ENDBRANCH   6  11
ENDBRANCH   2   4
ENDBRANCH   1   2
BRANCH   1  14
ATOM     14  N   UNL     1       2.165   5.480  -7.078  0.00  0.00    -0.216 NA
BRANCH  14  15
ATOM     15  C   UNL     1       3.476   5.136  -6.237  0.00  0.00    +0.077 C 
ATOM     16  C   UNL     1       4.505   5.595  -7.469  0.00  0.00    +0.019 C 
BRANCH  15  17
ATOM     17  C   UNL     1       3.487   6.672  -5.583  0.00  0.00    +0.044 C 
BRANCH  17  21
ATOM     18  C   UNL     1       4.127   6.166  -1.367  0.00  0.00    +0.139 A 
ATOM     19  C   UNL     1       3.989   7.414  -1.945  0.00  0.00    +0.037 A 
ATOM     20  C   UNL     1       4.054   7.545  -3.320  0.00  0.00    -0.001 A 
ATOM     21  C   UNL     1       3.785   6.461  -4.148  0.00  0.00    -0.021 A 
ATOM     22  C   UNL     1       3.877   5.219  -3.560  0.00  0.00    -0.001 A 
ATOM     23  C   UNL     1       3.987   5.065  -2.185  0.00  0.00    +0.037 A 
BRANCH  18  25
ATOM     24  C   UNL     1       4.699   7.108   0.726  0.00  0.00    +0.252 C 
ATOM     25  O   UNL     1       4.233   6.012   0.017  0.00  0.00    -0.471 OA
ENDBRANCH  18  25
ENDBRANCH  17  21
ENDBRANCH  15  17
ENDBRANCH  14  15
ENDBRANCH   1  14
TORSDOF 8
ENDMDL
MODEL 4
REMARK VINA RESULT:      -7.8      3.406      7.922
REMARK  Name = 
REMARK  8 active torsions:
REMARK  status: ('A' for Active; 'I' for Inactive)
REMARK    1  A    between atoms: O_2  and  C_3
REMARK    2  A    between atoms: C_6  and  C_7
REMARK    3  A    between atoms: C_7  and  C_8
REMARK    4  A    between atoms: C_8  and  N_10
REMARK    5  A    between atoms: N_10  and  C_11
REMARK    6  A    between atoms: C_11  and  C_12
REMARK    7  A    between atoms: C_12  and  C_14
REMARK    8  A    between atoms: C_19  and  N_20
REMARK                            x       y       z     vdW  Elec       q    Type
REMARK                         _______ _______ _______ _____ _____    ______ ____
ROOT
ATOM      1  C   UNL     1       1.892   4.699  -8.367  0.00  0.00    +0.126 C 
ENDROOT
BRANCH   1   2
ATOM      2  C   UNL     1       0.707   5.876  -8.151  0.00  0.00    +0.192 C 
ATOM      3  O   UNL     1      -0.243   5.240  -9.210  0.00  0.00    -0.217 OA
BRANCH   2   4
ATOM      4  C   UNL     1       0.066   5.047  -6.868  0.00  0.00    +0.011 A 
ATOM      5  C   UNL     1      -0.998   5.564  -6.242  0.00  0.00    +0.018 A 
ATOM      6  C   UNL     1      -1.164   5.544  -4.857  0.00  0.00    +0.112 A 
ATOM      7  C   UNL     1      -0.012   5.537  -4.077  0.00  0.00    +0.211 A 
ATOM      8  O   UNL     1       0.253   6.545  -3.138  0.00  0.00    -0.285 OA
ATOM      9  C   UNL     1       1.039   4.823  -4.648  0.00  0.00    +0.043 A 
ATOM     10  C   UNL     1       1.066   4.573  -6.018  0.00  0.00    +0.002 A 
BRANCH   6  11
ATOM     11  N   UNL     1      -2.285   6.316  -4.408  0.00  0.00    -0.168 NA
ATOM     12  C   UNL     1      -2.924   5.931  -3.199  0.00  0.00    +0.325 C 
ATOM     13  O   UNL     1      -3.055   4.717  -2.925  0.00  0.00    -0.263 OA
ENDBRANCH   6  11
ENDBRANCH   2   4
ENDBRANCH   1   2
BRANCH   1  14
ATOM     14  N   UNL     1       3.033   5.289  -8.861  0.00  0.00    -0.216 NA
BRANCH  14  15
ATOM     15  C   UNL     1       4.258   5.031  -7.872  0.00  0.00    +0.077 C 
ATOM     16  C   UNL     1       5.386   5.603  -8.964  0.00  0.00    +0.019 C 
BRANCH  15  17
ATOM     17  C   UNL     1       4.064   6.546  -7.198  0.00  0.00    +0.044 C 
BRANCH  17  21
ATOM     18  C   UNL     1       4.284   5.926  -2.955  0.00  0.00    +0.139 A 
ATOM     19  C   UNL     1       3.784   7.092  -3.503  0.00  0.00    +0.037 A 
ATOM     20  C   UNL     1       3.977   7.359  -4.846  0.00  0.00    -0.001 A 
ATOM     21  C   UNL     1       4.227   6.327  -5.743  0.00  0.00    -0.021 A 
ATOM     22  C   UNL     1       4.682   5.150  -5.192  0.00  0.00    -0.001 A 
ATOM     23  C   UNL     1       4.659   4.923  -3.824  0.00  0.00    +0.037 A 
BRANCH  18  25
ATOM     24  C   UNL     1       3.664   4.517  -1.160  0.00  0.00    +0.252 C 
ATOM     25  O   UNL     1       4.256   5.698  -1.578  0.00  0.00    -0.471 OA
ENDBRANCH  18  25
ENDBRANCH  17  21
ENDBRANCH  15  17
ENDBRANCH  14  15
ENDBRANCH   1  14
TORSDOF 8
ENDMDL
MODEL 5
REMARK VINA RESULT:      -7.7      3.051      5.676
REMARK  Name = 
REMARK  8 active torsions:
REMARK  status: ('A' for Active; 'I' for Inactive)
REMARK    1  A    between atoms: O_2  and  C_3
REMARK    2  A    between atoms: C_6  and  C_7
REMARK    3  A    between atoms: C_7  and  C_8
REMARK    4  A    between atoms: C_8  and  N_10
REMARK    5  A    between atoms: N_10  and  C_11
REMARK    6  A    between atoms: C_11  and  C_12
REMARK    7  A    between atoms: C_12  and  C_14
REMARK    8  A    between atoms: C_19  and  N_20
REMARK                            x       y       z     vdW  Elec       q    Type
REMARK                         _______ _______ _______ _____ _____    ______ ____
ROOT
ATOM      1  C   UNL     1       2.691   4.967  -7.807  0.00  0.00    +0.126 C 
ENDROOT
BRANCH   1   2
ATOM      2  C   UNL     1       3.940   6.095  -7.754  0.00  0.00    +0.192 C 
ATOM      3  O   UNL     1       4.909   5.119  -7.021  0.00  0.00    -0.217 OA
BRANCH   2   4
ATOM      4  C   UNL     1       4.435   5.672  -9.277  0.00  0.00    +0.011 A 
ATOM      5  C   UNL     1       5.748   5.567  -9.514  0.00  0.00    +0.018 A 
ATOM      6  C   UNL     1       6.359   6.012 -10.687  0.00  0.00    +0.112 A 
ATOM      7  C   UNL     1       5.760   7.076 -11.353  0.00  0.00    +0.211 A 
ATOM      8  O   UNL     1       6.443   8.277 -11.596  0.00  0.00    -0.285 OA
ATOM      9  C   UNL     1       4.369   7.069 -11.269  0.00  0.00    +0.043 A 
ATOM     10  C   UNL     1       3.723   6.367 -10.255  0.00  0.00    +0.002 A 
BRANCH   6  11
ATOM     11  N   UNL     1       7.790   5.960 -10.636  0.00  0.00    -0.168 NA
ATOM     12  C   UNL     1       8.488   5.535 -11.799  0.00  0.00    +0.325 C 
ATOM     13  O   UNL     1       8.013   4.619 -12.508  0.00  0.00    -0.263 OA
ENDBRANCH   6  11
ENDBRANCH   2   4
ENDBRANCH   1   2
BRANCH   1  14
ATOM     14  N   UNL     1       1.492   5.605  -7.575  0.00  0.00    -0.216 NA
BRANCH  14  15
ATOM     15  C   UNL     1       0.363   5.022  -8.539  0.00  0.00    +0.077 C 
ATOM     16  C   UNL     1      -0.858   5.296  -7.433  0.00  0.00    +0.019 C 
BRANCH  15  17
ATOM     17  C   UNL     1       0.146   6.525  -9.232  0.00  0.00    +0.044 C 
BRANCH  17  21
ATOM     18  C   UNL     1       0.655   5.961 -13.458  0.00  0.00    +0.139 A 
ATOM     19  C   UNL     1       0.405   7.203 -12.908  0.00  0.00    +0.037 A 
ATOM     20  C   UNL     1      -0.015   7.300 -11.593  0.00  0.00    -0.001 A 
ATOM     21  C   UNL     1       0.250   6.279 -10.688  0.00  0.00    -0.021 A 
ATOM     22  C   UNL     1       0.545   5.052 -11.239  0.00  0.00    -0.001 A 
ATOM     23  C   UNL     1       0.803   4.898 -12.593  0.00  0.00    +0.037 A 
BRANCH  18  25
ATOM     24  C   UNL     1       0.564   6.868 -15.641  0.00  0.00    +0.252 C 
ATOM     25  O   UNL     1       0.918   5.808 -14.821  0.00  0.00    -0.471 OA
ENDBRANCH  18  25
ENDBRANCH  17  21
ENDBRANCH  15  17
ENDBRANCH  14  15
ENDBRANCH   1  14
TORSDOF 8
ENDMDL
MODEL 6
REMARK VINA RESULT:      -7.6      3.092      5.678
REMARK  Name = 
REMARK  8 active torsions:
REMARK  status: ('A' for Active; 'I' for Inactive)
REMARK    1  A    between atoms: O_2  and  C_3
REMARK    2  A    between atoms: C_6  and  C_7
REMARK    3  A    between atoms: C_7  and  C_8
REMARK    4  A    between atoms: C_8  and  N_10
REMARK    5  A    between atoms: N_10  and  C_11
REMARK    6  A    between atoms: C_11  and  C_12
REMARK    7  A    between atoms: C_12  and  C_14
REMARK    8  A    between atoms: C_19  and  N_20
REMARK                            x       y       z     vdW  Elec       q    Type
REMARK                         _______ _______ _______ _____ _____    ______ ____
ROOT
ATOM      1  C   UNL     1       3.434   6.543  -9.107  0.00  0.00    +0.126 C 
ENDROOT
BRANCH   1   2
ATOM      2  C   UNL     1       4.804   5.586  -8.899  0.00  0.00    +0.192 C 
ATOM      3  O   UNL     1       4.292   4.486  -9.877  0.00  0.00    -0.217 OA
BRANCH   2   4
ATOM      4  C   UNL     1       5.621   6.440 -10.061  0.00  0.00    +0.011 A 
ATOM      5  C   UNL     1       5.184   6.376 -11.324  0.00  0.00    +0.018 A 
ATOM      6  C   UNL     1       6.030   6.288 -12.430  0.00  0.00    +0.112 A 
ATOM      7  C   UNL     1       7.266   5.678 -12.240  0.00  0.00    +0.211 A 
ATOM      8  O   UNL     1       7.653   4.546 -12.972  0.00  0.00    -0.285 OA
ATOM      9  C   UNL     1       7.813   5.915 -10.981  0.00  0.00    +0.043 A 
ATOM     10  C   UNL     1       7.002   6.302  -9.916  0.00  0.00    +0.002 A 
BRANCH   6  11
ATOM     11  N   UNL     1       5.334   6.047 -13.659  0.00  0.00    -0.168 NA
ATOM     12  C   UNL     1       5.822   6.669 -14.840  0.00  0.00    +0.325 C 
ATOM     13  O   UNL     1       6.280   7.833 -14.784  0.00  0.00    -0.263 OA
ENDBRANCH   6  11
ENDBRANCH   2   4
ENDBRANCH   1   2
BRANCH   1  14
ATOM     14  N   UNL     1       2.403   6.030  -8.351  0.00  0.00    -0.216 NA
BRANCH  14  15
ATOM     15  C   UNL     1       1.318   5.341  -9.296  0.00  0.00    +0.077 C 
ATOM     16  C   UNL     1       0.109   5.449  -8.149  0.00  0.00    +0.019 C 
BRANCH  15  17
ATOM     17  C   UNL     1       0.908   6.824  -9.944  0.00  0.00    +0.044 C 
BRANCH  17  21
ATOM     18  C   UNL     1       0.775   6.307 -14.205  0.00  0.00    +0.139 A 
ATOM     19  C   UNL     1       0.288   7.443 -13.587  0.00  0.00    +0.037 A 
ATOM     20  C   UNL     1       0.105   7.455 -12.216  0.00  0.00    -0.001 A 
ATOM     21  C   UNL     1       0.810   6.577 -11.401  0.00  0.00    -0.021 A 
ATOM     22  C   UNL     1       1.334   5.468 -12.026  0.00  0.00    -0.001 A 
ATOM     23  C   UNL     1       1.373   5.355 -13.408  0.00  0.00    +0.037 A 
BRANCH  18  25
ATOM     24  C   UNL     1       0.338   7.279 -16.317  0.00  0.00    +0.252 C 
ATOM     25  O   UNL     1       0.818   6.197 -15.596  0.00  0.00    -0.471 OA
ENDBRANCH  18  25
ENDBRANCH  17  21
ENDBRANCH  15  17
ENDBRANCH  14  15
ENDBRANCH   1  14
TORSDOF 8
ENDMDL
MODEL 7
REMARK VINA RESULT:      -7.5      1.875      2.347
REMARK  Name = 
REMARK  8 active torsions:
REMARK  status: ('A' for Active; 'I' for Inactive)
REMARK    1  A    between atoms: O_2  and  C_3
REMARK    2  A    between atoms: C_6  and  C_7
REMARK    3  A    between atoms: C_7  and  C_8
REMARK    4  A    between atoms: C_8  and  N_10
REMARK    5  A    between atoms: N_10  and  C_11
REMARK    6  A    between atoms: C_11  and  C_12
REMARK    7  A    between atoms: C_12  and  C_14
REMARK    8  A    between atoms: C_19  and  N_20
REMARK                            x       y       z     vdW  Elec       q    Type
REMARK                         _______ _______ _______ _____ _____    ______ ____
ROOT
ATOM      1  C   UNL     1       3.211   6.303 -11.036  0.00  0.00    +0.126 C 
ENDROOT
BRANCH   1   2
ATOM      2  C   UNL     1       4.360   6.436  -9.811  0.00  0.00    +0.192 C 
ATOM      3  O   UNL     1       4.844   4.965  -9.986  0.00  0.00    -0.217 OA
BRANCH   2   4
ATOM      4  C   UNL     1       5.464   7.077 -10.866  0.00  0.00    +0.011 A 
ATOM      5  C   UNL     1       5.336   6.800 -12.169  0.00  0.00    +0.018 A 
ATOM      6  C   UNL     1       6.414   6.522 -13.010  0.00  0.00    +0.112 A 
ATOM      7  C   UNL     1       7.541   5.949 -12.431  0.00  0.00    +0.211 A 
ATOM      8  O   UNL     1       8.040   4.707 -12.853  0.00  0.00    -0.285 OA
ATOM      9  C   UNL     1       7.786   6.394 -11.134  0.00  0.00    +0.043 A 
ATOM     10  C   UNL     1       6.765   6.959 -10.374  0.00  0.00    +0.002 A 
BRANCH   6  11
ATOM     11  N   UNL     1       6.017   6.079 -14.314  0.00  0.00    -0.168 NA
ATOM     12  C   UNL     1       6.311   6.915 -15.425  0.00  0.00    +0.325 C 
ATOM     13  O   UNL     1       6.220   8.158 -15.308  0.00  0.00    -0.263 OA
ENDBRANCH   6  11
ENDBRANCH   2   4
ENDBRANCH   1   2
BRANCH   1  14
ATOM     14  N   UNL     1       2.105   5.643 -10.551  0.00  0.00    -0.216 NA
BRANCH  14  15
ATOM     15  C   UNL     1       1.190   6.646  -9.712  0.00  0.00    +0.077 C 
ATOM     16  C   UNL     1       0.323   7.131 -11.055  0.00  0.00    +0.019 C 
BRANCH  15  17
ATOM     17  C   UNL     1       0.103   5.421  -9.388  0.00  0.00    +0.044 C 
BRANCH  17  21
ATOM     18  C   UNL     1       0.406   5.151  -5.113  0.00  0.00    +0.139 A 
ATOM     19  C   UNL     1       1.518   5.109  -5.933  0.00  0.00    +0.037 A 
ATOM     20  C   UNL     1       1.361   4.929  -7.295  0.00  0.00    -0.001 A 
ATOM     21  C   UNL     1       0.162   5.254  -7.918  0.00  0.00    -0.021 A 
ATOM     22  C   UNL     1      -0.938   5.341  -7.094  0.00  0.00    -0.001 A 
ATOM     23  C   UNL     1      -0.820   5.350  -5.712  0.00  0.00    +0.037 A 
BRANCH  18  25
ATOM     24  C   UNL     1       0.730   6.402  -3.132  0.00  0.00    +0.252 C 
ATOM     25  O   UNL     1       0.527   5.165  -3.723  0.00  0.00    -0.471 OA
ENDBRANCH  18  25
ENDBRANCH  17  21
ENDBRANCH  15  17
ENDBRANCH  14  15
ENDBRANCH   1  14
TORSDOF 8
ENDMDL
MODEL 8
REMARK VINA RESULT:      -7.5      3.120      4.155
REMARK  Name = 
REMARK  8 active torsions:
REMARK  status: ('A' for Active; 'I' for Inactive)
REMARK    1  A    between atoms: O_2  and  C_3
REMARK    2  A    between atoms: C_6  and  C_7
REMARK    3  A    between atoms: C_7  and  C_8
REMARK    4  A    between atoms: C_8  and  N_10
REMARK    5  A    between atoms: N_10  and  C_11
REMARK    6  A    between atoms: C_11  and  C_12
REMARK    7  A    between atoms: C_12  and  C_14
REMARK    8  A    between atoms: C_19  and  N_20
REMARK                            x       y       z     vdW  Elec       q    Type
REMARK                         _______ _______ _______ _____ _____    ______ ____
ROOT
ATOM      1  C   UNL     1       3.705   5.146  -9.702  0.00  0.00    +0.126 C 
ENDROOT
BRANCH   1   2
ATOM      2  C   UNL     1       3.954   6.265 -10.936  0.00  0.00    +0.192 C 
ATOM      3  O   UNL     1       4.857   5.294 -11.754  0.00  0.00    -0.217 OA
BRANCH   2   4
ATOM      4  C   UNL     1       2.545   5.811 -11.680  0.00  0.00    +0.011 A 
ATOM      5  C   UNL     1       2.126   6.518 -12.736  0.00  0.00    +0.018 A 
ATOM      6  C   UNL     1       0.790   6.850 -12.963  0.00  0.00    +0.112 A 
ATOM      7  C   UNL     1      -0.031   6.981 -11.848  0.00  0.00    +0.211 A 
ATOM      8  O   UNL     1      -0.709   8.177 -11.564  0.00  0.00    -0.285 OA
ATOM      9  C   UNL     1       0.286   6.099 -10.818  0.00  0.00    +0.043 A 
ATOM     10  C   UNL     1       1.550   5.516 -10.748  0.00  0.00    +0.002 A 
BRANCH   6  11
ATOM     11  N   UNL     1       0.609   7.762 -14.053  0.00  0.00    -0.168 NA
ATOM     12  C   UNL     1       0.052   7.261 -15.262  0.00  0.00    +0.325 C 
ATOM     13  O   UNL     1       0.361   6.114 -15.659  0.00  0.00    -0.263 OA
ENDBRANCH   6  11
ENDBRANCH   2   4
ENDBRANCH   1   2
BRANCH   1  14
ATOM     14  N   UNL     1       4.165   5.670  -8.514  0.00  0.00    -0.216 NA
BRANCH  14  15
ATOM     15  C   UNL     1       3.254   5.170  -7.304  0.00  0.00    +0.077 C 
ATOM     16  C   UNL     1       4.323   5.721  -6.145  0.00  0.00    +0.019 C 
BRANCH  15  17
ATOM     17  C   UNL     1       2.423   6.618  -7.301  0.00  0.00    +0.044 C 
BRANCH  17  21
ATOM     18  C   UNL     1      -1.451   5.912  -5.588  0.00  0.00    +0.139 A 
ATOM     19  C   UNL     1      -0.547   6.792  -5.024  0.00  0.00    +0.037 A 
ATOM     20  C   UNL     1       0.770   6.789  -5.446  0.00  0.00    -0.001 A 
ATOM     21  C   UNL     1       1.111   6.291  -6.698  0.00  0.00    -0.021 A 
ATOM     22  C   UNL     1       0.189   5.450  -7.280  0.00  0.00    -0.001 A 
ATOM     23  C   UNL     1      -1.094   5.303  -6.772  0.00  0.00    +0.037 A 
BRANCH  18  25
ATOM     24  C   UNL     1      -2.843   5.398  -3.746  0.00  0.00    +0.252 C 
ATOM     25  O   UNL     1      -2.742   5.769  -5.078  0.00  0.00    -0.471 OA
ENDBRANCH  18  25
ENDBRANCH  17  21
ENDBRANCH  15  17
ENDBRANCH  14  15
ENDBRANCH   1  14
TORSDOF 8
ENDMDL
MODEL 9
REMARK VINA RESULT:      -7.5      1.644      2.022
REMARK  Name = 
REMARK  8 active torsions:
REMARK  status: ('A' for Active; 'I' for Inactive)
REMARK    1  A    between atoms: O_2  and  C_3
REMARK    2  A    between atoms: C_6  and  C_7
REMARK    3  A    between atoms: C_7  and  C_8
REMARK    4  A    between atoms: C_8  and  N_10
REMARK    5  A    between atoms: N_10  and  C_11
REMARK    6  A    between atoms: C_11  and  C_12
REMARK    7  A    between atoms: C_12  and  C_14
REMARK    8  A    between atoms: C_19  and  N_20
REMARK                            x       y       z     vdW  Elec       q    Type
REMARK                         _______ _______ _______ _____ _____    ______ ____
ROOT
ATOM      1  C   UNL     1       3.757   6.041  -7.920  0.00  0.00    +0.126 C 
ENDROOT
BRANCH   1   2
ATOM      2  C   UNL     1       4.958   4.968  -8.412  0.00  0.00    +0.192 C 
ATOM      3  O   UNL     1       3.938   3.991  -9.070  0.00  0.00    -0.217 OA
BRANCH   2   4
ATOM      4  C   UNL     1       5.226   5.845  -9.792  0.00  0.00    +0.011 A 
ATOM      5  C   UNL     1       4.780   5.355 -10.955  0.00  0.00    +0.018 A 
ATOM      6  C   UNL     1       5.499   5.423 -12.149  0.00  0.00    +0.112 A 
ATOM      7  C   UNL     1       6.887   5.451 -12.055  0.00  0.00    +0.211 A 
ATOM      8  O   UNL     1       7.690   4.475 -12.664  0.00  0.00    -0.285 OA
ATOM      9  C   UNL     1       7.354   6.140 -10.938  0.00  0.00    +0.043 A 
ATOM     10  C   UNL     1       6.529   6.342  -9.833  0.00  0.00    +0.002 A 
BRANCH   6  11
ATOM     11  N   UNL     1       4.903   4.674 -13.214  0.00  0.00    -0.168 NA
ATOM     12  C   UNL     1       3.918   5.312 -14.015  0.00  0.00    +0.325 C 
ATOM     13  O   UNL     1       3.101   6.099 -13.484  0.00  0.00    -0.263 OA
ENDBRANCH   6  11
ENDBRANCH   2   4
ENDBRANCH   1   2
BRANCH   1  14
ATOM     14  N   UNL     1       4.032   6.476  -6.642  0.00  0.00    -0.216 NA
BRANCH  14  15
ATOM     15  C   UNL     1       3.367   5.497  -5.573  0.00  0.00    +0.077 C 
ATOM     16  C   UNL     1       4.695   5.543  -4.561  0.00  0.00    +0.019 C 
BRANCH  15  17
ATOM     17  C   UNL     1       2.660   6.792  -4.792  0.00  0.00    +0.044 C 
BRANCH  17  21
ATOM     18  C   UNL     1      -1.049   5.421  -3.120  0.00  0.00    +0.139 A 
ATOM     19  C   UNL     1       0.146   5.324  -2.434  0.00  0.00    +0.037 A 
ATOM     20  C   UNL     1       1.341   5.525  -3.103  0.00  0.00    -0.001 A 
ATOM     21  C   UNL     1       1.376   6.261  -4.281  0.00  0.00    -0.021 A 
ATOM     22  C   UNL     1       0.175   6.397  -4.940  0.00  0.00    -0.001 A 
ATOM     23  C   UNL     1      -1.029   6.039  -4.352  0.00  0.00    +0.037 A 
BRANCH  18  25
ATOM     24  C   UNL     1      -3.398   5.214  -3.302  0.00  0.00    +0.252 C 
ATOM     25  O   UNL     1      -2.261   5.065  -2.525  0.00  0.00    -0.471 OA
ENDBRANCH  18  25
ENDBRANCH  17  21
ENDBRANCH  15  17
ENDBRANCH  14  15
ENDBRANCH   1  14
TORSDOF 8
ENDMDL
