MODEL 1
REMARK VINA RESULT:      -5.8      0.000      0.000
REMARK  Name = 
REMARK  3 active torsions:
REMARK  status: ('A' for Active; 'I' for Inactive)
REMARK    1  A    between atoms: C_2  and  C_4
REMARK    2  A    between atoms: N_12  and  O_13
REMARK    3  A    between atoms: O_13  and  S_14
REMARK                            x       y       z     vdW  Elec       q    Type
REMARK                         _______ _______ _______ _____ _____    ______ ____
ROOT
ATOM      1  C   UNL     1       3.339   5.754  -5.990  0.00  0.00    +0.157 C 
ATOM      2  N   UNL     1       2.089   6.619  -5.571  0.00  0.00    -0.254 N 
ATOM      3  C   UNL     1       1.455   6.552  -4.278  0.00  0.00    +0.332 C 
ATOM      4  N   UNL     1       0.290   5.755  -4.329  0.00  0.00    -0.129 N 
ATOM      5  C   UNL     1       0.076   5.379  -5.849  0.00  0.00    +0.127 C 
ATOM      6  C   UNL     1       1.260   4.278  -5.971  0.00  0.00    +0.026 C 
ATOM      7  O   UNL     1       2.096   6.690  -3.188  0.00  0.00    -0.250 OA
ATOM      8  C   UNL     1       0.966   6.641  -6.409  0.00  0.00    +0.118 C 
ATOM      9  C   UNL     1       2.527   4.385  -5.603  0.00  0.00    +0.031 C 
ENDROOT
BRANCH   1  11
ATOM     10  N   UNL     1       2.930   6.060  -7.903  0.00  0.00    -0.086 NA
ATOM     11  C   UNL     1       2.939   5.657  -7.557  0.00  0.00    +0.279 C 
ATOM     12  O   UNL     1       3.343   4.552  -8.041  0.00  0.00    -0.270 OA
ENDBRANCH   1  11
BRANCH   4  13
ATOM     13  O   UNL     1      -0.844   6.313  -3.798  0.00  0.00    -0.137 OA
BRANCH  13  14
ATOM     14  S   UNL     1      -1.362   5.588  -2.427  0.00  0.00    +0.020 S 
ATOM     15  O   UNL     1      -0.155   4.675  -1.673  0.00  0.00    -0.267 OA
ATOM     16  O   UNL     1      -1.701   6.668  -1.421  0.00  0.00    -0.343 OA
ATOM     17  O   UNL     1      -2.580   4.754  -2.627  0.00  0.00    -0.343 OA
ENDBRANCH  13  14
ENDBRANCH   4  13
TORSDOF 3
ENDMDL
MODEL 2
REMARK VINA RESULT:      -5.8      0.254      1.126
REMARK  Name = 
REMARK  3 active torsions:
REMARK  status: ('A' for Active; 'I' for Inactive)
REMARK    1  A    between atoms: C_2  and  C_4
REMARK    2  A    between atoms: N_12  and  O_13
REMARK    3  A    between atoms: O_13  and  S_14
REMARK                            x       y       z     vdW  Elec       q    Type
REMARK                         _______ _______ _______ _____ _____    ______ ____
ROOT
ATOM      1  C   UNL     1       3.288   5.717  -6.196  0.00  0.00    +0.157 C 
ATOM      2  N   UNL     1       2.072   6.598  -5.714  0.00  0.00    -0.254 N 
ATOM      3  C   UNL     1       1.544   6.585  -4.372  0.00  0.00    +0.332 C 
ATOM      4  N   UNL     1       0.382   5.786  -4.299  0.00  0.00    -0.129 N 
ATOM      5  C   UNL     1       0.048   5.348  -5.779  0.00  0.00    +0.127 C 
ATOM      6  C   UNL     1       1.223   4.243  -5.951  0.00  0.00    +0.026 C 
ATOM      7  O   UNL     1       2.269   6.768  -3.344  0.00  0.00    -0.250 OA
ATOM      8  C   UNL     1       0.886   6.586  -6.460  0.00  0.00    +0.118 C 
ATOM      9  C   UNL     1       2.515   4.366  -5.689  0.00  0.00    +0.031 C 
ENDROOT
BRANCH   1  11
ATOM     10  N   UNL     1       2.731   5.944  -8.082  0.00  0.00    -0.086 NA
ATOM     11  C   UNL     1       2.766   5.556  -7.721  0.00  0.00    +0.279 C 
ATOM     12  O   UNL     1       3.124   4.427  -8.186  0.00  0.00    -0.270 OA
ENDBRANCH   1  11
BRANCH   4  13
ATOM     13  O   UNL     1      -0.709   6.365  -3.701  0.00  0.00    -0.137 OA
BRANCH  13  14
ATOM     14  S   UNL     1      -1.100   5.712  -2.255  0.00  0.00    +0.020 S 
ATOM     15  O   UNL     1      -2.536   4.820  -2.307  0.00  0.00    -0.267 OA
ATOM     16  O   UNL     1      -0.038   4.694  -1.893  0.00  0.00    -0.343 OA
ATOM     17  O   UNL     1      -1.163   6.714  -1.155  0.00  0.00    -0.343 OA
ENDBRANCH  13  14
ENDBRANCH   4  13
TORSDOF 3
ENDMDL
MODEL 3
REMARK VINA RESULT:      -5.8      7.867      8.929
REMARK  Name = 
REMARK  3 active torsions:
REMARK  status: ('A' for Active; 'I' for Inactive)
REMARK    1  A    between atoms: C_2  and  C_4
REMARK    2  A    between atoms: N_12  and  O_13
REMARK    3  A    between atoms: O_13  and  S_14
REMARK                            x       y       z     vdW  Elec       q    Type
REMARK                         _______ _______ _______ _____ _____    ______ ____
ROOT
ATOM      1  C   UNL     1       7.294   5.856 -11.513  0.00  0.00    +0.157 C 
ATOM      2  N   UNL     1       5.887   5.156 -11.376  0.00  0.00    -0.254 N 
ATOM      3  C   UNL     1       4.888   5.135 -12.415  0.00  0.00    +0.332 C 
ATOM      4  N   UNL     1       3.896   6.112 -12.178  0.00  0.00    -0.129 N 
ATOM      5  C   UNL     1       4.216   6.737 -10.763  0.00  0.00    +0.127 C 
ATOM      6  C   UNL     1       5.493   7.634 -11.204  0.00  0.00    +0.026 C 
ATOM      7  O   UNL     1       5.132   4.735 -13.597  0.00  0.00    -0.250 OA
ATOM      8  C   UNL     1       5.091   5.442 -10.258  0.00  0.00    +0.118 C 
ATOM      9  C   UNL     1       6.558   7.267 -11.899  0.00  0.00    +0.031 C 
ENDROOT
BRANCH   1  11
ATOM     10  N   UNL     1       7.498   5.907  -9.544  0.00  0.00    -0.086 NA
ATOM     11  C   UNL     1       7.423   6.246  -9.946  0.00  0.00    +0.279 C 
ATOM     12  O   UNL     1       8.035   7.355  -9.824  0.00  0.00    -0.270 OA
ENDBRANCH   1  11
BRANCH   4  13
ATOM     13  O   UNL     1       2.597   5.677 -12.239  0.00  0.00    -0.137 OA
BRANCH  13  14
ATOM     14  S   UNL     1       1.772   6.223 -13.540  0.00  0.00    +0.020 S 
ATOM     15  O   UNL     1       2.755   6.421 -14.902  0.00  0.00    -0.267 OA
ATOM     16  O   UNL     1       0.774   5.159 -13.948  0.00  0.00    -0.343 OA
ATOM     17  O   UNL     1       1.016   7.478 -13.273  0.00  0.00    -0.343 OA
ENDBRANCH  13  14
ENDBRANCH   4  13
TORSDOF 3
ENDMDL
MODEL 4
REMARK VINA RESULT:      -5.7      2.667      5.684
REMARK  Name = 
REMARK  3 active torsions:
REMARK  status: ('A' for Active; 'I' for Inactive)
REMARK    1  A    between atoms: C_2  and  C_4
REMARK    2  A    between atoms: N_12  and  O_13
REMARK    3  A    between atoms: O_13  and  S_14
REMARK                            x       y       z     vdW  Elec       q    Type
REMARK                         _______ _______ _______ _____ _____    ______ ____
ROOT
ATOM      1  C   UNL     1      -0.123   6.906  -5.188  0.00  0.00    +0.157 C 
ATOM      2  N   UNL     1       1.454   6.858  -5.166  0.00  0.00    -0.254 N 
ATOM      3  C   UNL     1       2.283   6.936  -6.343  0.00  0.00    +0.332 C 
ATOM      4  N   UNL     1       2.722   5.652  -6.735  0.00  0.00    -0.129 N 
ATOM      5  C   UNL     1       2.235   4.654  -5.611  0.00  0.00    +0.127 C 
ATOM      6  C   UNL     1       0.664   4.624  -6.010  0.00  0.00    +0.026 C 
ATOM      7  O   UNL     1       2.181   7.873  -7.197  0.00  0.00    -0.250 OA
ATOM      8  C   UNL     1       2.092   5.824  -4.468  0.00  0.00    +0.118 C 
ATOM      9  C   UNL     1      -0.150   5.645  -6.232  0.00  0.00    +0.031 C 
ENDROOT
BRANCH   1  11
ATOM     10  N   UNL     1      -0.151   6.058  -3.399  0.00  0.00    -0.086 NA
ATOM     11  C   UNL     1      -0.323   5.956  -3.891  0.00  0.00    +0.279 C 
ATOM     12  O   UNL     1      -1.454   5.377  -3.948  0.00  0.00    -0.270 OA
ENDBRANCH   1  11
BRANCH   4  13
ATOM     13  O   UNL     1       4.068   5.519  -6.959  0.00  0.00    -0.137 OA
BRANCH  13  14
ATOM     14  S   UNL     1       4.457   5.225  -8.518  0.00  0.00    +0.020 S 
ATOM     15  O   UNL     1       4.100   6.526  -9.539  0.00  0.00    -0.267 OA
ATOM     16  O   UNL     1       5.962   5.077  -8.610  0.00  0.00    -0.343 OA
ATOM     17  O   UNL     1       3.845   3.977  -9.052  0.00  0.00    -0.343 OA
ENDBRANCH  13  14
ENDBRANCH   4  13
TORSDOF 3
ENDMDL
MODEL 5
REMARK VINA RESULT:      -5.7      1.366      2.373
REMARK  Name = 
REMARK  3 active torsions:
REMARK  status: ('A' for Active; 'I' for Inactive)
REMARK    1  A    between atoms: C_2  and  C_4
REMARK    2  A    between atoms: N_12  and  O_13
REMARK    3  A    between atoms: O_13  and  S_14
REMARK                            x       y       z     vdW  Elec       q    Type
REMARK                         _______ _______ _______ _____ _____    ______ ____
ROOT
ATOM      1  C   UNL     1       1.316   5.873  -7.899  0.00  0.00    +0.157 C 
ATOM      2  N   UNL     1       0.933   4.848  -6.763  0.00  0.00    -0.254 N 
ATOM      3  C   UNL     1      -0.114   5.065  -5.796  0.00  0.00    +0.332 C 
ATOM      4  N   UNL     1       0.423   5.503  -4.565  0.00  0.00    -0.129 N 
ATOM      5  C   UNL     1       1.994   5.428  -4.713  0.00  0.00    +0.127 C 
ATOM      6  C   UNL     1       2.187   6.729  -5.661  0.00  0.00    +0.026 C 
ATOM      7  O   UNL     1      -1.305   5.365  -6.125  0.00  0.00    -0.250 OA
ATOM      8  C   UNL     1       1.945   4.336  -5.940  0.00  0.00    +0.118 C 
ATOM      9  C   UNL     1       1.541   7.041  -6.775  0.00  0.00    +0.031 C 
ENDROOT
BRANCH   1  11
ATOM     10  N   UNL     1       3.089   5.012  -8.092  0.00  0.00    -0.086 NA
ATOM     11  C   UNL     1       2.887   5.478  -7.937  0.00  0.00    +0.279 C 
ATOM     12  O   UNL     1       3.582   6.492  -8.267  0.00  0.00    -0.270 OA
ENDBRANCH   1  11
BRANCH   4  13
ATOM     13  O   UNL     1       0.003   4.822  -3.451  0.00  0.00    -0.137 OA
BRANCH  13  14
ATOM     14  S   UNL     1      -1.243   5.533  -2.667  0.00  0.00    +0.020 S 
ATOM     15  O   UNL     1      -2.717   4.747  -2.933  0.00  0.00    -0.267 OA
ATOM     16  O   UNL     1      -1.006   5.394  -1.178  0.00  0.00    -0.343 OA
ATOM     17  O   UNL     1      -1.379   6.984  -2.973  0.00  0.00    -0.343 OA
ENDBRANCH  13  14
ENDBRANCH   4  13
TORSDOF 3
ENDMDL
MODEL 6
REMARK VINA RESULT:      -5.7      3.339      6.579
REMARK  Name = 
REMARK  3 active torsions:
REMARK  status: ('A' for Active; 'I' for Inactive)
REMARK    1  A    between atoms: C_2  and  C_4
REMARK    2  A    between atoms: N_12  and  O_13
REMARK    3  A    between atoms: O_13  and  S_14
REMARK                            x       y       z     vdW  Elec       q    Type
REMARK                         _______ _______ _______ _____ _____    ______ ____
ROOT
ATOM      1  C   UNL     1       1.955   4.004  -6.274  0.00  0.00    +0.157 C 
ATOM      2  N   UNL     1       1.839   4.691  -7.689  0.00  0.00    -0.254 N 
ATOM      3  C   UNL     1       2.932   4.814  -8.622  0.00  0.00    +0.332 C 
ATOM      4  N   UNL     1       3.498   6.106  -8.566  0.00  0.00    -0.129 N 
ATOM      5  C   UNL     1       2.585   6.950  -7.590  0.00  0.00    +0.127 C 
ATOM      6  C   UNL     1       3.084   6.289  -6.197  0.00  0.00    +0.026 C 
ATOM      7  O   UNL     1       3.627   3.819  -9.003  0.00  0.00    -0.250 OA
ATOM      8  C   UNL     1       1.278   5.972  -7.778  0.00  0.00    +0.118 C 
ATOM      9  C   UNL     1       3.189   5.006  -5.883  0.00  0.00    +0.031 C 
ENDROOT
BRANCH   1  11
ATOM     10  N   UNL     1       0.327   4.959  -5.675  0.00  0.00    -0.086 NA
ATOM     11  C   UNL     1       0.845   4.941  -5.557  0.00  0.00    +0.279 C 
ATOM     12  O   UNL     1       1.112   5.061  -4.319  0.00  0.00    -0.270 OA
ENDBRANCH   1  11
BRANCH   4  13
ATOM     13  O   UNL     1       3.653   6.747  -9.769  0.00  0.00    -0.137 OA
BRANCH  13  14
ATOM     14  S   UNL     1       5.134   6.562 -10.435  0.00  0.00    +0.020 S 
ATOM     15  O   UNL     1       6.255   5.890  -9.362  0.00  0.00    -0.267 OA
ATOM     16  O   UNL     1       5.025   5.544 -11.552  0.00  0.00    -0.343 OA
ATOM     17  O   UNL     1       5.678   7.820 -11.017  0.00  0.00    -0.343 OA
ENDBRANCH  13  14
ENDBRANCH   4  13
TORSDOF 3
ENDMDL
MODEL 7
REMARK VINA RESULT:      -5.7      3.579      5.182
REMARK  Name = 
REMARK  3 active torsions:
REMARK  status: ('A' for Active; 'I' for Inactive)
REMARK    1  A    between atoms: C_2  and  C_4
REMARK    2  A    between atoms: N_12  and  O_13
REMARK    3  A    between atoms: O_13  and  S_14
REMARK                            x       y       z     vdW  Elec       q    Type
REMARK                         _______ _______ _______ _____ _____    ______ ____
ROOT
ATOM      1  C   UNL     1       3.392   5.567  -4.447  0.00  0.00    +0.157 C 
ATOM      2  N   UNL     1       1.958   5.409  -5.084  0.00  0.00    -0.254 N 
ATOM      3  C   UNL     1       1.684   4.668  -6.290  0.00  0.00    +0.332 C 
ATOM      4  N   UNL     1       1.560   5.536  -7.397  0.00  0.00    -0.129 N 
ATOM      5  C   UNL     1       1.626   7.005  -6.818  0.00  0.00    +0.127 C 
ATOM      6  C   UNL     1       3.218   7.050  -6.514  0.00  0.00    +0.026 C 
ATOM      7  O   UNL     1       2.046   3.460  -6.454  0.00  0.00    -0.250 OA
ATOM      8  C   UNL     1       1.181   6.555  -5.303  0.00  0.00    +0.118 C 
ATOM      9  C   UNL     1       3.958   6.166  -5.862  0.00  0.00    +0.031 C 
ENDROOT
BRANCH   1  11
ATOM     10  N   UNL     1       2.793   7.152  -3.425  0.00  0.00    -0.086 NA
ATOM     11  C   UNL     1       3.122   7.038  -3.825  0.00  0.00    +0.279 C 
ATOM     12  O   UNL     1       4.196   7.720  -3.841  0.00  0.00    -0.270 OA
ENDBRANCH   1  11
BRANCH   4  13
ATOM     13  O   UNL     1       0.443   5.365  -8.174  0.00  0.00    -0.137 OA
BRANCH  13  14
ATOM     14  S   UNL     1       0.718   5.521  -9.777  0.00  0.00    +0.020 S 
ATOM     15  O   UNL     1       0.536   7.112 -10.321  0.00  0.00    -0.267 OA
ATOM     16  O   UNL     1       2.175   5.197 -10.040  0.00  0.00    -0.343 OA
ATOM     17  O   UNL     1      -0.109   4.602 -10.608  0.00  0.00    -0.343 OA
ENDBRANCH  13  14
ENDBRANCH   4  13
TORSDOF 3
ENDMDL
MODEL 8
REMARK VINA RESULT:      -5.7      3.434      5.782
REMARK  Name = 
REMARK  3 active torsions:
REMARK  status: ('A' for Active; 'I' for Inactive)
REMARK    1  A    between atoms: C_2  and  C_4
REMARK    2  A    between atoms: N_12  and  O_13
REMARK    3  A    between atoms: O_13  and  S_14
REMARK                            x       y       z     vdW  Elec       q    Type
REMARK                         _______ _______ _______ _____ _____    ______ ____
ROOT
ATOM      1  C   UNL     1       1.471   6.848  -5.190  0.00  0.00    +0.157 C 
ATOM      2  N   UNL     1       2.389   6.576  -6.443  0.00  0.00    -0.254 N 
ATOM      3  C   UNL     1       2.218   7.211  -7.727  0.00  0.00    +0.332 C 
ATOM      4  N   UNL     1       1.547   6.353  -8.625  0.00  0.00    -0.129 N 
ATOM      5  C   UNL     1       1.391   4.966  -7.884  0.00  0.00    +0.127 C 
ATOM      6  C   UNL     1       0.208   5.396  -6.862  0.00  0.00    +0.026 C 
ATOM      7  O   UNL     1       2.154   8.473  -7.868  0.00  0.00    -0.250 OA
ATOM      8  C   UNL     1       2.625   5.252  -6.839  0.00  0.00    +0.118 C 
ATOM      9  C   UNL     1       0.147   6.455  -6.070  0.00  0.00    +0.031 C 
ENDROOT
BRANCH   1  11
ATOM     10  N   UNL     1       2.060   5.142  -4.377  0.00  0.00    -0.086 NA
ATOM     11  C   UNL     1       1.615   5.359  -4.569  0.00  0.00    +0.279 C 
ATOM     12  O   UNL     1       0.556   5.050  -3.934  0.00  0.00    -0.270 OA
ENDBRANCH   1  11
BRANCH   4  13
ATOM     13  O   UNL     1       2.136   6.188  -9.853  0.00  0.00    -0.137 OA
BRANCH  13  14
ATOM     14  S   UNL     1       1.096   6.288 -11.109  0.00  0.00    +0.020 S 
ATOM     15  O   UNL     1       0.162   4.891 -11.298  0.00  0.00    -0.267 OA
ATOM     16  O   UNL     1       0.087   7.375 -10.802  0.00  0.00    -0.343 OA
ATOM     17  O   UNL     1       1.760   6.634 -12.397  0.00  0.00    -0.343 OA
ENDBRANCH  13  14
ENDBRANCH   4  13
TORSDOF 3
ENDMDL
MODEL 9
REMARK VINA RESULT:      -5.6      3.448      5.521
REMARK  Name = 
REMARK  3 active torsions:
REMARK  status: ('A' for Active; 'I' for Inactive)
REMARK    1  A    between atoms: C_2  and  C_4
REMARK    2  A    between atoms: N_12  and  O_13
REMARK    3  A    between atoms: O_13  and  S_14
REMARK                            x       y       z     vdW  Elec       q    Type
REMARK                         _______ _______ _______ _____ _____    ______ ____
ROOT
ATOM      1  C   UNL     1       3.882   6.452  -1.979  0.00  0.00    +0.157 C 
ATOM      2  N   UNL     1       4.580   6.100  -3.349  0.00  0.00    -0.254 N 
ATOM      3  C   UNL     1       4.505   6.923  -4.531  0.00  0.00    +0.332 C 
ATOM      4  N   UNL     1       3.543   6.418  -5.434  0.00  0.00    -0.129 N 
ATOM      5  C   UNL     1       3.043   5.047  -4.830  0.00  0.00    +0.127 C 
ATOM      6  C   UNL     1       2.122   5.654  -3.642  0.00  0.00    +0.026 C 
ATOM      7  O   UNL     1       4.806   8.158  -4.531  0.00  0.00    -0.250 OA
ATOM      8  C   UNL     1       4.383   4.829  -3.906  0.00  0.00    +0.118 C 
ATOM      9  C   UNL     1       2.438   6.572  -2.741  0.00  0.00    +0.031 C 
ENDROOT
BRANCH   1  11
ATOM     10  N   UNL     1       4.002   4.554  -1.428  0.00  0.00    -0.086 NA
ATOM     11  C   UNL     1       3.627   4.914  -1.538  0.00  0.00    +0.279 C 
ATOM     12  O   UNL     1       2.587   4.839  -0.809  0.00  0.00    -0.270 OA
ENDBRANCH   1  11
BRANCH   4  13
ATOM     13  O   UNL     1       3.962   6.259  -6.731  0.00  0.00    -0.137 OA
BRANCH  13  14
ATOM     14  S   UNL     1       2.843   6.675  -7.847  0.00  0.00    +0.020 S 
ATOM     15  O   UNL     1       2.230   8.234  -7.608  0.00  0.00    -0.267 OA
ATOM     16  O   UNL     1       3.525   6.742  -9.198  0.00  0.00    -0.343 OA
ATOM     17  O   UNL     1       1.723   5.699  -7.950  0.00  0.00    -0.343 OA
ENDBRANCH  13  14
ENDBRANCH   4  13
TORSDOF 3
ENDMDL
