MODEL 1
REMARK VINA RESULT:      -7.2      0.000      0.000
REMARK  Name = 
REMARK  3 active torsions:
REMARK  status: ('A' for Active; 'I' for Inactive)
REMARK    1  A    between atoms: O_2  and  C_3
REMARK    2  A    between atoms: C_8  and  C_9
REMARK    3  A    between atoms: C_9  and  C_11
REMARK                            x       y       z     vdW  Elec       q    Type
REMARK                         _______ _______ _______ _____ _____    ______ ____
ROOT
ATOM      1  C   UNL     1       1.960   5.232  -7.718  0.00  0.00    +0.139 A 
ATOM      2  C   UNL     1       0.629   5.532  -7.962  0.00  0.00    +0.037 A 
ATOM      3  C   UNL     1      -0.282   5.355  -6.925  0.00  0.00    +0.003 A 
ATOM      4  C   UNL     1       0.119   5.051  -5.631  0.00  0.00    -0.000 A 
ATOM      5  C   UNL     1      -0.642   5.716  -4.671  0.00  0.00    -0.004 A 
ATOM      6  C   UNL     1      -2.020   5.542  -4.698  0.00  0.00    -0.012 A 
ATOM      7  C   UNL     1      -2.501   5.482  -6.009  0.00  0.00    -0.004 A 
ATOM      8  C   UNL     1       1.454   4.840  -5.399  0.00  0.00    +0.003 A 
ATOM      9  C   UNL     1      -1.651   5.429  -7.110  0.00  0.00    -0.000 A 
ATOM     10  C   UNL     1       2.284   4.682  -6.491  0.00  0.00    +0.037 A 
ENDROOT
BRANCH   1  12
ATOM     11  C   UNL     1       3.755   4.284  -8.998  0.00  0.00    +0.252 C 
ATOM     12  O   UNL     1       2.953   5.372  -8.681  0.00  0.00    -0.471 OA
ENDBRANCH   1  12
BRANCH   6  13
ATOM     13  C   UNL     1      -2.860   6.739  -3.967  0.00  0.00    +0.126 C 
ATOM     14  C   UNL     1      -1.679   7.893  -4.183  0.00  0.00    +0.017 C 
BRANCH  13  15
ATOM     15  C   UNL     1      -2.336   6.310  -2.490  0.00  0.00    +0.368 C 
ATOM     16  O   UNL     1      -2.626   5.073  -2.018  0.00  0.00    -0.245 OA
ATOM     17  O   UNL     1      -2.154   7.302  -1.722  0.00  0.00    -0.245 OA
ENDBRANCH  13  15
ENDBRANCH   6  13
TORSDOF 3
ENDMDL
MODEL 2
REMARK VINA RESULT:      -7.1      3.837      9.301
REMARK  Name = 
REMARK  3 active torsions:
REMARK  status: ('A' for Active; 'I' for Inactive)
REMARK    1  A    between atoms: O_2  and  C_3
REMARK    2  A    between atoms: C_8  and  C_9
REMARK    3  A    between atoms: C_9  and  C_11
REMARK                            x       y       z     vdW  Elec       q    Type
REMARK                         _______ _______ _______ _____ _____    ______ ____
ROOT
ATOM      1  C   UNL     1       2.760   5.333  -7.618  0.00  0.00    +0.139 A 
ATOM      2  C   UNL     1       4.121   5.516  -7.431  0.00  0.00    +0.037 A 
ATOM      3  C   UNL     1       4.955   5.387  -8.537  0.00  0.00    +0.003 A 
ATOM      4  C   UNL     1       4.460   5.247  -9.827  0.00  0.00    -0.000 A 
ATOM      5  C   UNL     1       5.211   5.955 -10.762  0.00  0.00    -0.004 A 
ATOM      6  C   UNL     1       6.572   5.688 -10.842  0.00  0.00    -0.012 A 
ATOM      7  C   UNL     1       7.122   5.460  -9.577  0.00  0.00    -0.004 A 
ATOM      8  C   UNL     1       3.102   5.151  -9.992  0.00  0.00    +0.003 A 
ATOM      9  C   UNL     1       6.334   5.349  -8.434  0.00  0.00    -0.000 A 
ATOM     10  C   UNL     1       2.327   4.936  -8.869  0.00  0.00    +0.037 A 
ENDROOT
BRANCH   1  12
ATOM     11  C   UNL     1       1.270   4.286  -6.053  0.00  0.00    +0.252 C 
ATOM     12  O   UNL     1       1.837   5.438  -6.583  0.00  0.00    -0.471 OA
ENDBRANCH   1  12
BRANCH   6  13
ATOM     13  C   UNL     1       7.455   6.896 -11.502  0.00  0.00    +0.126 C 
ATOM     14  C   UNL     1       6.341   7.254 -12.685  0.00  0.00    +0.017 C 
BRANCH  13  15
ATOM     15  C   UNL     1       8.297   5.870 -12.441  0.00  0.00    +0.368 C 
ATOM     16  O   UNL     1       7.676   4.777 -12.948  0.00  0.00    -0.245 OA
ATOM     17  O   UNL     1       9.543   5.896 -12.208  0.00  0.00    -0.245 OA
ENDBRANCH  13  15
ENDBRANCH   6  13
TORSDOF 3
ENDMDL
MODEL 3
REMARK VINA RESULT:      -6.6      1.243      6.298
REMARK  Name = 
REMARK  3 active torsions:
REMARK  status: ('A' for Active; 'I' for Inactive)
REMARK    1  A    between atoms: O_2  and  C_3
REMARK    2  A    between atoms: C_8  and  C_9
REMARK    3  A    between atoms: C_9  and  C_11
REMARK                            x       y       z     vdW  Elec       q    Type
REMARK                         _______ _______ _______ _____ _____    ______ ____
ROOT
ATOM      1  C   UNL     1      -2.065   5.856  -4.837  0.00  0.00    +0.139 A 
ATOM      2  C   UNL     1      -0.765   5.696  -4.383  0.00  0.00    +0.037 A 
ATOM      3  C   UNL     1       0.204   5.304  -5.301  0.00  0.00    +0.003 A 
ATOM      4  C   UNL     1      -0.052   5.229  -6.663  0.00  0.00    -0.000 A 
ATOM      5  C   UNL     1       1.023   5.675  -7.429  0.00  0.00    -0.004 A 
ATOM      6  C   UNL     1       2.256   5.066  -7.236  0.00  0.00    -0.012 A 
ATOM      7  C   UNL     1       2.474   4.770  -5.888  0.00  0.00    -0.004 A 
ATOM      8  C   UNL     1      -1.331   5.474  -7.096  0.00  0.00    +0.003 A 
ATOM      9  C   UNL     1       1.479   4.921  -4.925  0.00  0.00    -0.000 A 
ATOM     10  C   UNL     1      -2.336   5.521  -6.150  0.00  0.00    +0.037 A 
ENDROOT
BRANCH   1  12
ATOM     11  C   UNL     1      -3.117   5.836  -2.679  0.00  0.00    +0.252 C 
ATOM     12  O   UNL     1      -3.110   6.245  -4.007  0.00  0.00    -0.471 OA
ENDBRANCH   1  12
BRANCH   6  13
ATOM     13  C   UNL     1       3.532   5.974  -7.706  0.00  0.00    +0.126 C 
ATOM     14  C   UNL     1       2.606   7.216  -8.313  0.00  0.00    +0.017 C 
BRANCH  13  15
ATOM     15  C   UNL     1       3.651   5.208  -9.134  0.00  0.00    +0.368 C 
ATOM     16  O   UNL     1       3.139   5.795 -10.244  0.00  0.00    -0.245 OA
ATOM     17  O   UNL     1       3.742   3.949  -9.014  0.00  0.00    -0.245 OA
ENDBRANCH  13  15
ENDBRANCH   6  13
TORSDOF 3
ENDMDL
MODEL 4
REMARK VINA RESULT:      -6.6      3.585      6.296
REMARK  Name = 
REMARK  3 active torsions:
REMARK  status: ('A' for Active; 'I' for Inactive)
REMARK    1  A    between atoms: O_2  and  C_3
REMARK    2  A    between atoms: C_8  and  C_9
REMARK    3  A    between atoms: C_9  and  C_11
REMARK                            x       y       z     vdW  Elec       q    Type
REMARK                         _______ _______ _______ _____ _____    ______ ____
ROOT
ATOM      1  C   UNL     1       7.261   6.351 -10.684  0.00  0.00    +0.139 A 
ATOM      2  C   UNL     1       6.846   5.591  -9.601  0.00  0.00    +0.037 A 
ATOM      3  C   UNL     1       5.569   5.815  -9.098  0.00  0.00    +0.003 A 
ATOM      4  C   UNL     1       4.655   6.643  -9.736  0.00  0.00    -0.000 A 
ATOM      5  C   UNL     1       3.358   6.138  -9.685  0.00  0.00    -0.004 A 
ATOM      6  C   UNL     1       2.817   5.858  -8.436  0.00  0.00    -0.012 A 
ATOM      7  C   UNL     1       3.776   5.324  -7.572  0.00  0.00    -0.004 A 
ATOM      8  C   UNL     1       5.066   7.320 -10.856  0.00  0.00    +0.003 A 
ATOM      9  C   UNL     1       5.127   5.265  -7.908  0.00  0.00    -0.000 A 
ATOM     10  C   UNL     1       6.419   7.351 -11.133  0.00  0.00    +0.037 A 
ENDROOT
BRANCH   1  12
ATOM     11  C   UNL     1       8.611   5.875 -12.612  0.00  0.00    +0.252 C 
ATOM     12  O   UNL     1       8.516   6.209 -11.267  0.00  0.00    -0.471 OA
ENDBRANCH   1  12
BRANCH   6  13
ATOM     13  C   UNL     1       1.590   4.778  -8.464  0.00  0.00    +0.126 C 
ATOM     14  C   UNL     1       0.506   5.813  -9.187  0.00  0.00    +0.017 C 
BRANCH  13  15
ATOM     15  C   UNL     1       1.121   5.154  -6.954  0.00  0.00    +0.368 C 
ATOM     16  O   UNL     1       0.938   4.160  -6.051  0.00  0.00    -0.245 OA
ATOM     17  O   UNL     1       0.489   6.252  -6.891  0.00  0.00    -0.245 OA
ENDBRANCH  13  15
ENDBRANCH   6  13
TORSDOF 3
ENDMDL
MODEL 5
REMARK VINA RESULT:      -6.2      1.386      2.229
REMARK  Name = 
REMARK  3 active torsions:
REMARK  status: ('A' for Active; 'I' for Inactive)
REMARK    1  A    between atoms: O_2  and  C_3
REMARK    2  A    between atoms: C_8  and  C_9
REMARK    3  A    between atoms: C_9  and  C_11
REMARK                            x       y       z     vdW  Elec       q    Type
REMARK                         _______ _______ _______ _____ _____    ______ ____
ROOT
ATOM      1  C   UNL     1       3.552   5.811  -7.493  0.00  0.00    +0.139 A 
ATOM      2  C   UNL     1       3.042   5.036  -6.463  0.00  0.00    +0.037 A 
ATOM      3  C   UNL     1       1.991   5.555  -5.713  0.00  0.00    +0.003 A 
ATOM      4  C   UNL     1       1.342   6.731  -6.062  0.00  0.00    -0.000 A 
ATOM      5  C   UNL     1      -0.033   6.661  -5.846  0.00  0.00    -0.004 A 
ATOM      6  C   UNL     1      -0.476   6.342  -4.569  0.00  0.00    -0.012 A 
ATOM      7  C   UNL     1       0.345   5.383  -3.969  0.00  0.00    -0.004 A 
ATOM      8  C   UNL     1       1.815   7.438  -7.138  0.00  0.00    +0.003 A 
ATOM      9  C   UNL     1       1.541   4.964  -4.546  0.00  0.00    -0.000 A 
ATOM     10  C   UNL     1       3.051   7.090  -7.647  0.00  0.00    +0.037 A 
ENDROOT
BRANCH   1  12
ATOM     11  C   UNL     1       4.329   4.936  -9.589  0.00  0.00    +0.252 C 
ATOM     12  O   UNL     1       4.600   5.390  -8.304  0.00  0.00    -0.471 OA
ENDBRANCH   1  12
BRANCH   6  13
ATOM     13  C   UNL     1      -1.990   5.729  -4.519  0.00  0.00    +0.126 C 
ATOM     14  C   UNL     1      -2.736   7.160  -4.926  0.00  0.00    +0.017 C 
BRANCH  13  15
ATOM     15  C   UNL     1      -2.122   5.981  -2.918  0.00  0.00    +0.368 C 
ATOM     16  O   UNL     1      -2.540   4.966  -2.121  0.00  0.00    -0.245 OA
ATOM     17  O   UNL     1      -2.316   7.198  -2.623  0.00  0.00    -0.245 OA
ENDBRANCH  13  15
ENDBRANCH   6  13
TORSDOF 3
ENDMDL
MODEL 6
REMARK VINA RESULT:      -6.1      3.231      8.105
REMARK  Name = 
REMARK  3 active torsions:
REMARK  status: ('A' for Active; 'I' for Inactive)
REMARK    1  A    between atoms: O_2  and  C_3
REMARK    2  A    between atoms: C_8  and  C_9
REMARK    3  A    between atoms: C_9  and  C_11
REMARK                            x       y       z     vdW  Elec       q    Type
REMARK                         _______ _______ _______ _____ _____    ______ ____
ROOT
ATOM      1  C   UNL     1       0.492   5.691  -7.926  0.00  0.00    +0.139 A 
ATOM      2  C   UNL     1       0.804   5.435  -9.252  0.00  0.00    +0.037 A 
ATOM      3  C   UNL     1       1.969   5.994  -9.768  0.00  0.00    +0.003 A 
ATOM      4  C   UNL     1       2.894   6.651  -8.969  0.00  0.00    -0.000 A 
ATOM      5  C   UNL     1       4.207   6.377  -9.344  0.00  0.00    -0.004 A 
ATOM      6  C   UNL     1       4.578   6.641 -10.656  0.00  0.00    -0.012 A 
ATOM      7  C   UNL     1       3.549   6.331 -11.549  0.00  0.00    -0.004 A 
ATOM      8  C   UNL     1       2.597   6.818  -7.639  0.00  0.00    +0.003 A 
ATOM      9  C   UNL     1       2.274   5.974 -11.118  0.00  0.00    -0.000 A 
ATOM     10  C   UNL     1       1.304   6.565  -7.228  0.00  0.00    +0.037 A 
ENDROOT
BRANCH   1  12
ATOM     11  C   UNL     1      -1.115   5.778  -6.144  0.00  0.00    +0.252 C 
ATOM     12  O   UNL     1      -0.646   5.182  -7.308  0.00  0.00    -0.471 OA
ENDBRANCH   1  12
BRANCH   6  13
ATOM     13  C   UNL     1       5.882   5.798 -11.166  0.00  0.00    +0.126 C 
ATOM     14  C   UNL     1       6.738   5.991  -9.751  0.00  0.00    +0.017 C 
BRANCH  13  15
ATOM     15  C   UNL     1       6.542   7.101 -11.880  0.00  0.00    +0.368 C 
ATOM     16  O   UNL     1       6.519   8.292 -11.233  0.00  0.00    -0.245 OA
ATOM     17  O   UNL     1       6.558   7.018 -13.145  0.00  0.00    -0.245 OA
ENDBRANCH  13  15
ENDBRANCH   6  13
TORSDOF 3
ENDMDL
MODEL 7
REMARK VINA RESULT:      -6.1      1.726      6.085
REMARK  Name = 
REMARK  3 active torsions:
REMARK  status: ('A' for Active; 'I' for Inactive)
REMARK    1  A    between atoms: O_2  and  C_3
REMARK    2  A    between atoms: C_8  and  C_9
REMARK    3  A    between atoms: C_9  and  C_11
REMARK                            x       y       z     vdW  Elec       q    Type
REMARK                         _______ _______ _______ _____ _____    ______ ____
ROOT
ATOM      1  C   UNL     1      -1.528   7.086  -2.421  0.00  0.00    +0.139 A 
ATOM      2  C   UNL     1      -0.574   6.116  -2.688  0.00  0.00    +0.037 A 
ATOM      3  C   UNL     1      -0.222   5.895  -4.016  0.00  0.00    +0.003 A 
ATOM      4  C   UNL     1      -0.666   6.713  -5.047  0.00  0.00    -0.000 A 
ATOM      5  C   UNL     1       0.320   6.938  -6.005  0.00  0.00    -0.004 A 
ATOM      6  C   UNL     1       0.900   5.833  -6.614  0.00  0.00    -0.012 A 
ATOM      7  C   UNL     1       1.077   4.785  -5.707  0.00  0.00    -0.004 A 
ATOM      8  C   UNL     1      -1.546   7.720  -4.741  0.00  0.00    +0.003 A 
ATOM      9  C   UNL     1       0.560   4.826  -4.415  0.00  0.00    -0.000 A 
ATOM     10  C   UNL     1      -2.140   7.704  -3.495  0.00  0.00    +0.037 A 
ENDROOT
BRANCH   1  12
ATOM     11  C   UNL     1      -1.521   6.605  -0.069  0.00  0.00    +0.252 C 
ATOM     12  O   UNL     1      -1.953   7.389  -1.132  0.00  0.00    -0.471 OA
ENDBRANCH   1  12
BRANCH   6  13
ATOM     13  C   UNL     1       2.375   6.121  -7.258  0.00  0.00    +0.126 C 
ATOM     14  C   UNL     1       2.881   7.108  -6.018  0.00  0.00    +0.017 C 
BRANCH  13  15
ATOM     15  C   UNL     1       1.823   7.350  -8.168  0.00  0.00    +0.368 C 
ATOM     16  O   UNL     1       1.283   7.084  -9.382  0.00  0.00    -0.245 OA
ATOM     17  O   UNL     1       2.391   8.453  -7.906  0.00  0.00    -0.245 OA
ENDBRANCH  13  15
ENDBRANCH   6  13
TORSDOF 3
ENDMDL
MODEL 8
REMARK VINA RESULT:      -6.1      4.408      7.143
REMARK  Name = 
REMARK  3 active torsions:
REMARK  status: ('A' for Active; 'I' for Inactive)
REMARK    1  A    between atoms: O_2  and  C_3
REMARK    2  A    between atoms: C_8  and  C_9
REMARK    3  A    between atoms: C_9  and  C_11
REMARK                            x       y       z     vdW  Elec       q    Type
REMARK                         _______ _______ _______ _____ _____    ______ ____
ROOT
ATOM      1  C   UNL     1       4.363   6.300  -0.426  0.00  0.00    +0.139 A 
ATOM      2  C   UNL     1       4.638   7.280  -1.367  0.00  0.00    +0.037 A 
ATOM      3  C   UNL     1       4.603   6.924  -2.711  0.00  0.00    +0.003 A 
ATOM      4  C   UNL     1       4.150   5.683  -3.138  0.00  0.00    -0.000 A 
ATOM      5  C   UNL     1       3.400   5.768  -4.309  0.00  0.00    -0.004 A 
ATOM      6  C   UNL     1       3.988   6.364  -5.417  0.00  0.00    -0.012 A 
ATOM      7  C   UNL     1       4.779   7.456  -5.049  0.00  0.00    -0.004 A 
ATOM      8  C   UNL     1       3.804   4.758  -2.186  0.00  0.00    +0.003 A 
ATOM      9  C   UNL     1       5.054   7.759  -3.718  0.00  0.00    -0.000 A 
ATOM     10  C   UNL     1       4.169   5.008  -0.878  0.00  0.00    +0.037 A 
ENDROOT
BRANCH   1  12
ATOM     11  C   UNL     1       4.952   7.711   1.424  0.00  0.00    +0.252 C 
ATOM     12  O   UNL     1       4.369   6.546   0.943  0.00  0.00    -0.471 OA
ENDBRANCH   1  12
BRANCH   6  13
ATOM     13  C   UNL     1       2.920   6.935  -6.516  0.00  0.00    +0.126 C 
ATOM     14  C   UNL     1       1.579   6.642  -5.576  0.00  0.00    +0.017 C 
BRANCH  13  15
ATOM     15  C   UNL     1       2.835   5.507  -7.288  0.00  0.00    +0.368 C 
ATOM     16  O   UNL     1       3.818   5.165  -8.157  0.00  0.00    -0.245 OA
ATOM     17  O   UNL     1       1.648   5.078  -7.406  0.00  0.00    -0.245 OA
ENDBRANCH  13  15
ENDBRANCH   6  13
TORSDOF 3
ENDMDL
MODEL 9
REMARK VINA RESULT:      -6.1      2.459      4.493
REMARK  Name = 
REMARK  3 active torsions:
REMARK  status: ('A' for Active; 'I' for Inactive)
REMARK    1  A    between atoms: O_2  and  C_3
REMARK    2  A    between atoms: C_8  and  C_9
REMARK    3  A    between atoms: C_9  and  C_11
REMARK                            x       y       z     vdW  Elec       q    Type
REMARK                         _______ _______ _______ _____ _____    ______ ____
ROOT
ATOM      1  C   UNL     1       5.608   5.822  -9.798  0.00  0.00    +0.139 A 
ATOM      2  C   UNL     1       5.507   5.332  -8.505  0.00  0.00    +0.037 A 
ATOM      3  C   UNL     1       4.383   5.677  -7.761  0.00  0.00    +0.003 A 
ATOM      4  C   UNL     1       3.303   6.348  -8.319  0.00  0.00    -0.000 A 
ATOM      5  C   UNL     1       2.083   5.881  -7.835  0.00  0.00    -0.004 A 
ATOM      6  C   UNL     1       1.878   5.897  -6.461  0.00  0.00    -0.012 A 
ATOM      7  C   UNL     1       3.044   5.563  -5.767  0.00  0.00    -0.004 A 
ATOM      8  C   UNL     1       3.395   6.749  -9.627  0.00  0.00    +0.003 A 
ATOM      9  C   UNL     1       4.272   5.416  -6.407  0.00  0.00    -0.000 A 
ATOM     10  C   UNL     1       4.635   6.702 -10.232  0.00  0.00    +0.037 A 
ENDROOT
BRANCH   1  12
ATOM     11  C   UNL     1       6.484   5.432 -11.998  0.00  0.00    +0.252 C 
ATOM     12  O   UNL     1       6.687   5.539 -10.628  0.00  0.00    -0.471 OA
ENDBRANCH   1  12
BRANCH   6  13
ATOM     13  C   UNL     1       0.734   4.851  -5.941  0.00  0.00    +0.126 C 
ATOM     14  C   UNL     1      -0.434   5.381  -7.002  0.00  0.00    +0.017 C 
BRANCH  13  15
ATOM     15  C   UNL     1       0.261   5.843  -4.743  0.00  0.00    +0.368 C 
ATOM     16  O   UNL     1      -0.109   5.311  -3.552  0.00  0.00    -0.245 OA
ATOM     17  O   UNL     1      -0.200   6.945  -5.166  0.00  0.00    -0.245 OA
ENDBRANCH  13  15
ENDBRANCH   6  13
TORSDOF 3
ENDMDL
