MODEL 1
REMARK VINA RESULT:      -6.8      0.000      0.000
REMARK  Name = 
REMARK  4 active torsions:
REMARK  status: ('A' for Active; 'I' for Inactive)
REMARK    1  A    between atoms: O_2  and  C_3
REMARK    2  A    between atoms: C_7  and  C_8
REMARK    3  A    between atoms: C_14  and  C_15
REMARK    4  A    between atoms: C_15  and  N_16
REMARK                            x       y       z     vdW  Elec       q    Type
REMARK                         _______ _______ _______ _____ _____    ______ ____
ROOT
ATOM      1  C   UNL     1       0.948   5.160  -5.430  0.00  0.00    +0.147 C 
ATOM      2  C   UNL     1       0.503   6.176  -6.657  0.00  0.00    +0.048 C 
ATOM      3  C   UNL     1      -0.807   5.240  -7.041  0.00  0.00    +0.004 C 
ATOM      4  C   UNL     1      -1.837   5.797  -6.094  0.00  0.00    +0.000 C 
ATOM      5  C   UNL     1      -1.200   6.305  -4.805  0.00  0.00    +0.003 C 
ATOM      6  C   UNL     1      -0.092   5.380  -4.355  0.00  0.00    +0.035 C 
ATOM      7  O   UNL     1       0.927   3.899  -5.952  0.00  0.00    -0.221 OA
ENDROOT
BRANCH   1  10
ATOM      8  C   UNL     1       3.390   6.786  -3.185  0.00  0.00    +0.138 A 
ATOM      9  C   UNL     1       2.346   6.667  -4.093  0.00  0.00    +0.035 A 
ATOM     10  C   UNL     1       2.282   5.631  -5.003  0.00  0.00    +0.008 A 
ATOM     11  C   UNL     1       3.338   4.732  -4.972  0.00  0.00    -0.002 A 
ATOM     12  C   UNL     1       4.273   4.735  -3.945  0.00  0.00    +0.003 A 
ATOM     13  C   UNL     1       4.198   5.686  -2.934  0.00  0.00    +0.037 A 
BRANCH   8  15
ATOM     14  C   UNL     1       3.897   8.419  -2.226  0.00  0.00    +0.252 C 
ATOM     15  O   UNL     1       3.708   8.002  -2.577  0.00  0.00    -0.471 OA
ENDBRANCH   8  15
ENDBRANCH   1  10
BRANCH   2  16
ATOM     16  C   UNL     1       1.547   5.477  -7.725  0.00  0.00    +0.075 C 
BRANCH  16  17
ATOM     17  N   UNL     1       2.032   6.430  -8.626  0.00  0.00    -0.270 NA
ATOM     18  C   UNL     1       2.166   7.687  -7.948  0.00  0.00    +0.090 C 
ATOM     19  C   UNL     1       1.217   6.656  -9.806  0.00  0.00    +0.090 C 
ENDBRANCH  16  17
ENDBRANCH   2  16
TORSDOF 4
ENDMDL
MODEL 2
REMARK VINA RESULT:      -6.5      3.467      7.127
REMARK  Name = 
REMARK  4 active torsions:
REMARK  status: ('A' for Active; 'I' for Inactive)
REMARK    1  A    between atoms: O_2  and  C_3
REMARK    2  A    between atoms: C_7  and  C_8
REMARK    3  A    between atoms: C_14  and  C_15
REMARK    4  A    between atoms: C_15  and  N_16
REMARK                            x       y       z     vdW  Elec       q    Type
REMARK                         _______ _______ _______ _____ _____    ______ ____
ROOT
ATOM      1  C   UNL     1       3.695   5.086  -9.746  0.00  0.00    +0.147 C 
ATOM      2  C   UNL     1       4.253   6.291  -8.761  0.00  0.00    +0.048 C 
ATOM      3  C   UNL     1       5.576   5.399  -8.315  0.00  0.00    +0.004 C 
ATOM      4  C   UNL     1       6.533   5.747  -9.424  0.00  0.00    +0.000 C 
ATOM      5  C   UNL     1       5.803   6.035 -10.731  0.00  0.00    +0.003 C 
ATOM      6  C   UNL     1       4.648   5.078 -10.919  0.00  0.00    +0.035 C 
ATOM      7  O   UNL     1       3.738   3.939  -9.007  0.00  0.00    -0.221 OA
ENDROOT
BRANCH   1  10
ATOM      8  C   UNL     1       1.084   6.269 -12.077  0.00  0.00    +0.138 A 
ATOM      9  C   UNL     1       2.211   6.311 -11.267  0.00  0.00    +0.035 A 
ATOM     10  C   UNL     1       2.338   5.512 -10.147  0.00  0.00    +0.008 A 
ATOM     11  C   UNL     1       1.259   4.687  -9.867  0.00  0.00    -0.002 A 
ATOM     12  C   UNL     1       0.225   4.500 -10.775  0.00  0.00    +0.003 A 
ATOM     13  C   UNL     1       0.223   5.184 -11.985  0.00  0.00    +0.037 A 
BRANCH   8  15
ATOM     14  C   UNL     1       0.525   7.659 -13.341  0.00  0.00    +0.252 C 
ATOM     15  O   UNL     1       0.740   7.325 -12.923  0.00  0.00    -0.471 OA
ENDBRANCH   8  15
ENDBRANCH   1  10
BRANCH   2  16
ATOM     16  C   UNL     1       3.288   5.826  -7.507  0.00  0.00    +0.075 C 
BRANCH  16  17
ATOM     17  N   UNL     1       2.811   6.946  -6.820  0.00  0.00    -0.270 NA
ATOM     18  C   UNL     1       3.473   7.031  -5.550  0.00  0.00    +0.090 C 
ATOM     19  C   UNL     1       1.381   6.970  -6.567  0.00  0.00    +0.090 C 
ENDBRANCH  16  17
ENDBRANCH   2  16
TORSDOF 4
ENDMDL
MODEL 3
REMARK VINA RESULT:      -6.3      2.078      4.923
REMARK  Name = 
REMARK  4 active torsions:
REMARK  status: ('A' for Active; 'I' for Inactive)
REMARK    1  A    between atoms: O_2  and  C_3
REMARK    2  A    between atoms: C_7  and  C_8
REMARK    3  A    between atoms: C_14  and  C_15
REMARK    4  A    between atoms: C_15  and  N_16
REMARK                            x       y       z     vdW  Elec       q    Type
REMARK                         _______ _______ _______ _____ _____    ______ ____
ROOT
ATOM      1  C   UNL     1       1.112   5.418  -6.820  0.00  0.00    +0.147 C 
ATOM      2  C   UNL     1       2.149   6.410  -5.998  0.00  0.00    +0.048 C 
ATOM      3  C   UNL     1       3.440   5.923  -6.912  0.00  0.00    +0.004 C 
ATOM      4  C   UNL     1       3.328   6.867  -8.079  0.00  0.00    +0.000 C 
ATOM      5  C   UNL     1       1.880   7.253  -8.356  0.00  0.00    +0.003 C 
ATOM      6  C   UNL     1       0.967   6.060  -8.181  0.00  0.00    +0.035 C 
ATOM      7  O   UNL     1       1.710   4.192  -6.862  0.00  0.00    -0.221 OA
ENDROOT
BRANCH   1  10
ATOM      8  C   UNL     1      -1.554   6.989  -4.802  0.00  0.00    +0.138 A 
ATOM      9  C   UNL     1      -0.309   6.459  -5.114  0.00  0.00    +0.035 A 
ATOM     10  C   UNL     1      -0.153   5.463  -6.058  0.00  0.00    +0.008 A 
ATOM     11  C   UNL     1      -1.319   5.007  -6.655  0.00  0.00    -0.002 A 
ATOM     12  C   UNL     1      -2.531   5.665  -6.492  0.00  0.00    +0.003 A 
ATOM     13  C   UNL     1      -2.615   6.785  -5.674  0.00  0.00    +0.037 A 
BRANCH   8  15
ATOM     14  C   UNL     1      -2.011   7.833  -3.093  0.00  0.00    +0.252 C 
ATOM     15  O   UNL     1      -1.798   7.650  -3.596  0.00  0.00    -0.471 OA
ENDBRANCH   8  15
ENDBRANCH   1  10
BRANCH   2  16
ATOM     16  C   UNL     1       2.362   5.316  -4.782  0.00  0.00    +0.075 C 
BRANCH  16  17
ATOM     17  N   UNL     1       3.131   5.872  -3.756  0.00  0.00    -0.270 NA
ATOM     18  C   UNL     1       4.108   4.911  -3.332  0.00  0.00    +0.090 C 
ATOM     19  C   UNL     1       2.399   6.298  -2.577  0.00  0.00    +0.090 C 
ENDBRANCH  16  17
ENDBRANCH   2  16
TORSDOF 4
ENDMDL
MODEL 4
REMARK VINA RESULT:      -6.2      2.716      5.547
REMARK  Name = 
REMARK  4 active torsions:
REMARK  status: ('A' for Active; 'I' for Inactive)
REMARK    1  A    between atoms: O_2  and  C_3
REMARK    2  A    between atoms: C_7  and  C_8
REMARK    3  A    between atoms: C_14  and  C_15
REMARK    4  A    between atoms: C_15  and  N_16
REMARK                            x       y       z     vdW  Elec       q    Type
REMARK                         _______ _______ _______ _____ _____    ______ ____
ROOT
ATOM      1  C   UNL     1       3.141   5.622  -4.369  0.00  0.00    +0.147 C 
ATOM      2  C   UNL     1       3.287   6.400  -2.917  0.00  0.00    +0.048 C 
ATOM      3  C   UNL     1       4.918   6.121  -2.860  0.00  0.00    +0.004 C 
ATOM      4  C   UNL     1       5.431   7.302  -3.641  0.00  0.00    +0.000 C 
ATOM      5  C   UNL     1       4.438   7.748  -4.707  0.00  0.00    +0.003 C 
ATOM      6  C   UNL     1       3.791   6.551  -5.368  0.00  0.00    +0.035 C 
ATOM      7  O   UNL     1       3.796   4.432  -4.231  0.00  0.00    -0.221 OA
ENDROOT
BRANCH   1  10
ATOM      8  C   UNL     1      -0.252   6.831  -5.191  0.00  0.00    +0.138 A 
ATOM      9  C   UNL     1       0.910   6.636  -4.455  0.00  0.00    +0.035 A 
ATOM     10  C   UNL     1       1.686   5.503  -4.600  0.00  0.00    +0.008 A 
ATOM     11  C   UNL     1       1.219   4.561  -5.504  0.00  0.00    -0.002 A 
ATOM     12  C   UNL     1       0.175   4.839  -6.378  0.00  0.00    +0.003 A 
ATOM     13  C   UNL     1      -0.469   6.070  -6.330  0.00  0.00    +0.037 A 
BRANCH   8  15
ATOM     14  C   UNL     1      -1.562   8.171  -4.614  0.00  0.00    +0.252 C 
ATOM     15  O   UNL     1      -1.254   7.711  -4.774  0.00  0.00    -0.471 OA
ENDBRANCH   8  15
ENDBRANCH   1  10
BRANCH   2  16
ATOM     16  C   UNL     1       2.842   5.063  -2.061  0.00  0.00    +0.075 C 
BRANCH  16  17
ATOM     17  N   UNL     1       2.113   5.431  -0.926  0.00  0.00    -0.270 NA
ATOM     18  C   UNL     1       0.743   5.044  -1.106  0.00  0.00    +0.090 C 
ATOM     19  C   UNL     1       2.127   6.846  -0.598  0.00  0.00    +0.090 C 
ENDBRANCH  16  17
ENDBRANCH   2  16
TORSDOF 4
ENDMDL
MODEL 5
REMARK VINA RESULT:      -6.2      2.356      5.230
REMARK  Name = 
REMARK  4 active torsions:
REMARK  status: ('A' for Active; 'I' for Inactive)
REMARK    1  A    between atoms: O_2  and  C_3
REMARK    2  A    between atoms: C_7  and  C_8
REMARK    3  A    between atoms: C_14  and  C_15
REMARK    4  A    between atoms: C_15  and  N_16
REMARK                            x       y       z     vdW  Elec       q    Type
REMARK                         _______ _______ _______ _____ _____    ______ ____
ROOT
ATOM      1  C   UNL     1      -0.728   6.521  -5.551  0.00  0.00    +0.147 C 
ATOM      2  C   UNL     1      -0.468   5.468  -4.302  0.00  0.00    +0.048 C 
ATOM      3  C   UNL     1      -1.558   6.251  -3.333  0.00  0.00    +0.004 C 
ATOM      4  C   UNL     1      -2.838   5.575  -3.747  0.00  0.00    +0.000 C 
ATOM      5  C   UNL     1      -2.796   5.135  -5.206  0.00  0.00    +0.003 C 
ATOM      6  C   UNL     1      -2.110   6.178  -6.059  0.00  0.00    +0.035 C 
ATOM      7  O   UNL     1      -0.645   7.774  -5.017  0.00  0.00    -0.221 OA
ENDROOT
BRANCH   1  10
ATOM      8  C   UNL     1       0.597   5.724  -8.906  0.00  0.00    +0.138 A 
ATOM      9  C   UNL     1      -0.066   5.542  -7.700  0.00  0.00    +0.035 A 
ATOM     10  C   UNL     1       0.314   6.203  -6.549  0.00  0.00    +0.008 A 
ATOM     11  C   UNL     1       1.415   7.038  -6.666  0.00  0.00    -0.002 A 
ATOM     12  C   UNL     1       1.953   7.372  -7.903  0.00  0.00    +0.003 A 
ATOM     13  C   UNL     1       1.421   6.828  -9.066  0.00  0.00    +0.037 A 
BRANCH   8  15
ATOM     14  C   UNL     1       0.533   4.512 -10.446  0.00  0.00    +0.252 C 
ATOM     15  O   UNL     1       0.529   4.786  -9.939  0.00  0.00    -0.471 OA
ENDBRANCH   8  15
ENDBRANCH   1  10
BRANCH   2  16
ATOM     16  C   UNL     1       0.864   6.287  -3.780  0.00  0.00    +0.075 C 
BRANCH  16  17
ATOM     17  N   UNL     1       1.756   5.414  -3.150  0.00  0.00    -0.270 NA
ATOM     18  C   UNL     1       1.850   5.765  -1.762  0.00  0.00    +0.090 C 
ATOM     19  C   UNL     1       3.105   5.394  -3.687  0.00  0.00    +0.090 C 
ENDBRANCH  16  17
ENDBRANCH   2  16
TORSDOF 4
ENDMDL
MODEL 6
REMARK VINA RESULT:      -6.2      2.739      4.566
REMARK  Name = 
REMARK  4 active torsions:
REMARK  status: ('A' for Active; 'I' for Inactive)
REMARK    1  A    between atoms: O_2  and  C_3
REMARK    2  A    between atoms: C_7  and  C_8
REMARK    3  A    between atoms: C_14  and  C_15
REMARK    4  A    between atoms: C_15  and  N_16
REMARK                            x       y       z     vdW  Elec       q    Type
REMARK                         _______ _______ _______ _____ _____    ______ ____
ROOT
ATOM      1  C   UNL     1       2.290   6.683  -7.255  0.00  0.00    +0.147 C 
ATOM      2  C   UNL     1       2.245   5.748  -8.618  0.00  0.00    +0.048 C 
ATOM      3  C   UNL     1       3.392   6.676  -9.368  0.00  0.00    +0.004 C 
ATOM      4  C   UNL     1       4.653   6.025  -8.862  0.00  0.00    +0.000 C 
ATOM      5  C   UNL     1       4.465   5.441  -7.467  0.00  0.00    +0.003 C 
ATOM      6  C   UNL     1       3.620   6.360  -6.613  0.00  0.00    +0.035 C 
ATOM      7  O   UNL     1       2.194   7.977  -7.677  0.00  0.00    -0.221 OA
ENDROOT
BRANCH   1  10
ATOM      8  C   UNL     1      -0.928   6.986  -5.466  0.00  0.00    +0.138 A 
ATOM      9  C   UNL     1       0.422   7.161  -5.739  0.00  0.00    +0.035 A 
ATOM     10  C   UNL     1       1.157   6.217  -6.428  0.00  0.00    +0.008 A 
ATOM     11  C   UNL     1       0.471   5.072  -6.805  0.00  0.00    -0.002 A 
ATOM     12  C   UNL     1      -0.912   4.982  -6.709  0.00  0.00    +0.003 A 
ATOM     13  C   UNL     1      -1.646   6.036  -6.177  0.00  0.00    +0.037 A 
BRANCH   8  15
ATOM     14  C   UNL     1      -1.935   7.988  -4.114  0.00  0.00    +0.252 C 
ATOM     15  O   UNL     1      -1.572   7.678  -4.437  0.00  0.00    -0.471 OA
ENDBRANCH   8  15
ENDBRANCH   1  10
BRANCH   2  16
ATOM     16  C   UNL     1       0.937   6.548  -9.224  0.00  0.00    +0.075 C 
BRANCH  16  17
ATOM     17  N   UNL     1       0.676   6.134 -10.533  0.00  0.00    -0.270 NA
ATOM     18  C   UNL     1      -0.280   7.027 -11.123  0.00  0.00    +0.090 C 
ATOM     19  C   UNL     1       0.158   4.785 -10.678  0.00  0.00    +0.090 C 
ENDBRANCH  16  17
ENDBRANCH   2  16
TORSDOF 4
ENDMDL
MODEL 7
REMARK VINA RESULT:      -6.1      2.471      4.959
REMARK  Name = 
REMARK  4 active torsions:
REMARK  status: ('A' for Active; 'I' for Inactive)
REMARK    1  A    between atoms: O_2  and  C_3
REMARK    2  A    between atoms: C_7  and  C_8
REMARK    3  A    between atoms: C_14  and  C_15
REMARK    4  A    between atoms: C_15  and  N_16
REMARK                            x       y       z     vdW  Elec       q    Type
REMARK                         _______ _______ _______ _____ _____    ______ ____
ROOT
ATOM      1  C   UNL     1       3.305   5.749  -5.466  0.00  0.00    +0.147 C 
ATOM      2  C   UNL     1       2.302   6.961  -4.957  0.00  0.00    +0.048 C 
ATOM      3  C   UNL     1       2.658   6.673  -3.366  0.00  0.00    +0.004 C 
ATOM      4  C   UNL     1       3.896   7.514  -3.200  0.00  0.00    +0.000 C 
ATOM      5  C   UNL     1       4.694   7.606  -4.496  0.00  0.00    +0.003 C 
ATOM      6  C   UNL     1       4.700   6.276  -5.215  0.00  0.00    +0.035 C 
ATOM      7  O   UNL     1       2.996   4.656  -4.709  0.00  0.00    -0.221 OA
ENDROOT
BRANCH   1  10
ATOM      8  C   UNL     1       4.059   5.931  -9.078  0.00  0.00    +0.138 A 
ATOM      9  C   UNL     1       3.760   6.370  -7.794  0.00  0.00    +0.035 A 
ATOM     10  C   UNL     1       3.031   5.600  -6.910  0.00  0.00    +0.008 A 
ATOM     11  C   UNL     1       2.592   4.375  -7.392  0.00  0.00    -0.002 A 
ATOM     12  C   UNL     1       3.053   3.854  -8.594  0.00  0.00    +0.003 A 
ATOM     13  C   UNL     1       3.940   4.582  -9.379  0.00  0.00    +0.037 A 
BRANCH   8  15
ATOM     14  C   UNL     1       4.626   7.080 -10.562  0.00  0.00    +0.252 C 
ATOM     15  O   UNL     1       4.395   6.818 -10.104  0.00  0.00    -0.471 OA
ENDBRANCH   8  15
ENDBRANCH   1  10
BRANCH   2  16
ATOM     16  C   UNL     1       0.967   5.997  -5.024  0.00  0.00    +0.075 C 
BRANCH  16  17
ATOM     17  N   UNL     1      -0.052   6.625  -5.747  0.00  0.00    -0.270 NA
ATOM     18  C   UNL     1      -0.887   7.356  -4.837  0.00  0.00    +0.090 C 
ATOM     19  C   UNL     1      -0.914   5.746  -6.518  0.00  0.00    +0.090 C 
ENDBRANCH  16  17
ENDBRANCH   2  16
TORSDOF 4
ENDMDL
MODEL 8
REMARK VINA RESULT:      -6.1      3.346      5.159
REMARK  Name = 
REMARK  4 active torsions:
REMARK  status: ('A' for Active; 'I' for Inactive)
REMARK    1  A    between atoms: O_2  and  C_3
REMARK    2  A    between atoms: C_7  and  C_8
REMARK    3  A    between atoms: C_14  and  C_15
REMARK    4  A    between atoms: C_15  and  N_16
REMARK                            x       y       z     vdW  Elec       q    Type
REMARK                         _______ _______ _______ _____ _____    ______ ____
ROOT
ATOM      1  C   UNL     1       2.034   6.663  -8.161  0.00  0.00    +0.147 C 
ATOM      2  C   UNL     1       2.182   5.918  -6.692  0.00  0.00    +0.048 C 
ATOM      3  C   UNL     1       1.046   6.908  -6.006  0.00  0.00    +0.004 C 
ATOM      4  C   UNL     1      -0.218   6.166  -6.350  0.00  0.00    +0.000 C 
ATOM      5  C   UNL     1      -0.085   5.406  -7.665  0.00  0.00    +0.003 C 
ATOM      6  C   UNL     1       0.683   6.224  -8.679  0.00  0.00    +0.035 C 
ATOM      7  O   UNL     1       2.110   8.004  -7.919  0.00  0.00    -0.221 OA
ENDROOT
BRANCH   1  10
ATOM      8  C   UNL     1       5.235   6.767 -10.003  0.00  0.00    +0.138 A 
ATOM      9  C   UNL     1       3.897   7.005  -9.720  0.00  0.00    +0.035 A 
ATOM     10  C   UNL     1       3.136   6.120  -8.983  0.00  0.00    +0.008 A 
ATOM     11  C   UNL     1       3.783   4.965  -8.568  0.00  0.00    -0.002 A 
ATOM     12  C   UNL     1       5.160   4.817  -8.679  0.00  0.00    +0.003 A 
ATOM     13  C   UNL     1       5.926   5.819  -9.263  0.00  0.00    +0.037 A 
BRANCH   8  15
ATOM     14  C   UNL     1       6.221   7.722 -11.403  0.00  0.00    +0.252 C 
ATOM     15  O   UNL     1       5.889   7.390 -11.069  0.00  0.00    -0.471 OA
ENDBRANCH   8  15
ENDBRANCH   1  10
BRANCH   2  16
ATOM     16  C   UNL     1       3.493   6.824  -6.272  0.00  0.00    +0.075 C 
BRANCH  16  17
ATOM     17  N   UNL     1       3.878   6.543  -4.958  0.00  0.00    -0.270 NA
ATOM     18  C   UNL     1       4.783   7.563  -4.509  0.00  0.00    +0.090 C 
ATOM     19  C   UNL     1       4.529   5.262  -4.750  0.00  0.00    +0.090 C 
ENDBRANCH  16  17
ENDBRANCH   2  16
TORSDOF 4
ENDMDL
MODEL 9
REMARK VINA RESULT:      -6.1      3.890      5.513
REMARK  Name = 
REMARK  4 active torsions:
REMARK  status: ('A' for Active; 'I' for Inactive)
REMARK    1  A    between atoms: O_2  and  C_3
REMARK    2  A    between atoms: C_7  and  C_8
REMARK    3  A    between atoms: C_14  and  C_15
REMARK    4  A    between atoms: C_15  and  N_16
REMARK                            x       y       z     vdW  Elec       q    Type
REMARK                         _______ _______ _______ _____ _____    ______ ____
ROOT
ATOM      1  C   UNL     1       3.479   5.408  -8.353  0.00  0.00    +0.147 C 
ATOM      2  C   UNL     1       2.384   6.406  -9.086  0.00  0.00    +0.048 C 
ATOM      3  C   UNL     1       1.185   5.969  -8.032  0.00  0.00    +0.004 C 
ATOM      4  C   UNL     1       1.437   6.934  -6.905  0.00  0.00    +0.000 C 
ATOM      5  C   UNL     1       2.914   7.291  -6.788  0.00  0.00    +0.003 C 
ATOM      6  C   UNL     1       3.779   6.074  -7.030  0.00  0.00    +0.035 C 
ATOM      7  O   UNL     1       2.863   4.197  -8.221  0.00  0.00    -0.221 OA
ENDROOT
BRANCH   1  10
ATOM      8  C   UNL     1       6.057   6.906 -10.535  0.00  0.00    +0.138 A 
ATOM      9  C   UNL     1       4.807   6.458 -10.127  0.00  0.00    +0.035 A 
ATOM     10  C   UNL     1       4.659   5.408  -9.243  0.00  0.00    +0.008 A 
ATOM     11  C   UNL     1       5.833   4.811  -8.809  0.00  0.00    -0.002 A 
ATOM     12  C   UNL     1       7.077   5.377  -9.057  0.00  0.00    +0.003 A 
ATOM     13  C   UNL     1       7.178   6.547  -9.800  0.00  0.00    +0.037 A 
BRANCH   8  15
ATOM     14  C   UNL     1       6.447   7.920 -12.167  0.00  0.00    +0.252 C 
ATOM     15  O   UNL     1       6.235   7.637 -11.712  0.00  0.00    -0.471 OA
ENDBRANCH   8  15
ENDBRANCH   1  10
BRANCH   2  16
ATOM     16  C   UNL     1       2.022   5.294 -10.248  0.00  0.00    +0.075 C 
BRANCH  16  17
ATOM     17  N   UNL     1       1.085   5.814 -11.146  0.00  0.00    -0.270 NA
ATOM     18  C   UNL     1       0.180   4.769 -11.532  0.00  0.00    +0.090 C 
ATOM     19  C   UNL     1       1.629   6.391 -12.362  0.00  0.00    +0.090 C 
ENDBRANCH  16  17
ENDBRANCH   2  16
TORSDOF 4
ENDMDL
