MODEL 1
REMARK VINA RESULT:      -5.3      0.000      0.000
REMARK  Name = 
REMARK  3 active torsions:
REMARK  status: ('A' for Active; 'I' for Inactive)
REMARK    1  A    between atoms: N_2  and  C_3
REMARK    2  A    between atoms: C_3  and  C_5
REMARK    3  A    between atoms: C_5  and  C_6
REMARK                            x       y       z     vdW  Elec       q    Type
REMARK                         _______ _______ _______ _____ _____    ______ ____
ROOT
ATOM      1  C   UNL     1      -1.146   6.671  -4.642  0.00  0.00    +0.001 C 
ATOM      2  C   UNL     1      -2.250   6.723  -5.654  0.00  0.00    +0.000 C 
ATOM      3  C   UNL     1      -2.235   5.453  -6.456  0.00  0.00    +0.000 C 
ATOM      4  C   UNL     1      -0.965   5.334  -7.251  0.00  0.00    +0.000 C 
ATOM      5  C   UNL     1       0.205   5.592  -6.343  0.00  0.00    +0.000 C 
ATOM      6  C   UNL     1      -0.253   5.485  -4.900  0.00  0.00    +0.000 C 
ENDROOT
BRANCH   1   7
ATOM      7  C   UNL     1      -1.664   6.726  -3.233  0.00  0.00    +0.017 C 
BRANCH   7   8
ATOM      8  C   UNL     1      -2.843   5.583  -3.308  0.00  0.00    +0.073 C 
ATOM      9  C   UNL     1      -3.908   6.545  -2.508  0.00  0.00    +0.019 C 
BRANCH   8  11
ATOM     10  C   UNL     1      -1.891   5.933  -1.159  0.00  0.00    +0.107 C 
ATOM     11  N   UNL     1      -2.354   4.906  -1.973  0.00  0.00    -0.218 NA
ENDBRANCH   8  11
ENDBRANCH   7   8
ENDBRANCH   1   7
TORSDOF 3
ENDMDL
MODEL 2
REMARK VINA RESULT:      -5.2      8.084     10.290
REMARK  Name = 
REMARK  3 active torsions:
REMARK  status: ('A' for Active; 'I' for Inactive)
REMARK    1  A    between atoms: N_2  and  C_3
REMARK    2  A    between atoms: C_3  and  C_5
REMARK    3  A    between atoms: C_5  and  C_6
REMARK                            x       y       z     vdW  Elec       q    Type
REMARK                         _______ _______ _______ _____ _____    ______ ____
ROOT
ATOM      1  C   UNL     1       6.247   6.952 -10.858  0.00  0.00    +0.001 C 
ATOM      2  C   UNL     1       6.555   7.553 -12.196  0.00  0.00    +0.000 C 
ATOM      3  C   UNL     1       7.130   6.489 -13.087  0.00  0.00    +0.000 C 
ATOM      4  C   UNL     1       8.445   5.995 -12.554  0.00  0.00    +0.000 C 
ATOM      5  C   UNL     1       8.288   5.665 -11.097  0.00  0.00    +0.000 C 
ATOM      6  C   UNL     1       6.811   5.558 -10.767  0.00  0.00    +0.000 C 
ENDROOT
BRANCH   1   7
ATOM      7  C   UNL     1       4.782   7.020 -10.529  0.00  0.00    +0.017 C 
BRANCH   7   8
ATOM      8  C   UNL     1       4.327   5.484 -10.893  0.00  0.00    +0.073 C 
ATOM      9  C   UNL     1       3.134   6.012 -11.893  0.00  0.00    +0.019 C 
BRANCH   8  11
ATOM     10  C   UNL     1       3.678   4.263  -8.959  0.00  0.00    +0.107 C 
ATOM     11  N   UNL     1       3.350   5.418  -9.659  0.00  0.00    -0.218 NA
ENDBRANCH   8  11
ENDBRANCH   7   8
ENDBRANCH   1   7
TORSDOF 3
ENDMDL
MODEL 3
REMARK VINA RESULT:      -5.2      2.008      4.295
REMARK  Name = 
REMARK  3 active torsions:
REMARK  status: ('A' for Active; 'I' for Inactive)
REMARK    1  A    between atoms: N_2  and  C_3
REMARK    2  A    between atoms: C_3  and  C_5
REMARK    3  A    between atoms: C_5  and  C_6
REMARK                            x       y       z     vdW  Elec       q    Type
REMARK                         _______ _______ _______ _____ _____    ______ ____
ROOT
ATOM      1  C   UNL     1      -2.125   5.868  -5.028  0.00  0.00    +0.001 C 
ATOM      2  C   UNL     1      -2.498   7.314  -4.892  0.00  0.00    +0.000 C 
ATOM      3  C   UNL     1      -2.097   7.793  -3.526  0.00  0.00    +0.000 C 
ATOM      4  C   UNL     1      -2.869   7.074  -2.456  0.00  0.00    +0.000 C 
ATOM      5  C   UNL     1      -2.803   5.596  -2.716  0.00  0.00    +0.000 C 
ATOM      6  C   UNL     1      -1.683   5.313  -3.699  0.00  0.00    +0.000 C 
ENDROOT
BRANCH   1   7
ATOM      7  C   UNL     1      -1.126   5.641  -6.127  0.00  0.00    +0.017 C 
BRANCH   7   8
ATOM      8  C   UNL     1       0.247   5.456  -5.243  0.00  0.00    +0.073 C 
ATOM      9  C   UNL     1       1.014   6.648  -6.075  0.00  0.00    +0.019 C 
BRANCH   8  11
ATOM     10  C   UNL     1       2.159   4.248  -5.976  0.00  0.00    +0.107 C 
ATOM     11  N   UNL     1       0.792   4.341  -6.212  0.00  0.00    -0.218 NA
ENDBRANCH   8  11
ENDBRANCH   7   8
ENDBRANCH   1   7
TORSDOF 3
ENDMDL
MODEL 4
REMARK VINA RESULT:      -5.2      8.946     11.632
REMARK  Name = 
REMARK  3 active torsions:
REMARK  status: ('A' for Active; 'I' for Inactive)
REMARK    1  A    between atoms: N_2  and  C_3
REMARK    2  A    between atoms: C_3  and  C_5
REMARK    3  A    between atoms: C_5  and  C_6
REMARK                            x       y       z     vdW  Elec       q    Type
REMARK                         _______ _______ _______ _____ _____    ______ ____
ROOT
ATOM      1  C   UNL     1       6.301   6.764 -10.688  0.00  0.00    +0.001 C 
ATOM      2  C   UNL     1       7.135   6.365  -9.508  0.00  0.00    +0.000 C 
ATOM      3  C   UNL     1       6.548   5.127  -8.893  0.00  0.00    +0.000 C 
ATOM      4  C   UNL     1       5.175   5.398  -8.344  0.00  0.00    +0.000 C 
ATOM      5  C   UNL     1       4.361   6.102  -9.393  0.00  0.00    +0.000 C 
ATOM      6  C   UNL     1       5.039   5.942 -10.741  0.00  0.00    +0.000 C 
ENDROOT
BRANCH   1   7
ATOM      7  C   UNL     1       7.081   6.733 -11.972  0.00  0.00    +0.017 C 
BRANCH   7   8
ATOM      8  C   UNL     1       7.794   5.257 -11.846  0.00  0.00    +0.073 C 
ATOM      9  C   UNL     1       9.250   5.855 -12.317  0.00  0.00    +0.019 C 
BRANCH   8  11
ATOM     10  C   UNL     1       7.266   6.074 -14.015  0.00  0.00    +0.107 C 
ATOM     11  N   UNL     1       7.402   4.876 -13.323  0.00  0.00    -0.218 NA
ENDBRANCH   8  11
ENDBRANCH   7   8
ENDBRANCH   1   7
TORSDOF 3
ENDMDL
MODEL 5
REMARK VINA RESULT:      -5.2      6.878      8.954
REMARK  Name = 
REMARK  3 active torsions:
REMARK  status: ('A' for Active; 'I' for Inactive)
REMARK    1  A    between atoms: N_2  and  C_3
REMARK    2  A    between atoms: C_3  and  C_5
REMARK    3  A    between atoms: C_5  and  C_6
REMARK                            x       y       z     vdW  Elec       q    Type
REMARK                         _______ _______ _______ _____ _____    ______ ____
ROOT
ATOM      1  C   UNL     1       5.633   5.907  -9.686  0.00  0.00    +0.001 C 
ATOM      2  C   UNL     1       5.291   5.754 -11.138  0.00  0.00    +0.000 C 
ATOM      3  C   UNL     1       6.536   5.393 -11.896  0.00  0.00    +0.000 C 
ATOM      4  C   UNL     1       7.545   6.506 -11.834  0.00  0.00    +0.000 C 
ATOM      5  C   UNL     1       7.708   6.937 -10.404  0.00  0.00    +0.000 C 
ATOM      6  C   UNL     1       7.127   5.872  -9.493  0.00  0.00    +0.000 C 
ENDROOT
BRANCH   1   7
ATOM      7  C   UNL     1       4.901   4.918  -8.824  0.00  0.00    +0.017 C 
BRANCH   7   8
ATOM      8  C   UNL     1       3.397   5.011  -9.480  0.00  0.00    +0.073 C 
ATOM      9  C   UNL     1       2.882   6.030  -8.299  0.00  0.00    +0.019 C 
BRANCH   8  11
ATOM     10  C   UNL     1       2.410   4.204  -7.474  0.00  0.00    +0.107 C 
ATOM     11  N   UNL     1       2.908   3.742  -8.687  0.00  0.00    -0.218 NA
ENDBRANCH   8  11
ENDBRANCH   7   8
ENDBRANCH   1   7
TORSDOF 3
ENDMDL
MODEL 6
REMARK VINA RESULT:      -5.1      2.507      4.719
REMARK  Name = 
REMARK  3 active torsions:
REMARK  status: ('A' for Active; 'I' for Inactive)
REMARK    1  A    between atoms: N_2  and  C_3
REMARK    2  A    between atoms: C_3  and  C_5
REMARK    3  A    between atoms: C_5  and  C_6
REMARK                            x       y       z     vdW  Elec       q    Type
REMARK                         _______ _______ _______ _____ _____    ______ ____
ROOT
ATOM      1  C   UNL     1      -1.027   5.481  -6.129  0.00  0.00    +0.001 C 
ATOM      2  C   UNL     1      -2.450   5.938  -6.245  0.00  0.00    +0.000 C 
ATOM      3  C   UNL     1      -2.641   7.157  -5.389  0.00  0.00    +0.000 C 
ATOM      4  C   UNL     1      -2.438   6.832  -3.936  0.00  0.00    +0.000 C 
ATOM      5  C   UNL     1      -1.150   6.074  -3.781  0.00  0.00    +0.000 C 
ATOM      6  C   UNL     1      -0.318   6.243  -5.039  0.00  0.00    +0.000 C 
ENDROOT
BRANCH   1   7
ATOM      7  C   UNL     1      -0.307   5.528  -7.448  0.00  0.00    +0.017 C 
BRANCH   7   8
ATOM      8  C   UNL     1       1.209   5.909  -6.942  0.00  0.00    +0.073 C 
ATOM      9  C   UNL     1       1.523   6.744  -8.322  0.00  0.00    +0.019 C 
BRANCH   8  11
ATOM     10  C   UNL     1       2.162   3.788  -6.449  0.00  0.00    +0.107 C 
ATOM     11  N   UNL     1       1.806   4.579  -7.536  0.00  0.00    -0.218 NA
ENDBRANCH   8  11
ENDBRANCH   7   8
ENDBRANCH   1   7
TORSDOF 3
ENDMDL
MODEL 7
REMARK VINA RESULT:      -5.1      3.037      4.993
REMARK  Name = 
REMARK  3 active torsions:
REMARK  status: ('A' for Active; 'I' for Inactive)
REMARK    1  A    between atoms: N_2  and  C_3
REMARK    2  A    between atoms: C_3  and  C_5
REMARK    3  A    between atoms: C_5  and  C_6
REMARK                            x       y       z     vdW  Elec       q    Type
REMARK                         _______ _______ _______ _____ _____    ______ ____
ROOT
ATOM      1  C   UNL     1       0.321   6.627  -5.827  0.00  0.00    +0.001 C 
ATOM      2  C   UNL     1      -0.818   7.258  -5.084  0.00  0.00    +0.000 C 
ATOM      3  C   UNL     1      -1.837   6.201  -4.766  0.00  0.00    +0.000 C 
ATOM      4  C   UNL     1      -2.438   5.639  -6.023  0.00  0.00    +0.000 C 
ATOM      5  C   UNL     1      -1.331   5.268  -6.970  0.00  0.00    +0.000 C 
ATOM      6  C   UNL     1      -0.021   5.209  -6.206  0.00  0.00    +0.000 C 
ENDROOT
BRANCH   1   7
ATOM      7  C   UNL     1       1.620   6.743  -5.080  0.00  0.00    +0.017 C 
BRANCH   7   8
ATOM      8  C   UNL     1       2.675   6.280  -6.252  0.00  0.00    +0.073 C 
ATOM      9  C   UNL     1       3.958   6.868  -5.410  0.00  0.00    +0.019 C 
BRANCH   8  11
ATOM     10  C   UNL     1       2.698   7.341  -8.379  0.00  0.00    +0.107 C 
ATOM     11  N   UNL     1       2.490   7.633  -7.036  0.00  0.00    -0.218 NA
ENDBRANCH   8  11
ENDBRANCH   7   8
ENDBRANCH   1   7
TORSDOF 3
ENDMDL
MODEL 8
REMARK VINA RESULT:      -5.0      2.380      3.560
REMARK  Name = 
REMARK  3 active torsions:
REMARK  status: ('A' for Active; 'I' for Inactive)
REMARK    1  A    between atoms: N_2  and  C_3
REMARK    2  A    between atoms: C_3  and  C_5
REMARK    3  A    between atoms: C_5  and  C_6
REMARK                            x       y       z     vdW  Elec       q    Type
REMARK                         _______ _______ _______ _____ _____    ______ ____
ROOT
ATOM      1  C   UNL     1       0.095   6.674  -5.501  0.00  0.00    +0.001 C 
ATOM      2  C   UNL     1      -1.193   7.269  -5.019  0.00  0.00    +0.000 C 
ATOM      3  C   UNL     1      -2.240   6.192  -4.973  0.00  0.00    +0.000 C 
ATOM      4  C   UNL     1      -2.528   5.664  -6.351  0.00  0.00    +0.000 C 
ATOM      5  C   UNL     1      -1.229   5.336  -7.030  0.00  0.00    +0.000 C 
ATOM      6  C   UNL     1      -0.127   5.266  -5.989  0.00  0.00    +0.000 C 
ENDROOT
BRANCH   1   7
ATOM      7  C   UNL     1       1.187   6.779  -4.474  0.00  0.00    +0.017 C 
BRANCH   7   8
ATOM      8  C   UNL     1       1.296   5.210  -3.998  0.00  0.00    +0.073 C 
ATOM      9  C   UNL     1       0.914   5.593  -2.446  0.00  0.00    +0.019 C 
BRANCH   8  11
ATOM     10  C   UNL     1       3.487   4.792  -4.819  0.00  0.00    +0.107 C 
ATOM     11  N   UNL     1       2.839   5.339  -3.717  0.00  0.00    -0.218 NA
ENDBRANCH   8  11
ENDBRANCH   7   8
ENDBRANCH   1   7
TORSDOF 3
ENDMDL
MODEL 9
REMARK VINA RESULT:      -5.0      8.115     10.745
REMARK  Name = 
REMARK  3 active torsions:
REMARK  status: ('A' for Active; 'I' for Inactive)
REMARK    1  A    between atoms: N_2  and  C_3
REMARK    2  A    between atoms: C_3  and  C_5
REMARK    3  A    between atoms: C_5  and  C_6
REMARK                            x       y       z     vdW  Elec       q    Type
REMARK                         _______ _______ _______ _____ _____    ______ ____
ROOT
ATOM      1  C   UNL     1       5.043   5.346 -10.585  0.00  0.00    +0.001 C 
ATOM      2  C   UNL     1       3.664   5.926 -10.510  0.00  0.00    +0.000 C 
ATOM      3  C   UNL     1       3.579   6.829  -9.312  0.00  0.00    +0.000 C 
ATOM      4  C   UNL     1       3.759   6.050  -8.039  0.00  0.00    +0.000 C 
ATOM      5  C   UNL     1       4.979   5.183  -8.166  0.00  0.00    +0.000 C 
ATOM      6  C   UNL     1       5.817   5.670  -9.333  0.00  0.00    +0.000 C 
ENDROOT
BRANCH   1   7
ATOM      7  C   UNL     1       5.760   5.745 -11.844  0.00  0.00    +0.017 C 
BRANCH   7   8
ATOM      8  C   UNL     1       7.293   5.286 -11.469  0.00  0.00    +0.073 C 
ATOM      9  C   UNL     1       7.904   6.737 -11.941  0.00  0.00    +0.019 C 
BRANCH   8  11
ATOM     10  C   UNL     1       7.058   5.593 -13.814  0.00  0.00    +0.107 C 
ATOM     11  N   UNL     1       7.516   4.657 -12.895  0.00  0.00    -0.218 NA
ENDBRANCH   8  11
ENDBRANCH   7   8
ENDBRANCH   1   7
TORSDOF 3
ENDMDL
