MODEL 1
REMARK VINA RESULT:      -6.3      0.000      0.000
REMARK  Name = 
REMARK  5 active torsions:
REMARK  status: ('A' for Active; 'I' for Inactive)
REMARK    1  A    between atoms: C_2  and  C_3
REMARK    2  A    between atoms: C_3  and  O_5
REMARK    3  A    between atoms: O_5  and  C_6
REMARK    4  A    between atoms: C_6  and  C_7
REMARK    5  A    between atoms: C_7  and  C_9
REMARK                            x       y       z     vdW  Elec       q    Type
REMARK                         _______ _______ _______ _____ _____    ______ ____
ROOT
ATOM      1  C   UNL     1       0.661   6.663  -4.258  0.00  0.00    +0.187 C 
ATOM      2  C   UNL     1       0.883   6.516  -5.634  0.00  0.00    +0.043 C 
ATOM      3  C   UNL     1       2.063   5.413  -5.717  0.00  0.00    +0.007 C 
ATOM      4  C   UNL     1       1.580   5.061  -7.298  0.00  0.00    +0.034 C 
ATOM      5  C   UNL     1       2.709   5.982  -7.987  0.00  0.00    +0.168 C 
ATOM      6  C   UNL     1       2.797   7.325  -7.070  0.00  0.00    +0.182 C 
ATOM      7  O   UNL     1       2.621   8.275  -8.242  0.00  0.00    -0.220 OA
ATOM      8  F   UNL     1       3.938   5.492  -7.798  0.00  0.00    -0.237 F 
ATOM      9  C   UNL     1       2.212   6.108  -9.287  0.00  0.00    +0.064 C 
ATOM     10  C   UNL     1       1.924   4.677  -9.681  0.00  0.00    -0.035 C 
ATOM     11  C   UNL     1       1.244   4.438 -10.804  0.00  0.00    +0.034 C 
ATOM     12  C   UNL     1       1.209   5.574 -11.743  0.00  0.00    +0.195 C 
ATOM     13  C   UNL     1       2.430   6.391 -11.617  0.00  0.00    +0.038 C 
ATOM     14  O   UNL     1       0.337   5.730 -12.607  0.00  0.00    -0.287 OA
ATOM     15  C   UNL     1       2.637   3.595  -8.936  0.00  0.00    +0.023 C 
ATOM     16  C   UNL     1       0.953   6.932  -9.513  0.00  0.00    +0.011 C 
ATOM     17  C   UNL     1       3.079   6.484 -10.444  0.00  0.00    -0.017 C 
ATOM     18  C   UNL     1       2.433   3.692  -7.425  0.00  0.00    +0.007 C 
ATOM     19  C   UNL     1       1.047   4.383  -5.015  0.00  0.00    +0.004 C 
ATOM     20  C   UNL     1      -0.416   5.834  -6.100  0.00  0.00    +0.004 C 
ATOM     21  C   UNL     1       1.198   7.421  -6.670  0.00  0.00    +0.039 C 
ATOM     22  C   UNL     1       0.827   5.180  -3.607  0.00  0.00    +0.044 C 
ATOM     23  C   UNL     1      -0.765   4.807  -3.566  0.00  0.00    +0.004 C 
ENDROOT
BRANCH   1  24
ATOM     24  C   UNL     1      -0.750   7.129  -3.998  0.00  0.00    +0.203 C 
ATOM     25  O   UNL     1      -1.032   8.099  -4.716  0.00  0.00    -0.291 OA
BRANCH  24  26
ATOM     26  C   UNL     1      -1.300   7.186  -2.607  0.00  0.00    +0.163 C 
ATOM     27 CL   UNL     1      -3.064   6.990  -2.678  0.00  0.00    -0.105 Cl
ENDBRANCH  24  26
ENDBRANCH   1  24
BRANCH   1  28
ATOM     28  O   UNL     1       1.328   7.510  -3.399  0.00  0.00    -0.449 OA
BRANCH  28  29
ATOM     29  C   UNL     1       2.507   7.049  -2.794  0.00  0.00    +0.317 C 
ATOM     30  O   UNL     1       3.454   7.657  -3.385  0.00  0.00    -0.250 OA
BRANCH  29  32
ATOM     31  C   UNL     1       2.414   6.995  -0.764  0.00  0.00    +0.012 C 
ATOM     32  C   UNL     1       2.665   6.993  -1.303  0.00  0.00    +0.110 C 
ENDBRANCH  29  32
ENDBRANCH  28  29
ENDBRANCH   1  28
TORSDOF 5
ENDMDL
MODEL 2
REMARK VINA RESULT:      -6.2      1.766      2.160
REMARK  Name = 
REMARK  5 active torsions:
REMARK  status: ('A' for Active; 'I' for Inactive)
REMARK    1  A    between atoms: C_2  and  C_3
REMARK    2  A    between atoms: C_3  and  O_5
REMARK    3  A    between atoms: O_5  and  C_6
REMARK    4  A    between atoms: C_6  and  C_7
REMARK    5  A    between atoms: C_7  and  C_9
REMARK                            x       y       z     vdW  Elec       q    Type
REMARK                         _______ _______ _______ _____ _____    ______ ____
ROOT
ATOM      1  C   UNL     1       2.659   6.298  -3.513  0.00  0.00    +0.187 C 
ATOM      2  C   UNL     1       2.340   6.132  -4.868  0.00  0.00    +0.043 C 
ATOM      3  C   UNL     1       3.777   5.907  -5.575  0.00  0.00    +0.007 C 
ATOM      4  C   UNL     1       2.989   5.143  -6.860  0.00  0.00    +0.034 C 
ATOM      5  C   UNL     1       2.989   6.448  -7.806  0.00  0.00    +0.168 C 
ATOM      6  C   UNL     1       2.658   7.702  -6.819  0.00  0.00    +0.182 C 
ATOM      7  O   UNL     1       1.514   8.220  -7.673  0.00  0.00    -0.220 OA
ATOM      8  F   UNL     1       4.221   6.782  -8.200  0.00  0.00    -0.237 F 
ATOM      9  C   UNL     1       2.033   6.099  -8.764  0.00  0.00    +0.064 C 
ATOM     10  C   UNL     1       2.483   4.726  -9.209  0.00  0.00    -0.035 C 
ATOM     11  C   UNL     1       1.677   3.999  -9.985  0.00  0.00    +0.034 C 
ATOM     12  C   UNL     1       0.621   4.778 -10.657  0.00  0.00    +0.195 C 
ATOM     13  C   UNL     1       1.077   6.157 -10.918  0.00  0.00    +0.038 C 
ATOM     14  O   UNL     1      -0.441   4.294 -11.066  0.00  0.00    -0.287 OA
ATOM     15  C   UNL     1       3.912   4.356  -8.977  0.00  0.00    +0.023 C 
ATOM     16  C   UNL     1       0.572   6.014  -8.344  0.00  0.00    +0.011 C 
ATOM     17  C   UNL     1       1.965   6.754 -10.105  0.00  0.00    -0.017 C 
ATOM     18  C   UNL     1       4.327   4.510  -7.515  0.00  0.00    +0.007 C 
ATOM     19  C   UNL     1       3.926   4.580  -4.678  0.00  0.00    +0.004 C 
ATOM     20  C   UNL     1       1.613   4.775  -4.864  0.00  0.00    +0.004 C 
ATOM     21  C   UNL     1       1.626   6.912  -5.802  0.00  0.00    +0.039 C 
ATOM     22  C   UNL     1       3.888   5.277  -3.203  0.00  0.00    +0.044 C 
ATOM     23  C   UNL     1       2.982   4.067  -2.579  0.00  0.00    +0.004 C 
ENDROOT
BRANCH   1  24
ATOM     24  C   UNL     1       1.493   5.898  -2.644  0.00  0.00    +0.203 C 
ATOM     25  O   UNL     1       0.479   6.545  -2.942  0.00  0.00    -0.291 OA
BRANCH  24  26
ATOM     26  C   UNL     1       1.674   5.639  -1.180  0.00  0.00    +0.163 C 
ATOM     27 CL   UNL     1       0.795   6.882  -0.264  0.00  0.00    -0.105 Cl
ENDBRANCH  24  26
ENDBRANCH   1  24
BRANCH   1  28
ATOM     28  O   UNL     1       3.002   7.476  -2.883  0.00  0.00    -0.449 OA
BRANCH  28  29
ATOM     29  C   UNL     1       4.295   7.593  -2.351  0.00  0.00    +0.317 C 
ATOM     30  O   UNL     1       4.918   8.370  -3.141  0.00  0.00    -0.250 OA
BRANCH  29  32
ATOM     31  C   UNL     1       4.487   7.721  -0.332  0.00  0.00    +0.012 C 
ATOM     32  C   UNL     1       4.532   7.889  -0.900  0.00  0.00    +0.110 C 
ENDBRANCH  29  32
ENDBRANCH  28  29
ENDBRANCH   1  28
TORSDOF 5
ENDMDL
MODEL 3
REMARK VINA RESULT:      -6.1      2.755      4.049
REMARK  Name = 
REMARK  5 active torsions:
REMARK  status: ('A' for Active; 'I' for Inactive)
REMARK    1  A    between atoms: C_2  and  C_3
REMARK    2  A    between atoms: C_3  and  O_5
REMARK    3  A    between atoms: O_5  and  C_6
REMARK    4  A    between atoms: C_6  and  C_7
REMARK    5  A    between atoms: C_7  and  C_9
REMARK                            x       y       z     vdW  Elec       q    Type
REMARK                         _______ _______ _______ _____ _____    ______ ____
ROOT
ATOM      1  C   UNL     1       2.875   5.602  -3.259  0.00  0.00    +0.187 C 
ATOM      2  C   UNL     1       3.090   5.546  -4.643  0.00  0.00    +0.043 C 
ATOM      3  C   UNL     1       1.992   6.571  -5.243  0.00  0.00    +0.007 C 
ATOM      4  C   UNL     1       2.941   6.724  -6.633  0.00  0.00    +0.034 C 
ATOM      5  C   UNL     1       2.084   5.665  -7.494  0.00  0.00    +0.168 C 
ATOM      6  C   UNL     1       1.719   4.458  -6.462  0.00  0.00    +0.182 C 
ATOM      7  O   UNL     1       2.251   3.365  -7.372  0.00  0.00    -0.220 OA
ATOM      8  F   UNL     1       0.856   6.117  -7.765  0.00  0.00    -0.237 F 
ATOM      9  C   UNL     1       2.960   5.384  -8.546  0.00  0.00    +0.064 C 
ATOM     10  C   UNL     1       3.354   6.759  -9.036  0.00  0.00    -0.035 C 
ATOM     11  C   UNL     1       4.348   6.873  -9.919  0.00  0.00    +0.034 C 
ATOM     12  C   UNL     1       4.675   5.621 -10.625  0.00  0.00    +0.195 C 
ATOM     13  C   UNL     1       3.476   4.772 -10.763  0.00  0.00    +0.038 C 
ATOM     14  O   UNL     1       5.772   5.389 -11.148  0.00  0.00    -0.287 OA
ATOM     15  C   UNL     1       2.442   7.898  -8.712  0.00  0.00    +0.023 C 
ATOM     16  C   UNL     1       4.229   4.597  -8.252  0.00  0.00    +0.011 C 
ATOM     17  C   UNL     1       2.496   4.812  -9.845  0.00  0.00    -0.017 C 
ATOM     18  C   UNL     1       2.167   8.020  -7.214  0.00  0.00    +0.007 C 
ATOM     19  C   UNL     1       2.738   7.735  -4.421  0.00  0.00    +0.004 C 
ATOM     20  C   UNL     1       4.468   6.218  -4.782  0.00  0.00    +0.004 C 
ATOM     21  C   UNL     1       3.115   4.493  -5.582  0.00  0.00    +0.039 C 
ATOM     22  C   UNL     1       2.512   7.150  -2.914  0.00  0.00    +0.044 C 
ATOM     23  C   UNL     1       4.012   7.600  -2.441  0.00  0.00    +0.004 C 
ENDROOT
BRANCH   1  24
ATOM     24  C   UNL     1       4.136   5.243  -2.514  0.00  0.00    +0.203 C 
ATOM     25  O   UNL     1       4.823   4.446  -3.169  0.00  0.00    -0.291 OA
BRANCH  24  26
ATOM     26  C   UNL     1       4.118   5.002  -1.036  0.00  0.00    +0.163 C 
ATOM     27 CL   UNL     1       4.003   3.253  -0.741  0.00  0.00    -0.105 Cl
ENDBRANCH  24  26
ENDBRANCH   1  24
BRANCH   1  28
ATOM     28  O   UNL     1       1.975   4.851  -2.532  0.00  0.00    -0.449 OA
BRANCH  28  29
ATOM     29  C   UNL     1       0.756   5.442  -2.170  0.00  0.00    +0.317 C 
ATOM     30  O   UNL     1      -0.143   4.735  -2.725  0.00  0.00    -0.250 OA
BRANCH  29  32
ATOM     31  C   UNL     1       0.100   6.104  -0.363  0.00  0.00    +0.012 C 
ATOM     32  C   UNL     1       0.443   5.810  -0.750  0.00  0.00    +0.110 C 
ENDBRANCH  29  32
ENDBRANCH  28  29
ENDBRANCH   1  28
TORSDOF 5
ENDMDL
MODEL 4
REMARK VINA RESULT:      -5.9      3.344      7.537
REMARK  Name = 
REMARK  5 active torsions:
REMARK  status: ('A' for Active; 'I' for Inactive)
REMARK    1  A    between atoms: C_2  and  C_3
REMARK    2  A    between atoms: C_3  and  O_5
REMARK    3  A    between atoms: O_5  and  C_6
REMARK    4  A    between atoms: C_6  and  C_7
REMARK    5  A    between atoms: C_7  and  C_9
REMARK                            x       y       z     vdW  Elec       q    Type
REMARK                         _______ _______ _______ _____ _____    ______ ____
ROOT
ATOM      1  C   UNL     1       1.585   6.091 -11.419  0.00  0.00    +0.187 C 
ATOM      2  C   UNL     1       1.910   5.998 -10.059  0.00  0.00    +0.043 C 
ATOM      3  C   UNL     1       0.481   6.134  -9.313  0.00  0.00    +0.007 C 
ATOM      4  C   UNL     1       1.145   5.358  -7.967  0.00  0.00    +0.034 C 
ATOM      5  C   UNL     1       1.435   6.722  -7.160  0.00  0.00    +0.168 C 
ATOM      6  C   UNL     1       1.973   7.782  -8.274  0.00  0.00    +0.182 C 
ATOM      7  O   UNL     1       3.225   8.142  -7.493  0.00  0.00    -0.220 OA
ATOM      8  F   UNL     1       0.307   7.332  -6.786  0.00  0.00    -0.237 F 
ATOM      9  C   UNL     1       2.335   6.284  -6.184  0.00  0.00    +0.064 C 
ATOM     10  C   UNL     1       1.638   5.079  -5.596  0.00  0.00    -0.035 C 
ATOM     11  C   UNL     1       2.310   4.285  -4.760  0.00  0.00    +0.034 C 
ATOM     12  C   UNL     1       3.521   4.899  -4.185  0.00  0.00    +0.195 C 
ATOM     13  C   UNL     1       3.355   6.360  -4.060  0.00  0.00    +0.038 C 
ATOM     14  O   UNL     1       4.480   4.254  -3.743  0.00  0.00    -0.287 OA
ATOM     15  C   UNL     1       0.156   4.981  -5.769  0.00  0.00    +0.023 C 
ATOM     16  C   UNL     1       3.735   5.868  -6.613  0.00  0.00    +0.011 C 
ATOM     17  C   UNL     1       2.575   7.040  -4.918  0.00  0.00    -0.017 C 
ATOM     18  C   UNL     1      -0.268   5.070  -7.233  0.00  0.00    +0.007 C 
ATOM     19  C   UNL     1       0.043   4.782 -10.067  0.00  0.00    +0.004 C 
ATOM     20  C   UNL     1       2.354   4.529  -9.934  0.00  0.00    +0.004 C 
ATOM     21  C   UNL     1       2.794   6.707  -9.219  0.00  0.00    +0.039 C 
ATOM     22  C   UNL     1       0.169   5.311 -11.606  0.00  0.00    +0.044 C 
ATOM     23  C   UNL     1       0.796   3.889 -12.115  0.00  0.00    +0.004 C 
ENDROOT
BRANCH   1  24
ATOM     24  C   UNL     1       2.619   5.383 -12.258  0.00  0.00    +0.203 C 
ATOM     25  O   UNL     1       3.762   5.741 -11.942  0.00  0.00    -0.291 OA
BRANCH  24  26
ATOM     26  C   UNL     1       2.405   5.162 -13.724  0.00  0.00    +0.163 C 
ATOM     27 CL   UNL     1       3.648   6.054 -14.627  0.00  0.00    -0.105 Cl
ENDBRANCH  24  26
ENDBRANCH   1  24
BRANCH   1  28
ATOM     28  O   UNL     1       1.460   7.246 -12.162  0.00  0.00    -0.449 OA
BRANCH  28  29
ATOM     29  C   UNL     1       0.257   7.468 -12.849  0.00  0.00    +0.317 C 
ATOM     30  O   UNL     1      -0.446   8.194 -12.078  0.00  0.00    -0.250 OA
BRANCH  29  32
ATOM     31  C   UNL     1       0.528   8.021 -14.786  0.00  0.00    +0.012 C 
ATOM     32  C   UNL     1       0.232   7.908 -14.283  0.00  0.00    +0.110 C 
ENDBRANCH  29  32
ENDBRANCH  28  29
ENDBRANCH   1  28
TORSDOF 5
ENDMDL
MODEL 5
REMARK VINA RESULT:      -5.8      2.479      3.223
REMARK  Name = 
REMARK  5 active torsions:
REMARK  status: ('A' for Active; 'I' for Inactive)
REMARK    1  A    between atoms: C_2  and  C_3
REMARK    2  A    between atoms: C_3  and  O_5
REMARK    3  A    between atoms: O_5  and  C_6
REMARK    4  A    between atoms: C_6  and  C_7
REMARK    5  A    between atoms: C_7  and  C_9
REMARK                            x       y       z     vdW  Elec       q    Type
REMARK                         _______ _______ _______ _____ _____    ______ ____
ROOT
ATOM      1  C   UNL     1       3.051   6.003  -5.540  0.00  0.00    +0.187 C 
ATOM      2  C   UNL     1       2.725   6.125  -6.898  0.00  0.00    +0.043 C 
ATOM      3  C   UNL     1       1.823   4.816  -7.195  0.00  0.00    +0.007 C 
ATOM      4  C   UNL     1       1.152   5.619  -8.522  0.00  0.00    +0.034 C 
ATOM      5  C   UNL     1       2.118   4.913  -9.603  0.00  0.00    +0.168 C 
ATOM      6  C   UNL     1       3.587   4.853  -8.901  0.00  0.00    +0.182 C 
ATOM      7  O   UNL     1       4.299   5.512 -10.069  0.00  0.00    -0.220 OA
ATOM      8  F   UNL     1       1.865   3.607  -9.723  0.00  0.00    -0.237 F 
ATOM      9  C   UNL     1       1.956   5.749 -10.711  0.00  0.00    +0.064 C 
ATOM     10  C   UNL     1       0.453   5.844 -10.847  0.00  0.00    -0.035 C 
ATOM     11  C   UNL     1      -0.066   6.735 -11.695  0.00  0.00    +0.034 C 
ATOM     12  C   UNL     1       0.887   7.237 -12.702  0.00  0.00    +0.195 C 
ATOM     13  C   UNL     1       1.897   6.210 -13.022  0.00  0.00    +0.038 C 
ATOM     14  O   UNL     1       0.764   8.318 -13.291  0.00  0.00    -0.287 OA
ATOM     15  C   UNL     1      -0.370   4.762 -10.226  0.00  0.00    +0.023 C 
ATOM     16  C   UNL     1       2.524   7.160 -10.654  0.00  0.00    +0.011 C 
ATOM     17  C   UNL     1       2.276   5.307 -12.102  0.00  0.00    -0.017 C 
ATOM     18  C   UNL     1      -0.067   4.578  -8.740  0.00  0.00    +0.007 C 
ATOM     19  C   UNL     1       0.770   5.390  -6.123  0.00  0.00    +0.004 C 
ATOM     20  C   UNL     1       1.781   7.341  -6.894  0.00  0.00    +0.004 C 
ATOM     21  C   UNL     1       3.492   6.278  -8.072  0.00  0.00    +0.039 C 
ATOM     22  C   UNL     1       1.736   5.385  -4.807  0.00  0.00    +0.044 C 
ATOM     23  C   UNL     1       1.127   6.805  -4.270  0.00  0.00    +0.004 C 
ENDROOT
BRANCH   1  24
ATOM     24  C   UNL     1       3.323   7.359  -4.938  0.00  0.00    +0.203 C 
ATOM     25  O   UNL     1       4.434   7.781  -5.289  0.00  0.00    -0.291 OA
BRANCH  24  26
ATOM     26  C   UNL     1       2.946   7.665  -3.522  0.00  0.00    +0.163 C 
ATOM     27 CL   UNL     1       4.376   8.278  -2.665  0.00  0.00    -0.105 Cl
ENDBRANCH  24  26
ENDBRANCH   1  24
BRANCH   1  28
ATOM     28  O   UNL     1       4.118   5.313  -5.005  0.00  0.00    -0.449 OA
BRANCH  28  29
ATOM     29  C   UNL     1       3.869   4.402  -3.968  0.00  0.00    +0.317 C 
ATOM     30  O   UNL     1       4.318   3.286  -4.379  0.00  0.00    -0.250 OA
BRANCH  29  32
ATOM     31  C   UNL     1       4.054   4.751  -1.974  0.00  0.00    +0.012 C 
ATOM     32  C   UNL     1       4.222   4.706  -2.542  0.00  0.00    +0.110 C 
ENDBRANCH  29  32
ENDBRANCH  28  29
ENDBRANCH   1  28
TORSDOF 5
ENDMDL
MODEL 6
REMARK VINA RESULT:      -5.7      3.221      7.694
REMARK  Name = 
REMARK  5 active torsions:
REMARK  status: ('A' for Active; 'I' for Inactive)
REMARK    1  A    between atoms: C_2  and  C_3
REMARK    2  A    between atoms: C_3  and  O_5
REMARK    3  A    between atoms: O_5  and  C_6
REMARK    4  A    between atoms: C_6  and  C_7
REMARK    5  A    between atoms: C_7  and  C_9
REMARK                            x       y       z     vdW  Elec       q    Type
REMARK                         _______ _______ _______ _____ _____    ______ ____
ROOT
ATOM      1  C   UNL     1       3.819   6.471 -11.006  0.00  0.00    +0.187 C 
ATOM      2  C   UNL     1       3.623   6.445  -9.618  0.00  0.00    +0.043 C 
ATOM      3  C   UNL     1       2.565   5.241  -9.403  0.00  0.00    +0.007 C 
ATOM      4  C   UNL     1       3.094   5.105  -7.803  0.00  0.00    +0.034 C 
ATOM      5  C   UNL     1       1.880   5.970  -7.191  0.00  0.00    +0.168 C 
ATOM      6  C   UNL     1       1.646   7.196  -8.239  0.00  0.00    +0.182 C 
ATOM      7  O   UNL     1       1.729   8.274  -7.172  0.00  0.00    -0.220 OA
ATOM      8  F   UNL     1       0.707   5.340  -7.307  0.00  0.00    -0.237 F 
ATOM      9  C   UNL     1       2.370   6.280  -5.920  0.00  0.00    +0.064 C 
ATOM     10  C   UNL     1       2.809   4.934  -5.388  0.00  0.00    -0.035 C 
ATOM     11  C   UNL     1       3.519   4.884  -4.259  0.00  0.00    +0.034 C 
ATOM     12  C   UNL     1       3.441   6.108  -3.441  0.00  0.00    +0.195 C 
ATOM     13  C   UNL     1       2.140   6.778  -3.627  0.00  0.00    +0.038 C 
ATOM     14  O   UNL     1       4.298   6.441  -2.613  0.00  0.00    -0.287 OA
ATOM     15  C   UNL     1       2.207   3.714  -6.006  0.00  0.00    +0.023 C 
ATOM     16  C   UNL     1       3.538   7.248  -5.801  0.00  0.00    +0.011 C 
ATOM     17  C   UNL     1       1.477   6.682  -4.792  0.00  0.00    -0.017 C 
ATOM     18  C   UNL     1       2.389   3.676  -7.522  0.00  0.00    +0.007 C 
ATOM     19  C   UNL     1       3.678   4.254 -10.015  0.00  0.00    +0.004 C 
ATOM     20  C   UNL     1       4.989   5.952  -9.109  0.00  0.00    +0.004 C 
ATOM     21  C   UNL     1       3.223   7.415  -8.674  0.00  0.00    +0.039 C 
ATOM     22  C   UNL     1       3.804   4.921 -11.499  0.00  0.00    +0.044 C 
ATOM     23  C   UNL     1       5.426   4.711 -11.531  0.00  0.00    +0.004 C 
ENDROOT
BRANCH   1  24
ATOM     24  C   UNL     1       5.171   7.051 -11.337  0.00  0.00    +0.203 C 
ATOM     25  O   UNL     1       5.289   8.190 -10.865  0.00  0.00    -0.291 OA
BRANCH  24  26
ATOM     26  C   UNL     1       5.785   6.856 -12.689  0.00  0.00    +0.163 C 
ATOM     27 CL   UNL     1       7.554   6.886 -12.527  0.00  0.00    -0.105 Cl
ENDBRANCH  24  26
ENDBRANCH   1  24
BRANCH   1  28
ATOM     28  O   UNL     1       3.060   7.151 -11.935  0.00  0.00    -0.449 OA
BRANCH  28  29
ATOM     29  C   UNL     1       1.989   6.478 -12.540  0.00  0.00    +0.317 C 
ATOM     30  O   UNL     1       0.944   6.911 -11.961  0.00  0.00    -0.250 OA
BRANCH  29  32
ATOM     31  C   UNL     1       1.509   6.392 -14.514  0.00  0.00    +0.012 C 
ATOM     32  C   UNL     1       1.856   6.378 -14.031  0.00  0.00    +0.110 C 
ENDBRANCH  29  32
ENDBRANCH  28  29
ENDBRANCH   1  28
TORSDOF 5
ENDMDL
MODEL 7
REMARK VINA RESULT:      -5.7      2.861      7.239
REMARK  Name = 
REMARK  5 active torsions:
REMARK  status: ('A' for Active; 'I' for Inactive)
REMARK    1  A    between atoms: C_2  and  C_3
REMARK    2  A    between atoms: C_3  and  O_5
REMARK    3  A    between atoms: O_5  and  C_6
REMARK    4  A    between atoms: C_6  and  C_7
REMARK    5  A    between atoms: C_7  and  C_9
REMARK                            x       y       z     vdW  Elec       q    Type
REMARK                         _______ _______ _______ _____ _____    ______ ____
ROOT
ATOM      1  C   UNL     1       2.654   5.643  -6.914  0.00  0.00    +0.187 C 
ATOM      2  C   UNL     1       2.738   6.078  -5.583  0.00  0.00    +0.043 C 
ATOM      3  C   UNL     1       3.060   4.725  -4.758  0.00  0.00    +0.007 C 
ATOM      4  C   UNL     1       3.700   5.674  -3.514  0.00  0.00    +0.034 C 
ATOM      5  C   UNL     1       2.364   5.628  -2.615  0.00  0.00    +0.168 C 
ATOM      6  C   UNL     1       1.126   5.767  -3.665  0.00  0.00    +0.182 C 
ATOM      7  O   UNL     1       0.476   6.921  -2.922  0.00  0.00    -0.220 OA
ATOM      8  F   UNL     1       2.125   4.404  -2.136  0.00  0.00    -0.237 F 
ATOM      9  C   UNL     1       2.589   6.682  -1.725  0.00  0.00    +0.064 C 
ATOM     10  C   UNL     1       3.978   6.393  -1.201  0.00  0.00    -0.035 C 
ATOM     11  C   UNL     1       4.600   7.319  -0.468  0.00  0.00    +0.034 C 
ATOM     12  C   UNL     1       3.704   8.347   0.093  0.00  0.00    +0.195 C 
ATOM     13  C   UNL     1       2.362   7.789   0.344  0.00  0.00    +0.038 C 
ATOM     14  O   UNL     1       4.077   9.478   0.431  0.00  0.00    -0.287 OA
ATOM     15  C   UNL     1       4.481   4.990  -1.307  0.00  0.00    +0.023 C 
ATOM     16  C   UNL     1       2.562   8.108  -2.257  0.00  0.00    +0.011 C 
ATOM     17  C   UNL     1       1.878   6.791  -0.415  0.00  0.00    -0.017 C 
ATOM     18  C   UNL     1       4.423   4.454  -2.736  0.00  0.00    +0.007 C 
ATOM     19  C   UNL     1       4.430   4.629  -5.596  0.00  0.00    +0.004 C 
ATOM     20  C   UNL     1       4.024   6.922  -5.601  0.00  0.00    +0.004 C 
ATOM     21  C   UNL     1       1.861   6.786  -4.735  0.00  0.00    +0.039 C 
ATOM     22  C   UNL     1       3.791   4.492  -7.091  0.00  0.00    +0.044 C 
ATOM     23  C   UNL     1       4.941   5.454  -7.745  0.00  0.00    +0.004 C 
ENDROOT
BRANCH   1  24
ATOM     24  C   UNL     1       2.984   6.771  -7.859  0.00  0.00    +0.203 C 
ATOM     25  O   UNL     1       2.529   7.844  -7.439  0.00  0.00    -0.291 OA
BRANCH  24  26
ATOM     26  C   UNL     1       2.905   6.584  -9.342  0.00  0.00    +0.163 C 
ATOM     27 CL   UNL     1       4.322   7.346 -10.094  0.00  0.00    -0.105 Cl
ENDBRANCH  24  26
ENDBRANCH   1  24
BRANCH   1  28
ATOM     28  O   UNL     1       1.537   5.148  -7.552  0.00  0.00    -0.449 OA
BRANCH  28  29
ATOM     29  C   UNL     1       0.323   5.832  -7.394  0.00  0.00    +0.317 C 
ATOM     30  O   UNL     1      -0.069   6.105  -8.572  0.00  0.00    -0.250 OA
BRANCH  29  32
ATOM     31  C   UNL     1      -1.341   5.311  -6.350  0.00  0.00    +0.012 C 
ATOM     32  C   UNL     1      -0.766   5.319  -6.499  0.00  0.00    +0.110 C 
ENDBRANCH  29  32
ENDBRANCH  28  29
ENDBRANCH   1  28
TORSDOF 5
ENDMDL
MODEL 8
REMARK VINA RESULT:      -5.6      4.579      9.150
REMARK  Name = 
REMARK  5 active torsions:
REMARK  status: ('A' for Active; 'I' for Inactive)
REMARK    1  A    between atoms: C_2  and  C_3
REMARK    2  A    between atoms: C_3  and  O_5
REMARK    3  A    between atoms: O_5  and  C_6
REMARK    4  A    between atoms: C_6  and  C_7
REMARK    5  A    between atoms: C_7  and  C_9
REMARK                            x       y       z     vdW  Elec       q    Type
REMARK                         _______ _______ _______ _____ _____    ______ ____
ROOT
ATOM      1  C   UNL     1       2.850   6.081  -2.127  0.00  0.00    +0.187 C 
ATOM      2  C   UNL     1       3.143   7.183  -1.311  0.00  0.00    +0.043 C 
ATOM      3  C   UNL     1       3.492   6.516   0.121  0.00  0.00    +0.007 C 
ATOM      4  C   UNL     1       4.356   7.912   0.524  0.00  0.00    +0.034 C 
ATOM      5  C   UNL     1       3.156   8.565   1.380  0.00  0.00    +0.168 C 
ATOM      6  C   UNL     1       1.796   8.239   0.545  0.00  0.00    +0.182 C 
ATOM      7  O   UNL     1       1.328   9.683   0.522  0.00  0.00    -0.220 OA
ATOM      8  F   UNL     1       2.910   7.878   2.500  0.00  0.00    -0.237 F 
ATOM      9  C   UNL     1       3.568   9.897   1.468  0.00  0.00    +0.064 C 
ATOM     10  C   UNL     1       4.995   9.781   1.954  0.00  0.00    -0.035 C 
ATOM     11  C   UNL     1       5.768  10.868   1.960  0.00  0.00    +0.034 C 
ATOM     12  C   UNL     1       5.025  12.139   1.882  0.00  0.00    +0.195 C 
ATOM     13  C   UNL     1       3.698  12.006   2.513  0.00  0.00    +0.038 C 
ATOM     14  O   UNL     1       5.510  13.200   1.468  0.00  0.00    -0.287 OA
ATOM     15  C   UNL     1       5.390   8.518   2.649  0.00  0.00    +0.023 C 
ATOM     16  C   UNL     1       3.556  10.752   0.209  0.00  0.00    +0.011 C 
ATOM     17  C   UNL     1       3.053  10.828   2.518  0.00  0.00    -0.017 C 
ATOM     18  C   UNL     1       5.102   7.274   1.810  0.00  0.00    +0.007 C 
ATOM     19  C   UNL     1       4.725   5.781  -0.606  0.00  0.00    +0.004 C 
ATOM     20  C   UNL     1       4.466   7.689  -1.916  0.00  0.00    +0.004 C 
ATOM     21  C   UNL     1       2.438   8.357  -0.971  0.00  0.00    +0.039 C 
ATOM     22  C   UNL     1       3.877   4.898  -1.687  0.00  0.00    +0.044 C 
ATOM     23  C   UNL     1       4.983   5.153  -2.864  0.00  0.00    +0.004 C 
ENDROOT
BRANCH   1  24
ATOM     24  C   UNL     1       3.116   6.411  -3.574  0.00  0.00    +0.203 C 
ATOM     25  O   UNL     1       2.755   7.568  -3.836  0.00  0.00    -0.291 OA
BRANCH  24  26
ATOM     26  C   UNL     1       2.860   5.407  -4.655  0.00  0.00    +0.163 C 
ATOM     27 CL   UNL     1       3.685   5.934  -6.137  0.00  0.00    -0.105 Cl
ENDBRANCH  24  26
ENDBRANCH   1  24
BRANCH   1  28
ATOM     28  O   UNL     1       1.627   5.461  -2.269  0.00  0.00    -0.449 OA
BRANCH  28  29
ATOM     29  C   UNL     1       0.469   6.207  -2.006  0.00  0.00    +0.317 C 
ATOM     30  O   UNL     1      -0.144   6.288  -3.117  0.00  0.00    -0.250 OA
BRANCH  29  32
ATOM     31  C   UNL     1      -0.916   6.023  -0.530  0.00  0.00    +0.012 C 
ATOM     32  C   UNL     1      -0.427   5.897  -0.843  0.00  0.00    +0.110 C 
ENDBRANCH  29  32
ENDBRANCH  28  29
ENDBRANCH   1  28
TORSDOF 5
ENDMDL
MODEL 9
REMARK VINA RESULT:      -5.5      4.513      7.482
REMARK  Name = 
REMARK  5 active torsions:
REMARK  status: ('A' for Active; 'I' for Inactive)
REMARK    1  A    between atoms: C_2  and  C_3
REMARK    2  A    between atoms: C_3  and  O_5
REMARK    3  A    between atoms: O_5  and  C_6
REMARK    4  A    between atoms: C_6  and  C_7
REMARK    5  A    between atoms: C_7  and  C_9
REMARK                            x       y       z     vdW  Elec       q    Type
REMARK                         _______ _______ _______ _____ _____    ______ ____
ROOT
ATOM      1  C   UNL     1       2.958   9.271   2.233  0.00  0.00    +0.187 C 
ATOM      2  C   UNL     1       3.094   8.737   0.944  0.00  0.00    +0.043 C 
ATOM      3  C   UNL     1       2.396   7.282   1.056  0.00  0.00    +0.007 C 
ATOM      4  C   UNL     1       2.170   7.298  -0.619  0.00  0.00    +0.034 C 
ATOM      5  C   UNL     1       3.467   6.394  -0.934  0.00  0.00    +0.168 C 
ATOM      6  C   UNL     1       4.622   6.918   0.089  0.00  0.00    +0.182 C 
ATOM      7  O   UNL     1       5.652   7.135  -1.006  0.00  0.00    -0.220 OA
ATOM      8  F   UNL     1       3.322   5.140  -0.496  0.00  0.00    -0.237 F 
ATOM      9  C   UNL     1       3.646   6.628  -2.300  0.00  0.00    +0.064 C 
ATOM     10  C   UNL     1       2.271   6.371  -2.872  0.00  0.00    -0.035 C 
ATOM     11  C   UNL     1       2.026   6.698  -4.142  0.00  0.00    +0.034 C 
ATOM     12  C   UNL     1       3.236   6.890  -4.961  0.00  0.00    +0.195 C 
ATOM     13  C   UNL     1       4.336   6.036  -4.475  0.00  0.00    +0.038 C 
ATOM     14  O   UNL     1       3.271   7.571  -5.994  0.00  0.00    -0.287 OA
ATOM     15  C   UNL     1       1.334   5.525  -2.072  0.00  0.00    +0.023 C 
ATOM     16  C   UNL     1       4.106   8.007  -2.752  0.00  0.00    +0.011 C 
ATOM     17  C   UNL     1       4.426   5.703  -3.176  0.00  0.00    -0.017 C 
ATOM     18  C   UNL     1       1.135   6.055  -0.653  0.00  0.00    +0.007 C 
ATOM     19  C   UNL     1       1.025   8.050   1.401  0.00  0.00    +0.004 C 
ATOM     20  C   UNL     1       2.153   9.636   0.122  0.00  0.00    +0.004 C 
ATOM     21  C   UNL     1       4.200   8.513   0.096  0.00  0.00    +0.039 C 
ATOM     22  C   UNL     1       1.501   8.790   2.775  0.00  0.00    +0.044 C 
ATOM     23  C   UNL     1       0.692  10.160   2.398  0.00  0.00    +0.004 C 
ENDROOT
BRANCH   1  24
ATOM     24  C   UNL     1       2.960  10.778   2.183  0.00  0.00    +0.203 C 
ATOM     25  O   UNL     1       3.747  11.188   1.318  0.00  0.00    -0.291 OA
BRANCH  24  26
ATOM     26  C   UNL     1       2.915  11.593   3.438  0.00  0.00    +0.163 C 
ATOM     27 CL   UNL     1       3.680  13.166   3.131  0.00  0.00    -0.105 Cl
ENDBRANCH  24  26
ENDBRANCH   1  24
BRANCH   1  28
ATOM     28  O   UNL     1       3.815   9.090   3.297  0.00  0.00    -0.449 OA
BRANCH  28  29
ATOM     29  C   UNL     1       5.098   8.583   3.039  0.00  0.00    +0.317 C 
ATOM     30  O   UNL     1       5.897   9.544   3.269  0.00  0.00    -0.250 OA
BRANCH  29  32
ATOM     31  C   UNL     1       6.006   6.909   3.750  0.00  0.00    +0.012 C 
ATOM     32  C   UNL     1       5.558   7.268   3.596  0.00  0.00    +0.110 C 
ENDBRANCH  29  32
ENDBRANCH  28  29
ENDBRANCH   1  28
TORSDOF 5
ENDMDL
