MODEL 1
REMARK VINA RESULT:      -5.9      0.000      0.000
REMARK  Name = 
REMARK  3 active torsions:
REMARK  status: ('A' for Active; 'I' for Inactive)
REMARK    1  A    between atoms: C_2  and  C_3
REMARK    2  A    between atoms: C_3  and  N_4
REMARK    3  A    between atoms: N_4  and  C_5
REMARK                            x       y       z     vdW  Elec       q    Type
REMARK                         _______ _______ _______ _____ _____    ______ ____
ROOT
ATOM      1  C   UNL     1       3.590   5.872  -9.346  0.00  0.00    +0.096 C 
ATOM      2  C   UNL     1       4.973   6.627  -9.778  0.00  0.00    -0.010 A 
ATOM      3  C   UNL     1       5.935   5.690  -9.445  0.00  0.00    -0.025 A 
ATOM      4  C   UNL     1       7.243   6.083  -9.701  0.00  0.00    -0.005 A 
ATOM      5  C   UNL     1       7.495   7.056 -10.663  0.00  0.00    -0.000 A 
ATOM      6  C   UNL     1       6.419   7.714 -11.250  0.00  0.00    -0.000 A 
ATOM      7  C   UNL     1       5.437   4.888  -8.285  0.00  0.00    +0.028 C 
ATOM      8  C   UNL     1       5.118   7.309 -10.979  0.00  0.00    -0.003 A 
ATOM      9  C   UNL     1       4.180   5.592  -7.815  0.00  0.00    +0.027 C 
ENDROOT
BRANCH   1  10
ATOM     10  N   UNL     1       2.926   7.252  -8.892  0.00  0.00    -0.201 NA
BRANCH  10  11
ATOM     11  C   UNL     1       1.570   6.813  -8.704  0.00  0.00    +0.165 C 
BRANCH  11  13
ATOM     12  C   UNL     1       0.246   6.865 -10.888  0.00  0.00    -0.013 C 
ATOM     13  C   UNL     1       0.964   6.586 -10.029  0.00  0.00    -0.059 C 
ENDBRANCH  11  13
ENDBRANCH  10  11
ENDBRANCH   1  10
TORSDOF 3
ENDMDL
MODEL 2
REMARK VINA RESULT:      -5.7      3.702      7.256
REMARK  Name = 
REMARK  3 active torsions:
REMARK  status: ('A' for Active; 'I' for Inactive)
REMARK    1  A    between atoms: C_2  and  C_3
REMARK    2  A    between atoms: C_3  and  N_4
REMARK    3  A    between atoms: N_4  and  C_5
REMARK                            x       y       z     vdW  Elec       q    Type
REMARK                         _______ _______ _______ _____ _____    ______ ____
ROOT
ATOM      1  C   UNL     1       1.167   5.867  -6.492  0.00  0.00    +0.096 C 
ATOM      2  C   UNL     1      -0.188   6.625  -5.985  0.00  0.00    -0.010 A 
ATOM      3  C   UNL     1      -1.178   5.729  -6.346  0.00  0.00    -0.025 A 
ATOM      4  C   UNL     1      -2.471   6.134  -6.036  0.00  0.00    -0.005 A 
ATOM      5  C   UNL     1      -2.679   7.056  -5.016  0.00  0.00    -0.000 A 
ATOM      6  C   UNL     1      -1.575   7.656  -4.419  0.00  0.00    -0.000 A 
ATOM      7  C   UNL     1      -0.726   4.983  -7.562  0.00  0.00    +0.028 C 
ATOM      8  C   UNL     1      -0.290   7.241  -4.744  0.00  0.00    -0.003 A 
ATOM      9  C   UNL     1       0.536   5.687  -8.022  0.00  0.00    +0.027 C 
ENDROOT
BRANCH   1  10
ATOM     10  N   UNL     1       1.851   7.256  -6.884  0.00  0.00    -0.201 NA
BRANCH  10  11
ATOM     11  C   UNL     1       3.230   6.851  -6.886  0.00  0.00    +0.165 C 
BRANCH  11  13
ATOM     12  C   UNL     1       4.342   7.379  -4.646  0.00  0.00    -0.013 C 
ATOM     13  C   UNL     1       3.732   6.898  -5.500  0.00  0.00    -0.059 C 
ENDBRANCH  11  13
ENDBRANCH  10  11
ENDBRANCH   1  10
TORSDOF 3
ENDMDL
MODEL 3
REMARK VINA RESULT:      -5.6      2.560      4.805
REMARK  Name = 
REMARK  3 active torsions:
REMARK  status: ('A' for Active; 'I' for Inactive)
REMARK    1  A    between atoms: C_2  and  C_3
REMARK    2  A    between atoms: C_3  and  N_4
REMARK    3  A    between atoms: N_4  and  C_5
REMARK                            x       y       z     vdW  Elec       q    Type
REMARK                         _______ _______ _______ _____ _____    ______ ____
ROOT
ATOM      1  C   UNL     1       6.501   6.246 -11.810  0.00  0.00    +0.096 C 
ATOM      2  C   UNL     1       5.521   5.487 -10.747  0.00  0.00    -0.010 A 
ATOM      3  C   UNL     1       6.100   5.808  -9.532  0.00  0.00    -0.025 A 
ATOM      4  C   UNL     1       5.461   5.269  -8.422  0.00  0.00    -0.005 A 
ATOM      5  C   UNL     1       4.118   4.917  -8.502  0.00  0.00    -0.000 A 
ATOM      6  C   UNL     1       3.479   4.984  -9.737  0.00  0.00    -0.000 A 
ATOM      7  C   UNL     1       7.571   5.986  -9.738  0.00  0.00    +0.028 C 
ATOM      8  C   UNL     1       4.135   5.523 -10.836  0.00  0.00    -0.003 A 
ATOM      9  C   UNL     1       7.843   5.512 -11.152  0.00  0.00    +0.027 C 
ENDROOT
BRANCH   1  10
ATOM     10  N   UNL     1       6.323   5.075 -12.880  0.00  0.00    -0.201 NA
BRANCH  10  11
ATOM     11  C   UNL     1       7.167   5.579 -13.928  0.00  0.00    +0.165 C 
BRANCH  11  13
ATOM     12  C   UNL     1       6.399   7.547 -15.366  0.00  0.00    -0.013 C 
ATOM     13  C   UNL     1       6.504   6.743 -14.544  0.00  0.00    -0.059 C 
ENDBRANCH  11  13
ENDBRANCH  10  11
ENDBRANCH   1  10
TORSDOF 3
ENDMDL
MODEL 4
REMARK VINA RESULT:      -5.6      6.567      8.983
REMARK  Name = 
REMARK  3 active torsions:
REMARK  status: ('A' for Active; 'I' for Inactive)
REMARK    1  A    between atoms: C_2  and  C_3
REMARK    2  A    between atoms: C_3  and  N_4
REMARK    3  A    between atoms: N_4  and  C_5
REMARK                            x       y       z     vdW  Elec       q    Type
REMARK                         _______ _______ _______ _____ _____    ______ ____
ROOT
ATOM      1  C   UNL     1      -0.913   6.200  -2.560  0.00  0.00    +0.096 C 
ATOM      2  C   UNL     1      -0.947   5.583  -4.072  0.00  0.00    -0.010 A 
ATOM      3  C   UNL     1      -2.121   6.111  -4.578  0.00  0.00    -0.025 A 
ATOM      4  C   UNL     1      -2.415   5.731  -5.882  0.00  0.00    -0.005 A 
ATOM      5  C   UNL     1      -1.390   5.324  -6.730  0.00  0.00    -0.000 A 
ATOM      6  C   UNL     1      -0.108   5.175  -6.211  0.00  0.00    -0.000 A 
ATOM      7  C   UNL     1      -3.082   6.305  -3.449  0.00  0.00    +0.028 C 
ATOM      8  C   UNL     1       0.166   5.557  -4.903  0.00  0.00    -0.003 A 
ATOM      9  C   UNL     1      -2.445   5.625  -2.253  0.00  0.00    +0.027 C 
ENDROOT
BRANCH   1  10
ATOM     10  N   UNL     1      -0.244   4.870  -1.984  0.00  0.00    -0.201 NA
BRANCH  10  11
ATOM     11  C   UNL     1       0.662   5.451  -1.032  0.00  0.00    +0.165 C 
BRANCH  11  13
ATOM     12  C   UNL     1       3.129   4.810  -1.216  0.00  0.00    -0.013 C 
ATOM     13  C   UNL     1       2.042   5.126  -1.440  0.00  0.00    -0.059 C 
ENDBRANCH  11  13
ENDBRANCH  10  11
ENDBRANCH   1  10
TORSDOF 3
ENDMDL
MODEL 5
REMARK VINA RESULT:      -5.5      2.705      4.039
REMARK  Name = 
REMARK  3 active torsions:
REMARK  status: ('A' for Active; 'I' for Inactive)
REMARK    1  A    between atoms: C_2  and  C_3
REMARK    2  A    between atoms: C_3  and  N_4
REMARK    3  A    between atoms: N_4  and  C_5
REMARK                            x       y       z     vdW  Elec       q    Type
REMARK                         _______ _______ _______ _____ _____    ______ ____
ROOT
ATOM      1  C   UNL     1       6.160   6.263 -12.868  0.00  0.00    +0.096 C 
ATOM      2  C   UNL     1       6.039   5.672 -11.350  0.00  0.00    -0.010 A 
ATOM      3  C   UNL     1       7.253   6.035 -10.796  0.00  0.00    -0.025 A 
ATOM      4  C   UNL     1       7.432   5.638  -9.476  0.00  0.00    -0.005 A 
ATOM      5  C   UNL     1       6.324   5.396  -8.672  0.00  0.00    -0.000 A 
ATOM      6  C   UNL     1       5.057   5.424  -9.248  0.00  0.00    -0.000 A 
ATOM      7  C   UNL     1       8.281   6.069 -11.882  0.00  0.00    +0.028 C 
ATOM      8  C   UNL     1       4.899   5.820 -10.570  0.00  0.00    -0.003 A 
ATOM      9  C   UNL     1       7.605   5.468 -13.099  0.00  0.00    +0.027 C 
ENDROOT
BRANCH   1  10
ATOM     10  N   UNL     1       5.332   5.033 -13.461  0.00  0.00    -0.201 NA
BRANCH  10  11
ATOM     11  C   UNL     1       4.375   5.751 -14.257  0.00  0.00    +0.165 C 
BRANCH  11  13
ATOM     12  C   UNL     1       2.111   5.629 -13.079  0.00  0.00    -0.013 C 
ATOM     13  C   UNL     1       3.023   5.437 -13.760  0.00  0.00    -0.059 C 
ENDBRANCH  11  13
ENDBRANCH  10  11
ENDBRANCH   1  10
TORSDOF 3
ENDMDL
MODEL 6
REMARK VINA RESULT:      -5.3      1.967      2.277
REMARK  Name = 
REMARK  3 active torsions:
REMARK  status: ('A' for Active; 'I' for Inactive)
REMARK    1  A    between atoms: C_2  and  C_3
REMARK    2  A    between atoms: C_3  and  N_4
REMARK    3  A    between atoms: N_4  and  C_5
REMARK                            x       y       z     vdW  Elec       q    Type
REMARK                         _______ _______ _______ _____ _____    ______ ____
ROOT
ATOM      1  C   UNL     1       4.516   5.313 -10.899  0.00  0.00    +0.096 C 
ATOM      2  C   UNL     1       5.837   5.790 -11.732  0.00  0.00    -0.010 A 
ATOM      3  C   UNL     1       6.854   5.571 -10.820  0.00  0.00    -0.025 A 
ATOM      4  C   UNL     1       8.123   5.912 -11.272  0.00  0.00    -0.005 A 
ATOM      5  C   UNL     1       8.383   5.947 -12.638  0.00  0.00    -0.000 A 
ATOM      6  C   UNL     1       7.327   5.774 -13.527  0.00  0.00    -0.000 A 
ATOM      7  C   UNL     1       6.303   5.746  -9.440  0.00  0.00    +0.028 C 
ATOM      8  C   UNL     1       6.063   5.438 -13.056  0.00  0.00    -0.003 A 
ATOM      9  C   UNL     1       4.910   6.315  -9.629  0.00  0.00    +0.027 C 
ENDROOT
BRANCH   1  10
ATOM     10  N   UNL     1       3.620   6.446 -11.580  0.00  0.00    -0.201 NA
BRANCH  10  11
ATOM     11  C   UNL     1       2.408   5.702 -11.784  0.00  0.00    +0.165 C 
BRANCH  11  13
ATOM     12  C   UNL     1       0.296   6.851 -10.917  0.00  0.00    -0.013 C 
ATOM     13  C   UNL     1       1.329   6.344 -11.010  0.00  0.00    -0.059 C 
ENDBRANCH  11  13
ENDBRANCH  10  11
ENDBRANCH   1  10
TORSDOF 3
ENDMDL
MODEL 7
REMARK VINA RESULT:      -5.3      2.861      6.516
REMARK  Name = 
REMARK  3 active torsions:
REMARK  status: ('A' for Active; 'I' for Inactive)
REMARK    1  A    between atoms: C_2  and  C_3
REMARK    2  A    between atoms: C_3  and  N_4
REMARK    3  A    between atoms: N_4  and  C_5
REMARK                            x       y       z     vdW  Elec       q    Type
REMARK                         _______ _______ _______ _____ _____    ______ ____
ROOT
ATOM      1  C   UNL     1       1.901   5.318  -7.552  0.00  0.00    +0.096 C 
ATOM      2  C   UNL     1       0.660   5.706  -6.563  0.00  0.00    -0.010 A 
ATOM      3  C   UNL     1      -0.442   5.360  -7.325  0.00  0.00    -0.025 A 
ATOM      4  C   UNL     1      -1.668   5.602  -6.718  0.00  0.00    -0.005 A 
ATOM      5  C   UNL     1      -1.750   5.667  -5.331  0.00  0.00    -0.000 A 
ATOM      6  C   UNL     1      -0.576   5.626  -4.586  0.00  0.00    -0.000 A 
ATOM      7  C   UNL     1      -0.094   5.529  -8.770  0.00  0.00    +0.028 C 
ATOM      8  C   UNL     1       0.642   5.387  -5.211  0.00  0.00    -0.003 A 
ATOM      9  C   UNL     1       1.251   6.229  -8.784  0.00  0.00    +0.027 C 
ENDROOT
BRANCH   1  10
ATOM     10  N   UNL     1       2.765   6.553  -7.026  0.00  0.00    -0.201 NA
BRANCH  10  11
ATOM     11  C   UNL     1       3.949   5.854  -6.606  0.00  0.00    +0.165 C 
BRANCH  11  13
ATOM     12  C   UNL     1       5.497   5.307  -8.565  0.00  0.00    -0.013 C 
ATOM     13  C   UNL     1       4.629   5.326  -7.803  0.00  0.00    -0.059 C 
ENDBRANCH  11  13
ENDBRANCH  10  11
ENDBRANCH   1  10
TORSDOF 3
ENDMDL
MODEL 8
REMARK VINA RESULT:      -5.3      2.102      3.674
REMARK  Name = 
REMARK  3 active torsions:
REMARK  status: ('A' for Active; 'I' for Inactive)
REMARK    1  A    between atoms: C_2  and  C_3
REMARK    2  A    between atoms: C_3  and  N_4
REMARK    3  A    between atoms: N_4  and  C_5
REMARK                            x       y       z     vdW  Elec       q    Type
REMARK                         _______ _______ _______ _____ _____    ______ ____
ROOT
ATOM      1  C   UNL     1       4.538   6.327 -11.739  0.00  0.00    +0.096 C 
ATOM      2  C   UNL     1       6.110   5.889 -11.697  0.00  0.00    -0.010 A 
ATOM      3  C   UNL     1       6.511   6.108 -13.003  0.00  0.00    -0.025 A 
ATOM      4  C   UNL     1       7.840   5.799 -13.264  0.00  0.00    -0.005 A 
ATOM      5  C   UNL     1       8.765   5.796 -12.224  0.00  0.00    -0.000 A 
ATOM      6  C   UNL     1       8.309   5.967 -10.921  0.00  0.00    -0.000 A 
ATOM      7  C   UNL     1       5.335   5.897 -13.904  0.00  0.00    +0.028 C 
ATOM      8  C   UNL     1       6.975   6.271 -10.680  0.00  0.00    -0.003 A 
ATOM      9  C   UNL     1       4.251   5.307 -13.023  0.00  0.00    +0.027 C 
ENDROOT
BRANCH   1  10
ATOM     10  N   UNL     1       4.147   5.191 -10.686  0.00  0.00    -0.201 NA
BRANCH  10  11
ATOM     11  C   UNL     1       3.445   5.992  -9.721  0.00  0.00    +0.165 C 
BRANCH  11  13
ATOM     12  C   UNL     1       4.786   5.446  -7.615  0.00  0.00    -0.013 C 
ATOM     13  C   UNL     1       3.941   5.646  -8.376  0.00  0.00    -0.059 C 
ENDBRANCH  11  13
ENDBRANCH  10  11
ENDBRANCH   1  10
TORSDOF 3
ENDMDL
MODEL 9
REMARK VINA RESULT:      -5.3      5.240      7.720
REMARK  Name = 
REMARK  3 active torsions:
REMARK  status: ('A' for Active; 'I' for Inactive)
REMARK    1  A    between atoms: C_2  and  C_3
REMARK    2  A    between atoms: C_3  and  N_4
REMARK    3  A    between atoms: N_4  and  C_5
REMARK                            x       y       z     vdW  Elec       q    Type
REMARK                         _______ _______ _______ _____ _____    ______ ____
ROOT
ATOM      1  C   UNL     1       1.263   6.507  -4.254  0.00  0.00    +0.096 C 
ATOM      2  C   UNL     1       0.064   5.835  -5.136  0.00  0.00    -0.010 A 
ATOM      3  C   UNL     1      -1.066   6.219  -4.436  0.00  0.00    -0.025 A 
ATOM      4  C   UNL     1      -2.265   5.762  -4.970  0.00  0.00    -0.005 A 
ATOM      5  C   UNL     1      -2.337   5.433  -6.320  0.00  0.00    -0.000 A 
ATOM      6  C   UNL     1      -1.169   5.437  -7.076  0.00  0.00    -0.000 A 
ATOM      7  C   UNL     1      -0.708   6.353  -2.990  0.00  0.00    +0.028 C 
ATOM      8  C   UNL     1       0.021   5.894  -6.523  0.00  0.00    -0.003 A 
ATOM      9  C   UNL     1       0.693   5.788  -2.865  0.00  0.00    +0.027 C 
ENDROOT
BRANCH   1  10
ATOM     10  N   UNL     1       2.235   5.276  -4.553  0.00  0.00    -0.201 NA
BRANCH  10  11
ATOM     11  C   UNL     1       3.349   5.645  -3.724  0.00  0.00    +0.165 C 
BRANCH  11  13
ATOM     12  C   UNL     1       4.851   7.609  -4.369  0.00  0.00    -0.013 C 
ATOM     13  C   UNL     1       4.022   6.806  -4.334  0.00  0.00    -0.059 C 
ENDBRANCH  11  13
ENDBRANCH  10  11
ENDBRANCH   1  10
TORSDOF 3
ENDMDL
