MODEL 1
REMARK VINA RESULT:      -7.5      0.000      0.000
REMARK  Name = 
REMARK  3 active torsions:
REMARK  status: ('A' for Active; 'I' for Inactive)
REMARK    1  A    between atoms: C_3  and  C_4
REMARK    2  A    between atoms: C_20  and  C_21
REMARK    3  A    between atoms: C_24  and  N_25
REMARK                            x       y       z     vdW  Elec       q    Type
REMARK                         _______ _______ _______ _____ _____    ______ ____
ROOT
ATOM      1  C   UNL     1       2.463   6.517  -6.358  0.00  0.00    +0.179 C 
ATOM      2  C   UNL     1       2.399   6.376  -7.830  0.00  0.00    +0.037 C 
ATOM      3  C   UNL     1       1.324   5.193  -8.010  0.00  0.00    +0.007 C 
ATOM      4  C   UNL     1       0.606   5.865  -9.397  0.00  0.00    +0.019 C 
ATOM      5  C   UNL     1       1.932   6.010 -10.270  0.00  0.00    -0.045 C 
ATOM      6  C   UNL     1       3.079   4.981  -9.840  0.00  0.00    +0.040 C 
ATOM      7  C   UNL     1       1.618   5.861 -11.560  0.00  0.00    -0.033 C 
ATOM      8  C   UNL     1       0.239   5.585 -11.998  0.00  0.00    -0.024 C 
ATOM      9  C   UNL     1      -0.180   6.383 -12.984  0.00  0.00    +0.033 C 
ATOM     10  C   UNL     1       0.857   7.328 -13.433  0.00  0.00    +0.173 C 
ATOM     11  C   UNL     1       2.270   6.870 -13.619  0.00  0.00    +0.074 C 
ATOM     12  O   UNL     1       0.623   8.565 -13.588  0.00  0.00    -0.291 OA
ATOM     13  C   UNL     1      -0.654   4.770 -11.144  0.00  0.00    +0.026 C 
ATOM     14  C   UNL     1       2.617   5.748 -12.641  0.00  0.00    +0.034 C 
ATOM     15  C   UNL     1       0.216   4.381  -9.946  0.00  0.00    +0.009 C 
ATOM     16  C   UNL     1       0.224   5.888  -7.052  0.00  0.00    +0.004 C 
ATOM     17  C   UNL     1       1.834   7.677  -8.258  0.00  0.00    +0.003 C 
ATOM     18  C   UNL     1       3.538   5.804  -8.493  0.00  0.00    +0.012 C 
ATOM     19  C   UNL     1       0.974   6.788  -6.165  0.00  0.00    +0.043 C 
ATOM     20  O   UNL     1       3.169   7.651  -6.032  0.00  0.00    -0.212 OA
ENDROOT
BRANCH   6  21
ATOM     21  C   UNL     1       4.192   5.687 -10.766  0.00  0.00    -0.019 A 
ATOM     22  C   UNL     1       4.697   6.896 -10.344  0.00  0.00    -0.003 A 
ATOM     23  C   UNL     1       5.823   7.428 -10.962  0.00  0.00    +0.014 A 
ATOM     24  C   UNL     1       6.705   6.517 -11.492  0.00  0.00    +0.048 A 
ATOM     25  C   UNL     1       6.168   5.341 -11.989  0.00  0.00    +0.014 A 
ATOM     26  C   UNL     1       5.152   4.781 -11.217  0.00  0.00    -0.003 A 
BRANCH  24  27
ATOM     27  N   UNL     1       8.108   6.806 -11.560  0.00  0.00    -0.304 N 
ATOM     28  C   UNL     1       8.980   5.977 -12.389  0.00  0.00    +0.112 C 
ATOM     29  C   UNL     1       8.743   7.304 -10.342  0.00  0.00    +0.112 C 
ENDBRANCH  24  27
ENDBRANCH   6  21
BRANCH   1  32
ATOM     30  C   UNL     1       4.693   4.437  -4.028  0.00  0.00    +0.090 C 
ATOM     31  C   UNL     1       3.573   4.705  -4.894  0.00  0.00    -0.088 C 
ATOM     32  C   UNL     1       2.909   5.317  -5.685  0.00  0.00    -0.062 C 
ENDBRANCH   1  32
TORSDOF 3
ENDMDL
MODEL 2
REMARK VINA RESULT:      -7.1      3.734      8.827
REMARK  Name = 
REMARK  3 active torsions:
REMARK  status: ('A' for Active; 'I' for Inactive)
REMARK    1  A    between atoms: C_3  and  C_4
REMARK    2  A    between atoms: C_20  and  C_21
REMARK    3  A    between atoms: C_24  and  N_25
REMARK                            x       y       z     vdW  Elec       q    Type
REMARK                         _______ _______ _______ _____ _____    ______ ____
ROOT
ATOM      1  C   UNL     1       2.094   6.355  -8.874  0.00  0.00    +0.179 C 
ATOM      2  C   UNL     1       2.219   6.331  -7.398  0.00  0.00    +0.037 C 
ATOM      3  C   UNL     1       3.337   5.197  -7.172  0.00  0.00    +0.007 C 
ATOM      4  C   UNL     1       4.085   5.996  -5.870  0.00  0.00    +0.019 C 
ATOM      5  C   UNL     1       2.789   6.169  -4.958  0.00  0.00    -0.045 C 
ATOM      6  C   UNL     1       1.660   5.076  -5.262  0.00  0.00    +0.040 C 
ATOM      7  C   UNL     1       3.156   6.130  -3.675  0.00  0.00    -0.033 C 
ATOM      8  C   UNL     1       4.560   5.929  -3.272  0.00  0.00    -0.024 C 
ATOM      9  C   UNL     1       4.989   6.813  -2.368  0.00  0.00    +0.033 C 
ATOM     10  C   UNL     1       3.940   7.759  -1.950  0.00  0.00    +0.173 C 
ATOM     11  C   UNL     1       2.550   7.276  -1.674  0.00  0.00    +0.074 C 
ATOM     12  O   UNL     1       4.139   9.010  -1.900  0.00  0.00    -0.291 OA
ATOM     13  C   UNL     1       5.445   5.077  -4.097  0.00  0.00    +0.026 C 
ATOM     14  C   UNL     1       2.203   6.071  -2.548  0.00  0.00    +0.034 C 
ATOM     15  C   UNL     1       4.544   4.571  -5.226  0.00  0.00    +0.009 C 
ATOM     16  C   UNL     1       4.377   5.848  -8.223  0.00  0.00    +0.004 C 
ATOM     17  C   UNL     1       2.757   7.677  -7.095  0.00  0.00    +0.003 C 
ATOM     18  C   UNL     1       1.125   5.779  -6.649  0.00  0.00    +0.012 C 
ATOM     19  C   UNL     1       3.566   6.654  -9.146  0.00  0.00    +0.043 C 
ATOM     20  O   UNL     1       1.341   7.440  -9.257  0.00  0.00    -0.212 OA
ENDROOT
BRANCH   6  21
ATOM     21  C   UNL     1       0.561   5.819  -4.349  0.00  0.00    -0.019 A 
ATOM     22  C   UNL     1      -0.220   6.781  -4.949  0.00  0.00    -0.003 A 
ATOM     23  C   UNL     1      -1.338   7.275  -4.287  0.00  0.00    +0.014 A 
ATOM     24  C   UNL     1      -1.950   6.410  -3.412  0.00  0.00    +0.048 A 
ATOM     25  C   UNL     1      -1.134   5.504  -2.754  0.00  0.00    +0.014 A 
ATOM     26  C   UNL     1      -0.137   4.926  -3.537  0.00  0.00    -0.003 A 
BRANCH  24  27
ATOM     27  N   UNL     1      -3.361   6.485  -3.170  0.00  0.00    -0.304 N 
ATOM     28  C   UNL     1      -3.851   6.818  -1.834  0.00  0.00    +0.112 C 
ATOM     29  C   UNL     1      -4.211   5.544  -3.898  0.00  0.00    +0.112 C 
ENDBRANCH  24  27
ENDBRANCH   6  21
BRANCH   1  32
ATOM     30  C   UNL     1      -0.085   4.052 -11.035  0.00  0.00    +0.090 C 
ATOM     31  C   UNL     1       1.015   4.406 -10.175  0.00  0.00    -0.088 C 
ATOM     32  C   UNL     1       1.663   5.095  -9.435  0.00  0.00    -0.062 C 
ENDBRANCH   1  32
TORSDOF 3
ENDMDL
MODEL 3
REMARK VINA RESULT:      -6.3      3.337      8.071
REMARK  Name = 
REMARK  3 active torsions:
REMARK  status: ('A' for Active; 'I' for Inactive)
REMARK    1  A    between atoms: C_3  and  C_4
REMARK    2  A    between atoms: C_20  and  C_21
REMARK    3  A    between atoms: C_24  and  N_25
REMARK                            x       y       z     vdW  Elec       q    Type
REMARK                         _______ _______ _______ _____ _____    ______ ____
ROOT
ATOM      1  C   UNL     1       0.912   6.582 -10.338  0.00  0.00    +0.179 C 
ATOM      2  C   UNL     1       1.465   6.451  -8.971  0.00  0.00    +0.037 C 
ATOM      3  C   UNL     1       2.564   5.291  -9.162  0.00  0.00    +0.007 C 
ATOM      4  C   UNL     1       3.688   5.986  -8.091  0.00  0.00    +0.019 C 
ATOM      5  C   UNL     1       2.725   6.107  -6.827  0.00  0.00    -0.045 C 
ATOM      6  C   UNL     1       1.523   5.052  -6.853  0.00  0.00    +0.040 C 
ATOM      7  C   UNL     1       3.453   5.972  -5.715  0.00  0.00    -0.033 C 
ATOM      8  C   UNL     1       4.906   5.727  -5.761  0.00  0.00    -0.024 C 
ATOM      9  C   UNL     1       5.611   6.539  -4.969  0.00  0.00    +0.033 C 
ATOM     10  C   UNL     1       4.762   7.464  -4.198  0.00  0.00    +0.173 C 
ATOM     11  C   UNL     1       3.501   6.977  -3.554  0.00  0.00    +0.074 C 
ATOM     12  O   UNL     1       5.007   8.706  -4.128  0.00  0.00    -0.291 OA
ATOM     13  C   UNL     1       5.481   4.927  -6.866  0.00  0.00    +0.026 C 
ATOM     14  C   UNL     1       2.874   5.843  -4.363  0.00  0.00    +0.034 C 
ATOM     15  C   UNL     1       4.271   4.513  -7.706  0.00  0.00    +0.009 C 
ATOM     16  C   UNL     1       3.268   6.005 -10.430  0.00  0.00    +0.004 C 
ATOM     17  C   UNL     1       2.112   7.766  -8.754  0.00  0.00    +0.003 C 
ATOM     18  C   UNL     1       0.625   5.858  -7.969  0.00  0.00    +0.012 C 
ATOM     19  C   UNL     1       2.246   6.884 -11.015  0.00  0.00    +0.043 C 
ATOM     20  O   UNL     1       0.114   7.700 -10.409  0.00  0.00    -0.212 OA
ENDROOT
BRANCH   6  21
ATOM     21  C   UNL     1       0.766   5.738  -5.608  0.00  0.00    -0.019 A 
ATOM     22  C   UNL     1      -0.087   6.785  -5.880  0.00  0.00    -0.003 A 
ATOM     23  C   UNL     1      -0.946   7.250  -4.892  0.00  0.00    +0.014 A 
ATOM     24  C   UNL     1      -1.348   6.324  -3.958  0.00  0.00    +0.048 A 
ATOM     25  C   UNL     1      -0.442   5.327  -3.636  0.00  0.00    +0.014 A 
ATOM     26  C   UNL     1       0.263   4.795  -4.714  0.00  0.00    -0.003 A 
BRANCH  24  27
ATOM     27  N   UNL     1      -2.630   6.427  -3.326  0.00  0.00    -0.304 N 
ATOM     28  C   UNL     1      -2.743   7.058  -2.013  0.00  0.00    +0.112 C 
ATOM     29  C   UNL     1      -3.565   5.324  -3.538  0.00  0.00    +0.112 C 
ENDBRANCH  24  27
ENDBRANCH   6  21
BRANCH   1  32
ATOM     30  C   UNL     1       0.051   3.902 -12.946  0.00  0.00    +0.090 C 
ATOM     31  C   UNL     1       0.101   4.507 -11.640  0.00  0.00    -0.088 C 
ATOM     32  C   UNL     1       0.294   5.370 -10.828  0.00  0.00    -0.062 C 
ENDBRANCH   1  32
TORSDOF 3
ENDMDL
MODEL 4
REMARK VINA RESULT:      -6.3      1.614      2.619
REMARK  Name = 
REMARK  3 active torsions:
REMARK  status: ('A' for Active; 'I' for Inactive)
REMARK    1  A    between atoms: C_3  and  C_4
REMARK    2  A    between atoms: C_20  and  C_21
REMARK    3  A    between atoms: C_24  and  N_25
REMARK                            x       y       z     vdW  Elec       q    Type
REMARK                         _______ _______ _______ _____ _____    ______ ____
ROOT
ATOM      1  C   UNL     1       3.763   6.921  -4.322  0.00  0.00    +0.179 C 
ATOM      2  C   UNL     1       3.234   6.520  -5.645  0.00  0.00    +0.037 C 
ATOM      3  C   UNL     1       2.123   5.427  -5.247  0.00  0.00    +0.007 C 
ATOM      4  C   UNL     1       1.024   5.896  -6.457  0.00  0.00    +0.019 C 
ATOM      5  C   UNL     1       2.011   5.757  -7.701  0.00  0.00    -0.045 C 
ATOM      6  C   UNL     1       3.204   4.724  -7.441  0.00  0.00    +0.040 C 
ATOM      7  C   UNL     1       1.302   5.404  -8.777  0.00  0.00    -0.033 C 
ATOM      8  C   UNL     1      -0.153   5.179  -8.711  0.00  0.00    -0.024 C 
ATOM      9  C   UNL     1      -0.838   5.818  -9.663  0.00  0.00    +0.033 C 
ATOM     10  C   UNL     1       0.032   6.566 -10.587  0.00  0.00    +0.173 C 
ATOM     11  C   UNL     1       1.300   5.955 -11.096  0.00  0.00    +0.074 C 
ATOM     12  O   UNL     1      -0.202   7.770 -10.911  0.00  0.00    -0.291 OA
ATOM     13  C   UNL     1      -0.755   4.620  -7.479  0.00  0.00    +0.026 C 
ATOM     14  C   UNL     1       1.905   5.004 -10.064  0.00  0.00    +0.034 C 
ATOM     15  C   UNL     1       0.437   4.378  -6.549  0.00  0.00    +0.009 C 
ATOM     16  C   UNL     1       1.402   6.383  -4.162  0.00  0.00    +0.004 C 
ATOM     17  C   UNL     1       2.601   7.767  -6.135  0.00  0.00    +0.003 C 
ATOM     18  C   UNL     1       4.088   5.735  -6.492  0.00  0.00    +0.012 C 
ATOM     19  C   UNL     1       2.419   7.358  -3.745  0.00  0.00    +0.043 C 
ATOM     20  O   UNL     1       4.568   8.027  -4.462  0.00  0.00    -0.212 OA
ENDROOT
BRANCH   6  21
ATOM     21  C   UNL     1       3.989   5.144  -8.783  0.00  0.00    -0.019 A 
ATOM     22  C   UNL     1       3.867   6.447  -9.210  0.00  0.00    -0.003 A 
ATOM     23  C   UNL     1       4.707   6.928 -10.208  0.00  0.00    +0.014 A 
ATOM     24  C   UNL     1       5.949   6.344 -10.283  0.00  0.00    +0.048 A 
ATOM     25  C   UNL     1       6.034   5.007  -9.929  0.00  0.00    +0.014 A 
ATOM     26  C   UNL     1       5.288   4.641  -8.810  0.00  0.00    -0.003 A 
BRANCH  24  27
ATOM     27  N   UNL     1       7.083   7.085 -10.750  0.00  0.00    -0.304 N 
ATOM     28  C   UNL     1       6.896   8.427 -11.299  0.00  0.00    +0.112 C 
ATOM     29  C   UNL     1       8.157   6.326 -11.387  0.00  0.00    +0.112 C 
ENDBRANCH  24  27
ENDBRANCH   6  21
BRANCH   1  32
ATOM     30  C   UNL     1       4.219   4.541  -1.347  0.00  0.00    +0.090 C 
ATOM     31  C   UNL     1       4.436   5.051  -2.676  0.00  0.00    -0.088 C 
ATOM     32  C   UNL     1       4.363   5.830  -3.587  0.00  0.00    -0.062 C 
ENDBRANCH   1  32
TORSDOF 3
ENDMDL
MODEL 5
REMARK VINA RESULT:      -6.0      4.484      7.384
REMARK  Name = 
REMARK  3 active torsions:
REMARK  status: ('A' for Active; 'I' for Inactive)
REMARK    1  A    between atoms: C_3  and  C_4
REMARK    2  A    between atoms: C_20  and  C_21
REMARK    3  A    between atoms: C_24  and  N_25
REMARK                            x       y       z     vdW  Elec       q    Type
REMARK                         _______ _______ _______ _____ _____    ______ ____
ROOT
ATOM      1  C   UNL     1      -1.888   7.395  -4.133  0.00  0.00    +0.179 C 
ATOM      2  C   UNL     1      -0.545   6.859  -4.452  0.00  0.00    +0.037 C 
ATOM      3  C   UNL     1      -0.896   5.424  -5.089  0.00  0.00    +0.007 C 
ATOM      4  C   UNL     1       0.336   5.486  -6.260  0.00  0.00    +0.019 C 
ATOM      5  C   UNL     1       1.555   5.750  -5.267  0.00  0.00    -0.045 C 
ATOM      6  C   UNL     1       1.278   5.223  -3.782  0.00  0.00    +0.040 C 
ATOM      7  C   UNL     1       2.655   5.188  -5.774  0.00  0.00    -0.033 C 
ATOM      8  C   UNL     1       2.632   4.442  -7.045  0.00  0.00    -0.024 C 
ATOM      9  C   UNL     1       3.593   4.807  -7.898  0.00  0.00    +0.033 C 
ATOM     10  C   UNL     1       4.481   5.845  -7.347  0.00  0.00    +0.173 C 
ATOM     11  C   UNL     1       4.965   5.756  -5.933  0.00  0.00    +0.074 C 
ATOM     12  O   UNL     1       4.792   6.886  -8.002  0.00  0.00    -0.291 OA
ATOM     13  C   UNL     1       1.426   3.670  -7.422  0.00  0.00    +0.026 C 
ATOM     14  C   UNL     1       3.931   5.069  -5.041  0.00  0.00    +0.034 C 
ATOM     15  C   UNL     1       0.468   3.862  -6.244  0.00  0.00    +0.009 C 
ATOM     16  C   UNL     1      -1.975   6.021  -6.133  0.00  0.00    +0.004 C 
ATOM     17  C   UNL     1      -0.058   7.797  -5.489  0.00  0.00    +0.003 C 
ATOM     18  C   UNL     1       0.290   6.464  -3.352  0.00  0.00    +0.012 C 
ATOM     19  C   UNL     1      -2.435   7.292  -5.555  0.00  0.00    +0.043 C 
ATOM     20  O   UNL     1      -1.787   8.722  -3.790  0.00  0.00    -0.212 OA
ENDROOT
BRANCH   6  21
ATOM     21  C   UNL     1       2.592   5.934  -3.181  0.00  0.00    -0.019 A 
ATOM     22  C   UNL     1       2.619   7.311  -3.165  0.00  0.00    -0.003 A 
ATOM     23  C   UNL     1       3.604   7.974  -2.442  0.00  0.00    +0.014 A 
ATOM     24  C   UNL     1       4.090   7.312  -1.340  0.00  0.00    +0.048 A 
ATOM     25  C   UNL     1       4.133   5.928  -1.409  0.00  0.00    +0.014 A 
ATOM     26  C   UNL     1       3.023   5.330  -2.002  0.00  0.00    -0.003 A 
BRANCH  24  27
ATOM     27  N   UNL     1       4.567   8.036  -0.199  0.00  0.00    -0.304 N 
ATOM     28  C   UNL     1       5.095   7.308   0.954  0.00  0.00    +0.112 C 
ATOM     29  C   UNL     1       3.862   9.268   0.148  0.00  0.00    +0.112 C 
ENDBRANCH  24  27
ENDBRANCH   6  21
BRANCH   1  32
ATOM     30  C   UNL     1      -2.518   5.637  -0.780  0.00  0.00    +0.090 C 
ATOM     31  C   UNL     1      -2.830   6.105  -2.107  0.00  0.00    -0.088 C 
ATOM     32  C   UNL     1      -2.622   6.583  -3.189  0.00  0.00    -0.062 C 
ENDBRANCH   1  32
TORSDOF 3
ENDMDL
MODEL 6
REMARK VINA RESULT:      -5.9      4.192      8.643
REMARK  Name = 
REMARK  3 active torsions:
REMARK  status: ('A' for Active; 'I' for Inactive)
REMARK    1  A    between atoms: C_3  and  C_4
REMARK    2  A    between atoms: C_20  and  C_21
REMARK    3  A    between atoms: C_24  and  N_25
REMARK                            x       y       z     vdW  Elec       q    Type
REMARK                         _______ _______ _______ _____ _____    ______ ____
ROOT
ATOM      1  C   UNL     1      -2.107   5.787  -2.480  0.00  0.00    +0.179 C 
ATOM      2  C   UNL     1      -0.627   5.828  -2.487  0.00  0.00    +0.037 C 
ATOM      3  C   UNL     1      -0.323   7.158  -1.633  0.00  0.00    +0.007 C 
ATOM      4  C   UNL     1       1.047   6.515  -0.857  0.00  0.00    +0.019 C 
ATOM      5  C   UNL     1       1.850   6.089  -2.166  0.00  0.00    -0.045 C 
ATOM      6  C   UNL     1       1.440   6.941  -3.456  0.00  0.00    +0.040 C 
ATOM      7  C   UNL     1       3.159   6.193  -1.923  0.00  0.00    -0.033 C 
ATOM      8  C   UNL     1       3.674   6.661  -0.624  0.00  0.00    -0.024 C 
ATOM      9  C   UNL     1       4.622   5.874  -0.108  0.00  0.00    +0.033 C 
ATOM     10  C   UNL     1       4.962   4.740  -0.985  0.00  0.00    +0.173 C 
ATOM     11  C   UNL     1       5.116   4.942  -2.461  0.00  0.00    +0.074 C 
ATOM     12  O   UNL     1       5.044   3.551  -0.551  0.00  0.00    -0.291 OA
ATOM     13  C   UNL     1       2.916   7.673   0.145  0.00  0.00    +0.026 C 
ATOM     14  C   UNL     1       4.201   6.059  -2.960  0.00  0.00    +0.034 C 
ATOM     15  C   UNL     1       1.710   7.999  -0.740  0.00  0.00    +0.009 C 
ATOM     16  C   UNL     1      -1.275   6.727  -0.402  0.00  0.00    +0.004 C 
ATOM     17  C   UNL     1      -0.263   4.612  -1.724  0.00  0.00    +0.003 C 
ATOM     18  C   UNL     1       0.022   6.154  -3.726  0.00  0.00    +0.012 C 
ATOM     19  C   UNL     1      -2.253   5.782  -0.960  0.00  0.00    +0.043 C 
ATOM     20  O   UNL     1      -2.539   4.578  -2.973  0.00  0.00    -0.212 OA
ENDROOT
BRANCH   6  21
ATOM     21  C   UNL     1       2.267   5.995  -4.463  0.00  0.00    -0.019 A 
ATOM     22  C   UNL     1       1.662   4.833  -4.886  0.00  0.00    -0.003 A 
ATOM     23  C   UNL     1       2.216   4.107  -5.934  0.00  0.00    +0.014 A 
ATOM     24  C   UNL     1       2.922   4.835  -6.863  0.00  0.00    +0.048 A 
ATOM     25  C   UNL     1       3.594   5.955  -6.401  0.00  0.00    +0.014 A 
ATOM     26  C   UNL     1       2.896   6.723  -5.471  0.00  0.00    -0.003 A 
BRANCH  24  27
ATOM     27  N   UNL     1       2.985   4.415  -8.232  0.00  0.00    -0.304 N 
ATOM     28  C   UNL     1       4.226   4.580  -8.985  0.00  0.00    +0.112 C 
ATOM     29  C   UNL     1       1.775   4.585  -9.035  0.00  0.00    +0.112 C 
ENDBRANCH  24  27
ENDBRANCH   6  21
BRANCH   1  32
ATOM     30  C   UNL     1      -2.177   9.021  -4.544  0.00  0.00    +0.090 C 
ATOM     31  C   UNL     1      -2.726   7.910  -3.810  0.00  0.00    -0.088 C 
ATOM     32  C   UNL     1      -2.718   6.942  -3.099  0.00  0.00    -0.062 C 
ENDBRANCH   1  32
TORSDOF 3
ENDMDL
MODEL 7
REMARK VINA RESULT:      -5.9      2.593      6.156
REMARK  Name = 
REMARK  3 active torsions:
REMARK  status: ('A' for Active; 'I' for Inactive)
REMARK    1  A    between atoms: C_3  and  C_4
REMARK    2  A    between atoms: C_20  and  C_21
REMARK    3  A    between atoms: C_24  and  N_25
REMARK                            x       y       z     vdW  Elec       q    Type
REMARK                         _______ _______ _______ _____ _____    ______ ____
ROOT
ATOM      1  C   UNL     1       6.501   7.350 -11.667  0.00  0.00    +0.179 C 
ATOM      2  C   UNL     1       5.193   6.782 -11.267  0.00  0.00    +0.037 C 
ATOM      3  C   UNL     1       5.630   5.434 -10.505  0.00  0.00    +0.007 C 
ATOM      4  C   UNL     1       4.419   5.546  -9.317  0.00  0.00    +0.019 C 
ATOM      5  C   UNL     1       3.169   5.653 -10.301  0.00  0.00    -0.045 C 
ATOM      6  C   UNL     1       3.445   5.000 -11.735  0.00  0.00    +0.040 C 
ATOM      7  C   UNL     1       2.110   5.088  -9.716  0.00  0.00    -0.033 C 
ATOM      8  C   UNL     1       2.195   4.470  -8.381  0.00  0.00    -0.024 C 
ATOM      9  C   UNL     1       1.234   4.867  -7.543  0.00  0.00    +0.033 C 
ATOM     10  C   UNL     1       0.282   5.802  -8.169  0.00  0.00    +0.173 C 
ATOM     11  C   UNL     1      -0.223   5.554  -9.556  0.00  0.00    +0.074 C 
ATOM     12  O   UNL     1      -0.069   6.884  -7.609  0.00  0.00    -0.291 OA
ATOM     13  C   UNL     1       3.446   3.799  -7.961  0.00  0.00    +0.026 C 
ATOM     14  C   UNL     1       0.828   4.837 -10.403  0.00  0.00    +0.034 C 
ATOM     15  C   UNL     1       4.371   3.923  -9.175  0.00  0.00    +0.009 C 
ATOM     16  C   UNL     1       6.697   6.181  -9.549  0.00  0.00    +0.004 C 
ATOM     17  C   UNL     1       4.678   7.790 -10.312  0.00  0.00    +0.003 C 
ATOM     18  C   UNL     1       4.359   6.242 -12.304  0.00  0.00    +0.012 C 
ATOM     19  C   UNL     1       7.079   7.412 -10.255  0.00  0.00    +0.043 C 
ATOM     20  O   UNL     1       6.325   8.632 -12.133  0.00  0.00    -0.212 OA
ENDROOT
BRANCH   6  21
ATOM     21  C   UNL     1       2.085   5.585 -12.369  0.00  0.00    -0.019 A 
ATOM     22  C   UNL     1       1.863   6.940 -12.261  0.00  0.00    -0.003 A 
ATOM     23  C   UNL     1       0.843   7.533 -12.994  0.00  0.00    +0.014 A 
ATOM     24  C   UNL     1       0.528   6.927 -14.187  0.00  0.00    +0.048 A 
ATOM     25  C   UNL     1       0.678   5.551 -14.249  0.00  0.00    +0.014 A 
ATOM     26  C   UNL     1       1.821   5.051 -13.629  0.00  0.00    -0.003 A 
BRANCH  24  27
ATOM     27  N   UNL     1       0.028   7.693 -15.291  0.00  0.00    -0.304 N 
ATOM     28  C   UNL     1      -0.577   7.010 -16.433  0.00  0.00    +0.112 C 
ATOM     29  C   UNL     1       0.762   8.906 -15.646  0.00  0.00    +0.112 C 
ENDBRANCH  24  27
ENDBRANCH   6  21
BRANCH   1  32
ATOM     30  C   UNL     1       7.395   5.676 -15.002  0.00  0.00    +0.090 C 
ATOM     31  C   UNL     1       7.563   6.036 -13.617  0.00  0.00    -0.088 C 
ATOM     32  C   UNL     1       7.257   6.489 -12.548  0.00  0.00    -0.062 C 
ENDBRANCH   1  32
TORSDOF 3
ENDMDL
MODEL 8
REMARK VINA RESULT:      -4.9      1.537      5.537
REMARK  Name = 
REMARK  3 active torsions:
REMARK  status: ('A' for Active; 'I' for Inactive)
REMARK    1  A    between atoms: C_3  and  C_4
REMARK    2  A    between atoms: C_20  and  C_21
REMARK    3  A    between atoms: C_24  and  N_25
REMARK                            x       y       z     vdW  Elec       q    Type
REMARK                         _______ _______ _______ _____ _____    ______ ____
ROOT
ATOM      1  C   UNL     1       0.610   5.369 -12.002  0.00  0.00    +0.179 C 
ATOM      2  C   UNL     1       1.521   5.632 -10.865  0.00  0.00    +0.037 C 
ATOM      3  C   UNL     1       0.695   6.722 -10.017  0.00  0.00    +0.007 C 
ATOM      4  C   UNL     1       1.171   6.111  -8.503  0.00  0.00    +0.019 C 
ATOM      5  C   UNL     1       2.747   6.168  -8.740  0.00  0.00    -0.045 C 
ATOM      6  C   UNL     1       3.176   7.257  -9.830  0.00  0.00    +0.040 C 
ATOM      7  C   UNL     1       3.351   6.401  -7.572  0.00  0.00    -0.033 C 
ATOM      8  C   UNL     1       2.589   6.585  -6.324  0.00  0.00    -0.024 C 
ATOM      9  C   UNL     1       3.036   5.842  -5.308  0.00  0.00    +0.033 C 
ATOM     10  C   UNL     1       4.220   5.041  -5.664  0.00  0.00    +0.173 C 
ATOM     11  C   UNL     1       5.327   5.643  -6.473  0.00  0.00    +0.074 C 
ATOM     12  O   UNL     1       4.309   3.806  -5.389  0.00  0.00    -0.291 OA
ATOM     13  C   UNL     1       1.259   7.234  -6.365  0.00  0.00    +0.026 C 
ATOM     14  C   UNL     1       4.790   6.702  -7.436  0.00  0.00    +0.034 C 
ATOM     15  C   UNL     1       1.057   7.595  -7.839  0.00  0.00    +0.009 C 
ATOM     16  C   UNL     1      -0.662   5.845  -9.990  0.00  0.00    +0.004 C 
ATOM     17  C   UNL     1       1.554   4.327 -10.164  0.00  0.00    +0.003 C 
ATOM     18  C   UNL     1       2.726   6.364 -11.136  0.00  0.00    +0.012 C 
ATOM     19  C   UNL     1      -0.582   4.944 -11.148  0.00  0.00    +0.043 C 
ATOM     20  O   UNL     1       1.060   4.280 -12.712  0.00  0.00    -0.212 OA
ENDROOT
BRANCH   6  21
ATOM     21  C   UNL     1       4.701   6.743  -9.884  0.00  0.00    -0.019 A 
ATOM     22  C   UNL     1       4.914   5.406 -10.134  0.00  0.00    -0.003 A 
ATOM     23  C   UNL     1       6.193   4.954 -10.435  0.00  0.00    +0.014 A 
ATOM     24  C   UNL     1       7.021   5.860 -11.055  0.00  0.00    +0.048 A 
ATOM     25  C   UNL     1       6.847   7.194 -10.725  0.00  0.00    +0.014 A 
ATOM     26  C   UNL     1       5.522   7.608 -10.606  0.00  0.00    -0.003 A 
BRANCH  24  27
ATOM     27  N   UNL     1       8.040   5.423 -11.963  0.00  0.00    -0.304 N 
ATOM     28  C   UNL     1       9.429   5.820 -11.741  0.00  0.00    +0.112 C 
ATOM     29  C   UNL     1       7.671   5.314 -13.373  0.00  0.00    +0.112 C 
ENDBRANCH  24  27
ENDBRANCH   6  21
BRANCH   1  32
ATOM     30  C   UNL     1       0.914   7.653 -15.070  0.00  0.00    +0.090 C 
ATOM     31  C   UNL     1       0.392   7.200 -13.806  0.00  0.00    -0.088 C 
ATOM     32  C   UNL     1       0.338   6.540 -12.805  0.00  0.00    -0.062 C 
ENDBRANCH   1  32
TORSDOF 3
ENDMDL
MODEL 9
REMARK VINA RESULT:      -4.8      6.449     11.108
REMARK  Name = 
REMARK  3 active torsions:
REMARK  status: ('A' for Active; 'I' for Inactive)
REMARK    1  A    between atoms: C_3  and  C_4
REMARK    2  A    between atoms: C_20  and  C_21
REMARK    3  A    between atoms: C_24  and  N_25
REMARK                            x       y       z     vdW  Elec       q    Type
REMARK                         _______ _______ _______ _____ _____    ______ ____
ROOT
ATOM      1  C   UNL     1      -1.529   6.706  -0.527  0.00  0.00    +0.179 C 
ATOM      2  C   UNL     1      -0.155   7.080  -0.120  0.00  0.00    +0.037 C 
ATOM      3  C   UNL     1      -0.377   8.543   0.512  0.00  0.00    +0.007 C 
ATOM      4  C   UNL     1       0.764   8.333   1.755  0.00  0.00    +0.019 C 
ATOM      5  C   UNL     1       2.004   7.934   0.835  0.00  0.00    -0.045 C 
ATOM      6  C   UNL     1       1.883   8.497  -0.657  0.00  0.00    +0.040 C 
ATOM      7  C   UNL     1       3.128   8.362   1.416  0.00  0.00    -0.033 C 
ATOM      8  C   UNL     1       3.113   9.100   2.692  0.00  0.00    -0.024 C 
ATOM      9  C   UNL     1       3.969   8.621   3.598  0.00  0.00    +0.033 C 
ATOM     10  C   UNL     1       4.764   7.490   3.090  0.00  0.00    +0.173 C 
ATOM     11  C   UNL     1       5.342   7.528   1.709  0.00  0.00    +0.074 C 
ATOM     12  O   UNL     1       4.911   6.417   3.750  0.00  0.00    -0.291 OA
ATOM     13  C   UNL     1       1.983  10.004   3.003  0.00  0.00    +0.026 C 
ATOM     14  C   UNL     1       4.452   8.335   0.764  0.00  0.00    +0.034 C 
ATOM     15  C   UNL     1       1.084   9.931   1.766  0.00  0.00    +0.009 C 
ATOM     16  C   UNL     1      -1.581   8.071   1.480  0.00  0.00    +0.004 C 
ATOM     17  C   UNL     1       0.154   6.087   0.934  0.00  0.00    +0.003 C 
ATOM     18  C   UNL     1       0.786   7.381  -1.162  0.00  0.00    +0.012 C 
ATOM     19  C   UNL     1      -2.148   6.865   0.860  0.00  0.00    +0.043 C 
ATOM     20  O   UNL     1      -1.562   5.378  -0.879  0.00  0.00    -0.212 OA
ENDROOT
BRANCH   6  21
ATOM     21  C   UNL     1       3.140   7.640  -1.185  0.00  0.00    -0.019 A 
ATOM     22  C   UNL     1       2.966   6.283  -1.338  0.00  0.00    -0.003 A 
ATOM     23  C   UNL     1       3.922   5.536  -2.016  0.00  0.00    +0.014 A 
ATOM     24  C   UNL     1       4.630   6.204  -2.988  0.00  0.00    +0.048 A 
ATOM     25  C   UNL     1       4.868   7.552  -2.774  0.00  0.00    +0.014 A 
ATOM     26  C   UNL     1       3.795   8.266  -2.244  0.00  0.00    -0.003 A 
BRANCH  24  27
ATOM     27  N   UNL     1       5.129   5.512  -4.140  0.00  0.00    -0.304 N 
ATOM     28  C   UNL     1       4.921   6.077  -5.471  0.00  0.00    +0.112 C 
ATOM     29  C   UNL     1       5.099   4.051  -4.102  0.00  0.00    +0.112 C 
ENDBRANCH  24  27
ENDBRANCH   6  21
BRANCH   1  32
ATOM     30  C   UNL     1      -2.017   8.227  -4.016  0.00  0.00    +0.090 C 
ATOM     31  C   UNL     1      -2.292   8.010  -2.618  0.00  0.00    -0.088 C 
ATOM     32  C   UNL     1      -2.104   7.602  -1.505  0.00  0.00    -0.062 C 
ENDBRANCH   1  32
TORSDOF 3
ENDMDL
