MODEL 1
REMARK VINA RESULT:      -8.7      0.000      0.000
REMARK  Name = 
REMARK  1 active torsions:
REMARK  status: ('A' for Active; 'I' for Inactive)
REMARK    1  A    between atoms: C_5  and  C_6
REMARK                            x       y       z     vdW  Elec       q    Type
REMARK                         _______ _______ _______ _____ _____    ______ ____
ROOT
ATOM      1  C   UNL     1       4.202   5.414  -9.802  0.00  0.00    -0.001 C 
ATOM      2  C   UNL     1       3.142   5.878  -9.136  0.00  0.00    +0.012 C 
ATOM      3  C   UNL     1       3.473   5.891  -7.555  0.00  0.00    +0.026 C 
ATOM      4  C   UNL     1       2.061   5.160  -7.121  0.00  0.00    +0.010 C 
ATOM      5  C   UNL     1       1.133   5.844  -8.058  0.00  0.00    +0.055 C 
ATOM      6  C   UNL     1       1.482   7.271  -7.894  0.00  0.00    +0.008 C 
ATOM      7  C   UNL     1      -0.251   5.430  -7.896  0.00  0.00    +0.008 C 
ATOM      8  C   UNL     1       2.311   3.715  -7.435  0.00  0.00    +0.001 C 
ATOM      9  C   UNL     1       1.853   5.462  -5.681  0.00  0.00    +0.001 C 
ATOM     10  C   UNL     1       2.842   7.396  -7.332  0.00  0.00    +0.005 C 
ATOM     11  C   UNL     1       1.817   5.388  -9.304  0.00  0.00    +0.168 C 
ATOM     12  O   UNL     1       1.288   4.679 -10.194  0.00  0.00    -0.292 OA
ENDROOT
BRANCH   1  17
ATOM     13  C   UNL     1       8.489   5.791 -12.499  0.00  0.00    +0.031 C 
ATOM     14  C   UNL     1       7.796   6.366 -11.341  0.00  0.00    -0.022 A 
ATOM     15  C   UNL     1       7.754   5.721 -10.108  0.00  0.00    -0.004 A 
ATOM     16  C   UNL     1       6.573   5.685  -9.373  0.00  0.00    -0.000 A 
ATOM     17  C   UNL     1       5.397   6.267  -9.843  0.00  0.00    -0.000 A 
ATOM     18  C   UNL     1       5.615   7.228 -10.809  0.00  0.00    -0.000 A 
ATOM     19  C   UNL     1       6.835   7.364 -11.468  0.00  0.00    -0.004 A 
ENDBRANCH   1  17
TORSDOF 1
ENDMDL
MODEL 2
REMARK VINA RESULT:      -8.5      3.707      7.798
REMARK  Name = 
REMARK  1 active torsions:
REMARK  status: ('A' for Active; 'I' for Inactive)
REMARK    1  A    between atoms: C_5  and  C_6
REMARK                            x       y       z     vdW  Elec       q    Type
REMARK                         _______ _______ _______ _____ _____    ______ ____
ROOT
ATOM      1  C   UNL     1      -1.532   6.671  -6.197  0.00  0.00    -0.001 C 
ATOM      2  C   UNL     1      -0.433   5.913  -6.196  0.00  0.00    +0.012 C 
ATOM      3  C   UNL     1       0.691   6.607  -5.266  0.00  0.00    +0.026 C 
ATOM      4  C   UNL     1       1.896   6.445  -6.376  0.00  0.00    +0.010 C 
ATOM      5  C   UNL     1       1.576   5.089  -6.891  0.00  0.00    +0.055 C 
ATOM      6  C   UNL     1       1.394   4.297  -5.656  0.00  0.00    +0.008 C 
ATOM      7  C   UNL     1       2.515   4.624  -7.899  0.00  0.00    +0.008 C 
ATOM      8  C   UNL     1       1.625   7.560  -7.343  0.00  0.00    +0.001 C 
ATOM      9  C   UNL     1       3.177   6.561  -5.631  0.00  0.00    +0.001 C 
ATOM     10  C   UNL     1       1.093   5.193  -4.521  0.00  0.00    +0.005 C 
ATOM     11  C   UNL     1       0.206   5.432  -7.372  0.00  0.00    +0.168 C 
ATOM     12  O   UNL     1      -0.175   5.355  -8.566  0.00  0.00    -0.292 OA
ENDROOT
BRANCH   1  17
ATOM     13  C   UNL     1      -0.826   5.717  -1.259  0.00  0.00    +0.031 C 
ATOM     14  C   UNL     1      -1.856   6.113  -2.225  0.00  0.00    -0.022 A 
ATOM     15  C   UNL     1      -2.467   5.195  -3.074  0.00  0.00    -0.004 A 
ATOM     16  C   UNL     1      -2.692   5.514  -4.411  0.00  0.00    -0.000 A 
ATOM     17  C   UNL     1      -2.303   6.739  -4.949  0.00  0.00    -0.000 A 
ATOM     18  C   UNL     1      -2.124   7.719  -3.994  0.00  0.00    -0.000 A 
ATOM     19  C   UNL     1      -2.025   7.432  -2.635  0.00  0.00    -0.004 A 
ENDBRANCH   1  17
TORSDOF 1
ENDMDL
MODEL 3
REMARK VINA RESULT:      -8.2      4.326      7.947
REMARK  Name = 
REMARK  1 active torsions:
REMARK  status: ('A' for Active; 'I' for Inactive)
REMARK    1  A    between atoms: C_5  and  C_6
REMARK                            x       y       z     vdW  Elec       q    Type
REMARK                         _______ _______ _______ _____ _____    ______ ____
ROOT
ATOM      1  C   UNL     1      -0.112   5.825  -5.813  0.00  0.00    -0.001 C 
ATOM      2  C   UNL     1       0.905   5.580  -4.984  0.00  0.00    +0.012 C 
ATOM      3  C   UNL     1       1.461   6.979  -4.398  0.00  0.00    +0.026 C 
ATOM      4  C   UNL     1       3.042   6.626  -4.697  0.00  0.00    +0.010 C 
ATOM      5  C   UNL     1       3.050   5.191  -4.315  0.00  0.00    +0.055 C 
ATOM      6  C   UNL     1       2.374   5.191  -3.000  0.00  0.00    +0.008 C 
ATOM      7  C   UNL     1       4.361   4.574  -4.436  0.00  0.00    +0.008 C 
ATOM      8  C   UNL     1       3.179   6.881  -6.170  0.00  0.00    +0.001 C 
ATOM      9  C   UNL     1       3.848   7.525  -3.829  0.00  0.00    +0.001 C 
ATOM     10  C   UNL     1       1.556   6.412  -2.854  0.00  0.00    +0.005 C 
ATOM     11  C   UNL     1       2.025   4.766  -5.312  0.00  0.00    +0.168 C 
ATOM     12  O   UNL     1       2.221   3.935  -6.233  0.00  0.00    -0.292 OA
ENDROOT
BRANCH   1  17
ATOM     13  C   UNL     1      -1.769   7.433  -1.290  0.00  0.00    +0.031 C 
ATOM     14  C   UNL     1      -2.229   7.128  -2.649  0.00  0.00    -0.022 A 
ATOM     15  C   UNL     1      -2.430   5.822  -3.088  0.00  0.00    -0.004 A 
ATOM     16  C   UNL     1      -2.009   5.433  -4.356  0.00  0.00    -0.000 A 
ATOM     17  C   UNL     1      -1.362   6.316  -5.218  0.00  0.00    -0.000 A 
ATOM     18  C   UNL     1      -1.590   7.641  -4.910  0.00  0.00    -0.000 A 
ATOM     19  C   UNL     1      -2.132   8.044  -3.691  0.00  0.00    -0.004 A 
ENDBRANCH   1  17
TORSDOF 1
ENDMDL
MODEL 4
REMARK VINA RESULT:      -8.1      4.187      6.195
REMARK  Name = 
REMARK  1 active torsions:
REMARK  status: ('A' for Active; 'I' for Inactive)
REMARK    1  A    between atoms: C_5  and  C_6
REMARK                            x       y       z     vdW  Elec       q    Type
REMARK                         _______ _______ _______ _____ _____    ______ ____
ROOT
ATOM      1  C   UNL     1       1.070   5.894  -3.946  0.00  0.00    -0.001 C 
ATOM      2  C   UNL     1      -0.205   5.696  -4.292  0.00  0.00    +0.012 C 
ATOM      3  C   UNL     1      -0.707   6.935  -5.200  0.00  0.00    +0.026 C 
ATOM      4  C   UNL     1      -2.105   7.155  -4.356  0.00  0.00    +0.010 C 
ATOM      5  C   UNL     1      -2.478   5.736  -4.124  0.00  0.00    +0.055 C 
ATOM      6  C   UNL     1      -2.336   5.129  -5.464  0.00  0.00    +0.008 C 
ATOM      7  C   UNL     1      -3.735   5.585  -3.408  0.00  0.00    +0.008 C 
ATOM      8  C   UNL     1      -1.653   7.890  -3.129  0.00  0.00    +0.001 C 
ATOM      9  C   UNL     1      -3.019   7.921  -5.244  0.00  0.00    +0.001 C 
ATOM     10  C   UNL     1      -1.446   5.958  -6.302  0.00  0.00    +0.005 C 
ATOM     11  C   UNL     1      -1.241   5.378  -3.371  0.00  0.00    +0.168 C 
ATOM     12  O   UNL     1      -1.217   4.973  -2.183  0.00  0.00    -0.292 OA
ENDROOT
BRANCH   1  17
ATOM     13  C   UNL     1       1.331   6.546  -8.976  0.00  0.00    +0.031 C 
ATOM     14  C   UNL     1       2.125   6.108  -7.823  0.00  0.00    -0.022 A 
ATOM     15  C   UNL     1       1.966   4.850  -7.249  0.00  0.00    -0.004 A 
ATOM     16  C   UNL     1       1.953   4.705  -5.865  0.00  0.00    -0.000 A 
ATOM     17  C   UNL     1       2.078   5.798  -5.011  0.00  0.00    -0.000 A 
ATOM     18  C   UNL     1       2.655   6.896  -5.615  0.00  0.00    -0.000 A 
ATOM     19  C   UNL     1       2.795   7.004  -6.996  0.00  0.00    -0.004 A 
ENDBRANCH   1  17
TORSDOF 1
ENDMDL
MODEL 5
REMARK VINA RESULT:      -8.1      1.572      2.610
REMARK  Name = 
REMARK  1 active torsions:
REMARK  status: ('A' for Active; 'I' for Inactive)
REMARK    1  A    between atoms: C_5  and  C_6
REMARK                            x       y       z     vdW  Elec       q    Type
REMARK                         _______ _______ _______ _____ _____    ______ ____
ROOT
ATOM      1  C   UNL     1       4.798   6.585  -9.204  0.00  0.00    -0.001 C 
ATOM      2  C   UNL     1       3.929   5.676  -8.754  0.00  0.00    +0.012 C 
ATOM      3  C   UNL     1       2.445   6.065  -9.260  0.00  0.00    +0.026 C 
ATOM      4  C   UNL     1       1.749   5.872  -7.780  0.00  0.00    +0.010 C 
ATOM      5  C   UNL     1       2.475   4.659  -7.323  0.00  0.00    +0.055 C 
ATOM      6  C   UNL     1       2.365   3.747  -8.481  0.00  0.00    +0.008 C 
ATOM      7  C   UNL     1       2.046   4.195  -6.013  0.00  0.00    +0.008 C 
ATOM      8  C   UNL     1       2.122   7.133  -7.057  0.00  0.00    +0.001 C 
ATOM      9  C   UNL     1       0.292   5.695  -8.017  0.00  0.00    +0.001 C 
ATOM     10  C   UNL     1       2.083   4.521  -9.707  0.00  0.00    +0.005 C 
ATOM     11  C   UNL     1       3.836   5.265  -7.396  0.00  0.00    +0.168 C 
ATOM     12  O   UNL     1       4.613   5.404  -6.419  0.00  0.00    -0.292 OA
ENDROOT
BRANCH   1  17
ATOM     13  C   UNL     1       8.743   5.904 -12.328  0.00  0.00    +0.031 C 
ATOM     14  C   UNL     1       7.327   6.284 -12.319  0.00  0.00    -0.022 A 
ATOM     15  C   UNL     1       6.902   7.551 -11.932  0.00  0.00    -0.004 A 
ATOM     16  C   UNL     1       5.783   7.700 -11.117  0.00  0.00    -0.000 A 
ATOM     17  C   UNL     1       5.065   6.602 -10.648  0.00  0.00    -0.000 A 
ATOM     18  C   UNL     1       5.261   5.463 -11.401  0.00  0.00    -0.000 A 
ATOM     19  C   UNL     1       6.303   5.342 -12.318  0.00  0.00    -0.004 A 
ENDBRANCH   1  17
TORSDOF 1
ENDMDL
MODEL 6
REMARK VINA RESULT:      -7.9      3.046      6.133
REMARK  Name = 
REMARK  1 active torsions:
REMARK  status: ('A' for Active; 'I' for Inactive)
REMARK    1  A    between atoms: C_5  and  C_6
REMARK                            x       y       z     vdW  Elec       q    Type
REMARK                         _______ _______ _______ _____ _____    ______ ____
ROOT
ATOM      1  C   UNL     1       3.573   7.140  -5.480  0.00  0.00    -0.001 C 
ATOM      2  C   UNL     1       2.632   6.591  -6.251  0.00  0.00    +0.012 C 
ATOM      3  C   UNL     1       3.063   5.079  -6.620  0.00  0.00    +0.026 C 
ATOM      4  C   UNL     1       2.748   5.243  -8.229  0.00  0.00    +0.010 C 
ATOM      5  C   UNL     1       1.500   6.046  -8.154  0.00  0.00    +0.055 C 
ATOM      6  C   UNL     1       0.688   5.312  -7.161  0.00  0.00    +0.008 C 
ATOM      7  C   UNL     1       0.929   6.338  -9.459  0.00  0.00    +0.008 C 
ATOM      8  C   UNL     1       3.943   5.993  -8.739  0.00  0.00    +0.001 C 
ATOM      9  C   UNL     1       2.592   3.868  -8.772  0.00  0.00    +0.001 C 
ATOM     10  C   UNL     1       1.561   4.470  -6.318  0.00  0.00    +0.005 C 
ATOM     11  C   UNL     1       2.108   7.198  -7.426  0.00  0.00    +0.168 C 
ATOM     12  O   UNL     1       2.165   8.374  -7.864  0.00  0.00    -0.292 OA
ENDROOT
BRANCH   1  17
ATOM     13  C   UNL     1       3.600   8.946  -0.734  0.00  0.00    +0.031 C 
ATOM     14  C   UNL     1       3.790   7.712  -1.504  0.00  0.00    -0.022 A 
ATOM     15  C   UNL     1       4.966   7.447  -2.199  0.00  0.00    -0.004 A 
ATOM     16  C   UNL     1       4.919   6.901  -3.479  0.00  0.00    -0.000 A 
ATOM     17  C   UNL     1       3.711   6.621  -4.114  0.00  0.00    -0.000 A 
ATOM     18  C   UNL     1       2.654   6.493  -3.236  0.00  0.00    -0.000 A 
ATOM     19  C   UNL     1       2.724   6.917  -1.911  0.00  0.00    -0.004 A 
ENDBRANCH   1  17
TORSDOF 1
ENDMDL
MODEL 7
REMARK VINA RESULT:      -7.9      1.329      2.099
REMARK  Name = 
REMARK  1 active torsions:
REMARK  status: ('A' for Active; 'I' for Inactive)
REMARK    1  A    between atoms: C_5  and  C_6
REMARK                            x       y       z     vdW  Elec       q    Type
REMARK                         _______ _______ _______ _____ _____    ______ ____
ROOT
ATOM      1  C   UNL     1       3.416   6.439 -11.464  0.00  0.00    -0.001 C 
ATOM      2  C   UNL     1       3.139   6.419 -10.158  0.00  0.00    +0.012 C 
ATOM      3  C   UNL     1       3.653   5.022  -9.528  0.00  0.00    +0.026 C 
ATOM      4  C   UNL     1       2.249   4.719  -8.723  0.00  0.00    +0.010 C 
ATOM      5  C   UNL     1       1.935   6.091  -8.249  0.00  0.00    +0.055 C 
ATOM      6  C   UNL     1       3.215   6.544  -7.664  0.00  0.00    +0.008 C 
ATOM      7  C   UNL     1       0.726   6.157  -7.445  0.00  0.00    +0.008 C 
ATOM      8  C   UNL     1       1.338   4.207  -9.800  0.00  0.00    +0.001 C 
ATOM      9  C   UNL     1       2.576   3.734  -7.659  0.00  0.00    +0.001 C 
ATOM     10  C   UNL     1       4.331   5.748  -8.213  0.00  0.00    +0.005 C 
ATOM     11  C   UNL     1       1.859   6.703  -9.608  0.00  0.00    +0.168 C 
ATOM     12  O   UNL     1       0.837   7.249 -10.092  0.00  0.00    -0.292 OA
ENDROOT
BRANCH   1  17
ATOM     13  C   UNL     1       7.964   5.355  -9.484  0.00  0.00    +0.031 C 
ATOM     14  C   UNL     1       7.329   5.978 -10.649  0.00  0.00    -0.022 A 
ATOM     15  C   UNL     1       6.790   7.261 -10.602  0.00  0.00    -0.004 A 
ATOM     16  C   UNL     1       5.564   7.531 -11.203  0.00  0.00    -0.000 A 
ATOM     17  C   UNL     1       4.829   6.541 -11.851  0.00  0.00    -0.000 A 
ATOM     18  C   UNL     1       5.595   5.458 -12.231  0.00  0.00    -0.000 A 
ATOM     19  C   UNL     1       6.878   5.237 -11.737  0.00  0.00    -0.004 A 
ENDBRANCH   1  17
TORSDOF 1
ENDMDL
MODEL 8
REMARK VINA RESULT:      -7.8      2.966      5.480
REMARK  Name = 
REMARK  1 active torsions:
REMARK  status: ('A' for Active; 'I' for Inactive)
REMARK    1  A    between atoms: C_5  and  C_6
REMARK                            x       y       z     vdW  Elec       q    Type
REMARK                         _______ _______ _______ _____ _____    ______ ____
ROOT
ATOM      1  C   UNL     1       4.720   5.594  -6.280  0.00  0.00    -0.001 C 
ATOM      2  C   UNL     1       3.678   6.186  -6.868  0.00  0.00    +0.012 C 
ATOM      3  C   UNL     1       2.310   5.544  -6.296  0.00  0.00    +0.026 C 
ATOM      4  C   UNL     1       1.637   5.324  -7.783  0.00  0.00    +0.010 C 
ATOM      5  C   UNL     1       2.073   6.584  -8.439  0.00  0.00    +0.055 C 
ATOM      6  C   UNL     1       1.715   7.619  -7.446  0.00  0.00    +0.008 C 
ATOM      7  C   UNL     1       1.590   6.715  -9.804  0.00  0.00    +0.008 C 
ATOM      8  C   UNL     1       2.320   4.088  -8.291  0.00  0.00    +0.001 C 
ATOM      9  C   UNL     1       0.173   5.188  -7.569  0.00  0.00    +0.001 C 
ATOM     10  C   UNL     1       1.582   7.010  -6.107  0.00  0.00    +0.005 C 
ATOM     11  C   UNL     1       3.536   6.338  -8.276  0.00  0.00    +0.168 C 
ATOM     12  O   UNL     1       4.355   6.231  -9.221  0.00  0.00    -0.292 OA
ENDROOT
BRANCH   1  17
ATOM     13  C   UNL     1       1.925   6.540  -2.147  0.00  0.00    +0.031 C 
ATOM     14  C   UNL     1       3.314   6.469  -2.613  0.00  0.00    -0.022 A 
ATOM     15  C   UNL     1       3.898   7.489  -3.358  0.00  0.00    -0.004 A 
ATOM     16  C   UNL     1       4.702   7.188  -4.454  0.00  0.00    -0.000 A 
ATOM     17  C   UNL     1       4.936   5.874  -4.855  0.00  0.00    -0.000 A 
ATOM     18  C   UNL     1       4.708   4.953  -3.854  0.00  0.00    -0.000 A 
ATOM     19  C   UNL     1       4.014   5.269  -2.688  0.00  0.00    -0.004 A 
ENDBRANCH   1  17
TORSDOF 1
ENDMDL
MODEL 9
REMARK VINA RESULT:      -7.7      2.559      7.100
REMARK  Name = 
REMARK  1 active torsions:
REMARK  status: ('A' for Active; 'I' for Inactive)
REMARK    1  A    between atoms: C_5  and  C_6
REMARK                            x       y       z     vdW  Elec       q    Type
REMARK                         _______ _______ _______ _____ _____    ______ ____
ROOT
ATOM      1  C   UNL     1       0.989   6.510  -6.151  0.00  0.00    -0.001 C 
ATOM      2  C   UNL     1       1.446   6.321  -7.391  0.00  0.00    +0.012 C 
ATOM      3  C   UNL     1       2.224   4.907  -7.461  0.00  0.00    +0.026 C 
ATOM      4  C   UNL     1       3.542   5.522  -8.234  0.00  0.00    +0.010 C 
ATOM      5  C   UNL     1       2.863   6.454  -9.172  0.00  0.00    +0.055 C 
ATOM      6  C   UNL     1       1.797   5.618  -9.762  0.00  0.00    +0.008 C 
ATOM      7  C   UNL     1       3.786   7.151 -10.054  0.00  0.00    +0.008 C 
ATOM      8  C   UNL     1       4.306   6.194  -7.132  0.00  0.00    +0.001 C 
ATOM      9  C   UNL     1       4.237   4.371  -8.868  0.00  0.00    +0.001 C 
ATOM     10  C   UNL     1       1.510   4.469  -8.879  0.00  0.00    +0.005 C 
ATOM     11  C   UNL     1       2.209   7.279  -8.115  0.00  0.00    +0.168 C 
ATOM     12  O   UNL     1       2.408   8.506  -7.937  0.00  0.00    -0.292 OA
ENDROOT
BRANCH   1  17
ATOM     13  C   UNL     1      -3.160   6.866  -3.245  0.00  0.00    +0.031 C 
ATOM     14  C   UNL     1      -2.360   5.901  -4.005  0.00  0.00    -0.022 A 
ATOM     15  C   UNL     1      -1.161   5.387  -3.520  0.00  0.00    -0.004 A 
ATOM     16  C   UNL     1      -0.060   5.255  -4.362  0.00  0.00    -0.000 A 
ATOM     17  C   UNL     1      -0.108   5.643  -5.699  0.00  0.00    -0.000 A 
ATOM     18  C   UNL     1      -1.392   5.716  -6.198  0.00  0.00    -0.000 A 
ATOM     19  C   UNL     1      -2.516   5.720  -5.376  0.00  0.00    -0.004 A 
ENDBRANCH   1  17
TORSDOF 1
ENDMDL
