MODEL 1
REMARK VINA RESULT:      -9.0      0.000      0.000
REMARK  Name = 
REMARK  16 active torsions:
REMARK  status: ('A' for Active; 'I' for Inactive)
REMARK    1  A    between atoms: O_2  and  C_3
REMARK    2  A    between atoms: N_5  and  C_6
REMARK    3  A    between atoms: C_6  and  C_7
REMARK    4  A    between atoms: C_6  and  C_63
REMARK    5  A    between atoms: C_13  and  C_14
REMARK    6  A    between atoms: N_16  and  C_17
REMARK    7  A    between atoms: C_20  and  C_21
REMARK    8  A    between atoms: C_24  and  C_25
REMARK    9  A    between atoms: C_28  and  N_29
REMARK   10  A    between atoms: C_30  and  C_32
REMARK   11  A    between atoms: C_37  and  C_39
REMARK   12  A    between atoms: C_39  and  N_40
REMARK   13  A    between atoms: C_39  and  C_45
REMARK   14  A    between atoms: C_41  and  O_43
REMARK   15  A    between atoms: N_50  and  C_51
REMARK   16  A    between atoms: C_54  and  C_55
REMARK                            x       y       z     vdW  Elec       q    Type
REMARK                         _______ _______ _______ _____ _____    ______ ____
ROOT
ATOM      1  C   UNL     1       2.882   5.365  -7.326  0.00  0.00    +0.096 C 
ATOM      2  N   UNL     1       3.272   6.366  -8.466  0.00  0.00    -0.303 N 
ATOM      3  C   UNL     1       2.127   5.943  -9.475  0.00  0.00    +0.096 C 
ATOM      4  C   UNL     1       2.315   4.329  -9.251  0.00  0.00    +0.026 C 
ATOM      5  C   UNL     1       3.426   4.170  -8.304  0.00  0.00    +0.026 C 
ENDROOT
BRANCH   2   6
ATOM      6  C   UNL     1       4.533   6.435  -9.085  0.00  0.00    +0.048 A 
ATOM      7  C   UNL     1       4.787   7.547  -9.880  0.00  0.00    +0.014 A 
ATOM      8  C   UNL     1       5.461   7.448 -11.091  0.00  0.00    -0.003 A 
ATOM      9  C   UNL     1       5.931   6.211 -11.513  0.00  0.00    -0.023 A 
ATOM     10  C   UNL     1       6.218   5.345 -10.466  0.00  0.00    -0.003 A 
ATOM     11  C   UNL     1       5.327   5.338  -9.400  0.00  0.00    +0.014 A 
BRANCH   9  12
ATOM     12  C   UNL     1       6.256   5.918 -12.927  0.00  0.00    +0.019 C 
ATOM     13  C   UNL     1       7.569   5.223 -13.063  0.00  0.00    +0.004 C 
ATOM     14  C   UNL     1       5.215   5.062 -13.605  0.00  0.00    +0.004 C 
ATOM     15  C   UNL     1       6.353   7.202 -13.742  0.00  0.00    +0.004 C 
ENDBRANCH   9  12
ENDBRANCH   2   6
BRANCH   1  19
ATOM     16  C   UNL     1       4.505   6.409  -3.810  0.00  0.00    +0.073 A 
ATOM     17  C   UNL     1       4.450   7.310  -4.871  0.00  0.00    +0.016 A 
ATOM     18  C   UNL     1       4.463   6.864  -6.189  0.00  0.00    -0.001 A 
ATOM     19  C   UNL     1       4.274   5.523  -6.513  0.00  0.00    -0.004 A 
ATOM     20  C   UNL     1       4.402   4.661  -5.435  0.00  0.00    -0.001 A 
ATOM     21  C   UNL     1       4.760   5.093  -4.181  0.00  0.00    +0.016 A 
BRANCH  16  23
ATOM     22  C   UNL     1       4.813   7.797  -1.747  0.00  0.00    +0.264 C 
ATOM     23  N   UNL     1       5.318   6.849  -2.706  0.00  0.00    -0.178 NA
ATOM     24  O   UNL     1       3.740   8.282  -2.048  0.00  0.00    -0.271 OA
BRANCH  22  27
ATOM     25  C   UNL     1       4.098   7.988   1.849  0.00  0.00    +0.246 C 
ATOM     26  N   UNL     1       3.932   8.052   0.456  0.00  0.00    -0.272 N 
ATOM     27  C   UNL     1       5.134   7.311  -0.246  0.00  0.00    +0.154 C 
ATOM     28  C   UNL     1       4.362   5.873  -0.403  0.00  0.00    +0.031 C 
ATOM     29  C   UNL     1       2.953   6.155  -0.352  0.00  0.00    +0.024 C 
ATOM     30  C   UNL     1       2.723   7.578  -0.097  0.00  0.00    +0.094 C 
ATOM     31  O   UNL     1       4.348   6.962   2.512  0.00  0.00    -0.273 OA
BRANCH  25  32
ATOM     32  C   UNL     1       4.456   9.287   2.718  0.00  0.00    +0.175 C 
BRANCH  32  33
ATOM     33  C   UNL     1       3.521  10.276   1.807  0.00  0.00    +0.029 C 
ATOM     34  C   UNL     1       2.581  11.037   2.597  0.00  0.00    +0.002 C 
ATOM     35  C   UNL     1       4.415  11.011   0.872  0.00  0.00    +0.002 C 
ENDBRANCH  32  33
BRANCH  32  37
ATOM     36  C   UNL     1       6.962   9.510   2.717  0.00  0.00    +0.422 C 
ATOM     37  N   UNL     1       5.792   9.595   1.939  0.00  0.00    -0.161 NA
ATOM     38  O   UNL     1       7.077   8.689   3.674  0.00  0.00    -0.225 OA
BRANCH  36  40
ATOM     39  C   UNL     1       8.096  11.441   2.569  0.00  0.00    +0.257 C 
ATOM     40  O   UNL     1       8.056  10.377   2.576  0.00  0.00    -0.429 OA
ENDBRANCH  36  40
ENDBRANCH  32  37
ENDBRANCH  25  32
ENDBRANCH  22  27
ENDBRANCH  16  23
ENDBRANCH   1  19
BRANCH   3  41
ATOM     41  C   UNL     1       0.978   6.144  -8.373  0.00  0.00    -0.004 A 
ATOM     42  C   UNL     1       1.057   7.070  -7.421  0.00  0.00    -0.001 A 
ATOM     43  C   UNL     1       0.077   7.041  -6.435  0.00  0.00    +0.016 A 
ATOM     44  C   UNL     1      -0.783   5.959  -6.269  0.00  0.00    +0.073 A 
ATOM     45  C   UNL     1      -0.980   5.216  -7.428  0.00  0.00    +0.016 A 
ATOM     46  C   UNL     1      -0.134   5.364  -8.519  0.00  0.00    -0.001 A 
BRANCH  44  47
ATOM     47  N   UNL     1      -0.983   5.356  -4.975  0.00  0.00    -0.178 NA
ATOM     48  C   UNL     1      -0.794   6.218  -3.892  0.00  0.00    +0.264 C 
ATOM     49  O   UNL     1       0.139   7.072  -4.012  0.00  0.00    -0.271 OA
BRANCH  48  50
ATOM     50  C   UNL     1      -0.896   5.645  -2.397  0.00  0.00    +0.154 C 
ATOM     51  N   UNL     1      -1.554   6.976  -1.869  0.00  0.00    -0.272 N 
ATOM     52  C   UNL     1      -1.723   6.927  -0.483  0.00  0.00    +0.246 C 
ATOM     53  O   UNL     1      -2.547   6.069  -0.042  0.00  0.00    -0.273 OA
ATOM     54  C   UNL     1      -2.582   7.318  -2.784  0.00  0.00    +0.094 C 
ATOM     55  C   UNL     1      -3.144   6.028  -3.261  0.00  0.00    +0.024 C 
ATOM     56  C   UNL     1      -2.361   4.945  -2.634  0.00  0.00    +0.031 C 
BRANCH  52  57
ATOM     57  C   UNL     1      -1.895   8.309   0.326  0.00  0.00    +0.175 C 
BRANCH  57  58
ATOM     58  N   UNL     1      -2.600   7.535   1.496  0.00  0.00    -0.161 NA
ATOM     59  C   UNL     1      -3.138   8.182   2.576  0.00  0.00    +0.422 C 
ATOM     60  O   UNL     1      -3.793   9.217   2.297  0.00  0.00    -0.225 OA
BRANCH  59  61
ATOM     61  O   UNL     1      -3.350   7.441   3.747  0.00  0.00    -0.429 OA
ATOM     62  C   UNL     1      -3.269   6.046   3.590  0.00  0.00    +0.257 C 
ENDBRANCH  59  61
ENDBRANCH  57  58
BRANCH  57  63
ATOM     63  C   UNL     1      -0.382   8.317   0.960  0.00  0.00    +0.029 C 
ATOM     64  C   UNL     1      -0.075   9.549   1.640  0.00  0.00    +0.002 C 
ATOM     65  C   UNL     1      -0.260   7.031   1.712  0.00  0.00    +0.002 C 
ENDBRANCH  57  63
ENDBRANCH  52  57
ENDBRANCH  48  50
ENDBRANCH  44  47
ENDBRANCH   3  41
TORSDOF 16
ENDMDL
MODEL 2
REMARK VINA RESULT:      -7.9      3.771     10.149
REMARK  Name = 
REMARK  16 active torsions:
REMARK  status: ('A' for Active; 'I' for Inactive)
REMARK    1  A    between atoms: O_2  and  C_3
REMARK    2  A    between atoms: N_5  and  C_6
REMARK    3  A    between atoms: C_6  and  C_7
REMARK    4  A    between atoms: C_6  and  C_63
REMARK    5  A    between atoms: C_13  and  C_14
REMARK    6  A    between atoms: N_16  and  C_17
REMARK    7  A    between atoms: C_20  and  C_21
REMARK    8  A    between atoms: C_24  and  C_25
REMARK    9  A    between atoms: C_28  and  N_29
REMARK   10  A    between atoms: C_30  and  C_32
REMARK   11  A    between atoms: C_37  and  C_39
REMARK   12  A    between atoms: C_39  and  N_40
REMARK   13  A    between atoms: C_39  and  C_45
REMARK   14  A    between atoms: C_41  and  O_43
REMARK   15  A    between atoms: N_50  and  C_51
REMARK   16  A    between atoms: C_54  and  C_55
REMARK                            x       y       z     vdW  Elec       q    Type
REMARK                         _______ _______ _______ _____ _____    ______ ____
ROOT
ATOM      1  C   UNL     1       2.946   6.412  -6.764  0.00  0.00    +0.096 C 
ATOM      2  N   UNL     1       1.945   5.270  -7.150  0.00  0.00    -0.303 N 
ATOM      3  C   UNL     1       1.554   5.848  -8.571  0.00  0.00    +0.096 C 
ATOM      4  C   UNL     1       1.385   7.399  -8.064  0.00  0.00    +0.026 C 
ATOM      5  C   UNL     1       1.641   7.390  -6.618  0.00  0.00    +0.026 C 
ENDROOT
BRANCH   2   6
ATOM      6  C   UNL     1       0.819   4.893  -6.396  0.00  0.00    +0.048 A 
ATOM      7  C   UNL     1      -0.429   5.148  -6.952  0.00  0.00    +0.014 A 
ATOM      8  C   UNL     1      -1.492   5.620  -6.191  0.00  0.00    -0.003 A 
ATOM      9  C   UNL     1      -1.324   5.812  -4.826  0.00  0.00    -0.023 A 
ATOM     10  C   UNL     1      -0.363   4.978  -4.267  0.00  0.00    -0.003 A 
ATOM     11  C   UNL     1       0.792   4.772  -5.011  0.00  0.00    +0.014 A 
BRANCH   9  12
ATOM     12  C   UNL     1      -2.205   6.691  -4.026  0.00  0.00    +0.019 C 
ATOM     13  C   UNL     1      -2.683   7.864  -4.814  0.00  0.00    +0.004 C 
ATOM     14  C   UNL     1      -3.421   5.976  -3.491  0.00  0.00    +0.004 C 
ATOM     15  C   UNL     1      -1.467   7.248  -2.815  0.00  0.00    +0.004 C 
ENDBRANCH   9  12
ENDBRANCH   2   6
BRANCH   1  19
ATOM     16  C   UNL     1       4.499   7.434  -3.211  0.00  0.00    +0.073 A 
ATOM     17  C   UNL     1       5.078   6.432  -3.985  0.00  0.00    +0.016 A 
ATOM     18  C   UNL     1       4.309   5.670  -4.858  0.00  0.00    -0.001 A 
ATOM     19  C   UNL     1       3.005   6.026  -5.192  0.00  0.00    -0.004 A 
ATOM     20  C   UNL     1       2.451   6.979  -4.352  0.00  0.00    -0.001 A 
ATOM     21  C   UNL     1       3.110   7.466  -3.249  0.00  0.00    +0.016 A 
BRANCH  16  23
ATOM     22  C   UNL     1       4.464   8.442  -0.917  0.00  0.00    +0.264 C 
ATOM     23  N   UNL     1       5.026   7.523  -1.873  0.00  0.00    -0.178 NA
ATOM     24  O   UNL     1       3.646   9.207  -1.387  0.00  0.00    -0.271 OA
BRANCH  22  27
ATOM     25  C   UNL     1       2.919   8.445   2.413  0.00  0.00    +0.246 C 
ATOM     26  N   UNL     1       3.149   8.716   1.055  0.00  0.00    -0.272 N 
ATOM     27  C   UNL     1       4.230   7.711   0.500  0.00  0.00    +0.154 C 
ATOM     28  C   UNL     1       3.149   6.627  -0.087  0.00  0.00    +0.031 C 
ATOM     29  C   UNL     1       1.916   7.341  -0.286  0.00  0.00    +0.024 C 
ATOM     30  C   UNL     1       2.043   8.723   0.178  0.00  0.00    +0.094 C 
ATOM     31  O   UNL     1       2.684   7.326   2.910  0.00  0.00    -0.273 OA
BRANCH  25  32
ATOM     32  C   UNL     1       3.393   9.453   3.569  0.00  0.00    +0.175 C 
BRANCH  32  33
ATOM     33  C   UNL     1       2.264  10.577   3.186  0.00  0.00    +0.029 C 
ATOM     34  C   UNL     1       0.940  10.210   3.630  0.00  0.00    +0.002 C 
ATOM     35  C   UNL     1       2.798  11.909   3.583  0.00  0.00    +0.002 C 
ENDBRANCH  32  33
BRANCH  32  37
ATOM     36  C   UNL     1       5.845   9.848   3.170  0.00  0.00    +0.422 C 
ATOM     37  N   UNL     1       4.540  10.103   2.706  0.00  0.00    -0.161 NA
ATOM     38  O   UNL     1       6.155   8.764   3.746  0.00  0.00    -0.225 OA
BRANCH  36  40
ATOM     39  C   UNL     1       7.608  10.987   2.376  0.00  0.00    +0.257 C 
ATOM     40  O   UNL     1       6.884  10.790   3.131  0.00  0.00    -0.429 OA
ENDBRANCH  36  40
ENDBRANCH  32  37
ENDBRANCH  25  32
ENDBRANCH  22  27
ENDBRANCH  16  23
ENDBRANCH   1  19
BRANCH   3  41
ATOM     41  C   UNL     1       3.088   5.974  -9.026  0.00  0.00    -0.004 A 
ATOM     42  C   UNL     1       3.563   7.055  -9.638  0.00  0.00    -0.001 A 
ATOM     43  C   UNL     1       4.864   6.981 -10.121  0.00  0.00    +0.016 A 
ATOM     44  C   UNL     1       5.555   5.778 -10.222  0.00  0.00    +0.073 A 
ATOM     45  C   UNL     1       5.118   4.804  -9.332  0.00  0.00    +0.016 A 
ATOM     46  C   UNL     1       3.905   4.939  -8.671  0.00  0.00    -0.001 A 
BRANCH  44  47
ATOM     47  N   UNL     1       6.225   5.401 -11.442  0.00  0.00    -0.178 NA
ATOM     48  C   UNL     1       5.480   5.606 -12.606  0.00  0.00    +0.264 C 
ATOM     49  O   UNL     1       4.233   5.381 -12.518  0.00  0.00    -0.271 OA
BRANCH  48  50
ATOM     50  C   UNL     1       6.078   5.140 -14.020  0.00  0.00    +0.154 C 
ATOM     51  N   UNL     1       5.539   6.434 -14.740  0.00  0.00    -0.272 N 
ATOM     52  C   UNL     1       5.777   6.370 -16.115  0.00  0.00    +0.246 C 
ATOM     53  O   UNL     1       6.992   6.389 -16.481  0.00  0.00    -0.273 OA
ATOM     54  C   UNL     1       5.892   7.538 -13.922  0.00  0.00    +0.094 C 
ATOM     55  C   UNL     1       7.201   7.186 -13.312  0.00  0.00    +0.024 C 
ATOM     56  C   UNL     1       7.547   5.823 -13.763  0.00  0.00    +0.031 C 
BRANCH  52  57
ATOM     57  C   UNL     1       4.901   7.298 -17.097  0.00  0.00    +0.175 C 
BRANCH  57  58
ATOM     58  N   UNL     1       3.708   7.250 -16.076  0.00  0.00    -0.161 NA
ATOM     59  C   UNL     1       2.459   7.714 -16.393  0.00  0.00    +0.422 C 
ATOM     60  O   UNL     1       2.053   7.390 -17.537  0.00  0.00    -0.225 OA
BRANCH  59  61
ATOM     61  O   UNL     1       1.591   8.036 -15.341  0.00  0.00    -0.429 OA
ATOM     62  C   UNL     1       1.444   7.035 -14.365  0.00  0.00    +0.257 C 
ENDBRANCH  59  61
ENDBRANCH  57  58
BRANCH  57  63
ATOM     63  C   UNL     1       5.547   8.720 -16.598  0.00  0.00    +0.029 C 
ATOM     64  C   UNL     1       6.877   8.932 -17.111  0.00  0.00    +0.002 C 
ATOM     65  C   UNL     1       4.500   9.751 -16.870  0.00  0.00    +0.002 C 
ENDBRANCH  57  63
ENDBRANCH  52  57
ENDBRANCH  48  50
ENDBRANCH  44  47
ENDBRANCH   3  41
TORSDOF 16
ENDMDL
MODEL 3
REMARK VINA RESULT:      -6.9      1.602      2.110
REMARK  Name = 
REMARK  16 active torsions:
REMARK  status: ('A' for Active; 'I' for Inactive)
REMARK    1  A    between atoms: O_2  and  C_3
REMARK    2  A    between atoms: N_5  and  C_6
REMARK    3  A    between atoms: C_6  and  C_7
REMARK    4  A    between atoms: C_6  and  C_63
REMARK    5  A    between atoms: C_13  and  C_14
REMARK    6  A    between atoms: N_16  and  C_17
REMARK    7  A    between atoms: C_20  and  C_21
REMARK    8  A    between atoms: C_24  and  C_25
REMARK    9  A    between atoms: C_28  and  N_29
REMARK   10  A    between atoms: C_30  and  C_32
REMARK   11  A    between atoms: C_37  and  C_39
REMARK   12  A    between atoms: C_39  and  N_40
REMARK   13  A    between atoms: C_39  and  C_45
REMARK   14  A    between atoms: C_41  and  O_43
REMARK   15  A    between atoms: N_50  and  C_51
REMARK   16  A    between atoms: C_54  and  C_55
REMARK                            x       y       z     vdW  Elec       q    Type
REMARK                         _______ _______ _______ _____ _____    ______ ____
ROOT
ATOM      1  C   UNL     1       2.208   5.072  -6.197  0.00  0.00    +0.096 C 
ATOM      2  N   UNL     1       2.594   5.505  -7.653  0.00  0.00    -0.303 N 
ATOM      3  C   UNL     1       1.309   4.913  -8.363  0.00  0.00    +0.096 C 
ATOM      4  C   UNL     1       1.327   3.489  -7.547  0.00  0.00    +0.026 C 
ATOM      5  C   UNL     1       2.504   3.532  -6.669  0.00  0.00    +0.026 C 
ENDROOT
BRANCH   2   6
ATOM      6  C   UNL     1       3.784   5.151  -8.313  0.00  0.00    +0.048 A 
ATOM      7  C   UNL     1       4.971   5.647  -7.786  0.00  0.00    +0.014 A 
ATOM      8  C   UNL     1       5.999   6.115  -8.596  0.00  0.00    -0.003 A 
ATOM      9  C   UNL     1       5.860   6.058  -9.977  0.00  0.00    -0.023 A 
ATOM     10  C   UNL     1       5.028   5.032 -10.406  0.00  0.00    -0.003 A 
ATOM     11  C   UNL     1       3.877   4.810  -9.657  0.00  0.00    +0.014 A 
BRANCH   9  12
ATOM     12  C   UNL     1       6.661   6.897 -10.897  0.00  0.00    +0.019 C 
ATOM     13  C   UNL     1       7.178   6.112 -12.056  0.00  0.00    +0.004 C 
ATOM     14  C   UNL     1       5.888   8.069 -11.449  0.00  0.00    +0.004 C 
ATOM     15  C   UNL     1       7.876   7.480 -10.186  0.00  0.00    +0.004 C 
ENDBRANCH   9  12
ENDBRANCH   2   6
BRANCH   1  19
ATOM     16  C   UNL     1       4.227   6.254  -2.940  0.00  0.00    +0.073 A 
ATOM     17  C   UNL     1       3.986   7.133  -3.993  0.00  0.00    +0.016 A 
ATOM     18  C   UNL     1       3.847   6.666  -5.296  0.00  0.00    -0.001 A 
ATOM     19  C   UNL     1       3.685   5.313  -5.579  0.00  0.00    -0.004 A 
ATOM     20  C   UNL     1       4.000   4.476  -4.519  0.00  0.00    -0.001 A 
ATOM     21  C   UNL     1       4.497   4.947  -3.328  0.00  0.00    +0.016 A 
BRANCH  16  23
ATOM     22  C   UNL     1       5.003   8.071  -1.399  0.00  0.00    +0.264 C 
ATOM     23  N   UNL     1       5.155   6.753  -1.958  0.00  0.00    -0.178 NA
ATOM     24  O   UNL     1       4.145   8.742  -1.938  0.00  0.00    -0.271 OA
BRANCH  22  27
ATOM     25  C   UNL     1       4.122   9.428   1.896  0.00  0.00    +0.246 C 
ATOM     26  N   UNL     1       4.045   9.084   0.537  0.00  0.00    -0.272 N 
ATOM     27  C   UNL     1       5.169   8.030   0.202  0.00  0.00    +0.154 C 
ATOM     28  C   UNL     1       4.212   6.713   0.401  0.00  0.00    +0.031 C 
ATOM     29  C   UNL     1       2.856   7.161   0.232  0.00  0.00    +0.024 C 
ATOM     30  C   UNL     1       2.815   8.611   0.035  0.00  0.00    +0.094 C 
ATOM     31  O   UNL     1       4.188   8.630   2.853  0.00  0.00    -0.273 OA
BRANCH  25  32
ATOM     32  C   UNL     1       4.610  10.879   2.376  0.00  0.00    +0.175 C 
BRANCH  32  33
ATOM     33  C   UNL     1       3.191  11.219   3.119  0.00  0.00    +0.029 C 
ATOM     34  C   UNL     1       3.189  12.518   3.750  0.00  0.00    +0.002 C 
ATOM     35  C   UNL     1       2.092  10.894   2.168  0.00  0.00    +0.002 C 
ENDBRANCH  32  33
BRANCH  32  37
ATOM     36  C   UNL     1       5.143  12.586   0.606  0.00  0.00    +0.422 C 
ATOM     37  N   UNL     1       4.236  11.591   1.020  0.00  0.00    -0.161 NA
ATOM     38  O   UNL     1       6.383  12.509   0.847  0.00  0.00    -0.225 OA
BRANCH  36  40
ATOM     39  C   UNL     1       5.327  14.485  -0.574  0.00  0.00    +0.257 C 
ATOM     40  O   UNL     1       4.756  13.784  -0.013  0.00  0.00    -0.429 OA
ENDBRANCH  36  40
ENDBRANCH  32  37
ENDBRANCH  25  32
ENDBRANCH  22  27
ENDBRANCH  16  23
ENDBRANCH   1  19
BRANCH   3  41
ATOM     41  C   UNL     1       0.312   5.678  -7.366  0.00  0.00    -0.004 A 
ATOM     42  C   UNL     1       0.739   6.570  -6.476  0.00  0.00    -0.001 A 
ATOM     43  C   UNL     1      -0.199   7.046  -5.566  0.00  0.00    +0.016 A 
ATOM     44  C   UNL     1      -1.441   6.444  -5.391  0.00  0.00    +0.073 A 
ATOM     45  C   UNL     1      -1.889   5.748  -6.507  0.00  0.00    +0.016 A 
ATOM     46  C   UNL     1      -1.019   5.426  -7.540  0.00  0.00    -0.001 A 
BRANCH  44  47
ATOM     47  N   UNL     1      -1.928   6.103  -4.077  0.00  0.00    -0.178 NA
ATOM     48  C   UNL     1      -0.936   5.977  -3.101  0.00  0.00    +0.264 C 
ATOM     49  O   UNL     1       0.161   5.462  -3.481  0.00  0.00    -0.271 OA
BRANCH  48  50
ATOM     50  C   UNL     1      -1.340   5.510  -1.620  0.00  0.00    +0.154 C 
ATOM     51  N   UNL     1      -1.009   6.929  -1.019  0.00  0.00    -0.272 N 
ATOM     52  C   UNL     1      -1.139   6.918   0.372  0.00  0.00    +0.246 C 
ATOM     53  O   UNL     1      -2.309   6.738   0.830  0.00  0.00    -0.273 OA
ATOM     54  C   UNL     1      -1.619   7.887  -1.868  0.00  0.00    +0.094 C 
ATOM     55  C   UNL     1      -2.875   7.257  -2.352  0.00  0.00    +0.024 C 
ATOM     56  C   UNL     1      -2.925   5.889  -1.799  0.00  0.00    +0.031 C 
BRANCH  52  57
ATOM     57  C   UNL     1      -0.391   8.060   1.228  0.00  0.00    +0.175 C 
BRANCH  57  58
ATOM     58  N   UNL     1      -1.774   8.528   1.808  0.00  0.00    -0.161 NA
ATOM     59  C   UNL     1      -1.966   9.791   2.301  0.00  0.00    +0.422 C 
ATOM     60  O   UNL     1      -1.463  10.709   1.607  0.00  0.00    -0.225 OA
BRANCH  59  61
ATOM     61  O   UNL     1      -3.045  10.000   3.172  0.00  0.00    -0.429 OA
ATOM     62  C   UNL     1      -4.124   9.115   3.001  0.00  0.00    +0.257 C 
ENDBRANCH  59  61
ENDBRANCH  57  58
BRANCH  57  63
ATOM     63  C   UNL     1       0.036   7.077   2.470  0.00  0.00    +0.029 C 
ATOM     64  C   UNL     1       1.012   7.681   3.341  0.00  0.00    +0.002 C 
ATOM     65  C   UNL     1      -1.251   6.598   3.059  0.00  0.00    +0.002 C 
ENDBRANCH  57  63
ENDBRANCH  52  57
ENDBRANCH  48  50
ENDBRANCH  44  47
ENDBRANCH   3  41
TORSDOF 16
ENDMDL
MODEL 4
REMARK VINA RESULT:      -6.9      4.017     10.683
REMARK  Name = 
REMARK  16 active torsions:
REMARK  status: ('A' for Active; 'I' for Inactive)
REMARK    1  A    between atoms: O_2  and  C_3
REMARK    2  A    between atoms: N_5  and  C_6
REMARK    3  A    between atoms: C_6  and  C_7
REMARK    4  A    between atoms: C_6  and  C_63
REMARK    5  A    between atoms: C_13  and  C_14
REMARK    6  A    between atoms: N_16  and  C_17
REMARK    7  A    between atoms: C_20  and  C_21
REMARK    8  A    between atoms: C_24  and  C_25
REMARK    9  A    between atoms: C_28  and  N_29
REMARK   10  A    between atoms: C_30  and  C_32
REMARK   11  A    between atoms: C_37  and  C_39
REMARK   12  A    between atoms: C_39  and  N_40
REMARK   13  A    between atoms: C_39  and  C_45
REMARK   14  A    between atoms: C_41  and  O_43
REMARK   15  A    between atoms: N_50  and  C_51
REMARK   16  A    between atoms: C_54  and  C_55
REMARK                            x       y       z     vdW  Elec       q    Type
REMARK                         _______ _______ _______ _____ _____    ______ ____
ROOT
ATOM      1  C   UNL     1       2.700   6.565  -4.942  0.00  0.00    +0.096 C 
ATOM      2  N   UNL     1       1.828   5.280  -5.148  0.00  0.00    -0.303 N 
ATOM      3  C   UNL     1       1.344   5.625  -6.615  0.00  0.00    +0.096 C 
ATOM      4  C   UNL     1       1.011   7.201  -6.300  0.00  0.00    +0.026 C 
ATOM      5  C   UNL     1       1.296   7.404  -4.873  0.00  0.00    +0.026 C 
ENDROOT
BRANCH   2   6
ATOM      6  C   UNL     1       0.768   4.880  -4.314  0.00  0.00    +0.048 A 
ATOM      7  C   UNL     1      -0.520   5.029  -4.813  0.00  0.00    +0.014 A 
ATOM      8  C   UNL     1      -1.570   5.479  -4.022  0.00  0.00    -0.003 A 
ATOM      9  C   UNL     1      -1.344   5.759  -2.680  0.00  0.00    -0.023 A 
ATOM     10  C   UNL     1      -0.306   5.017  -2.131  0.00  0.00    -0.003 A 
ATOM     11  C   UNL     1       0.821   4.838  -2.926  0.00  0.00    +0.014 A 
BRANCH   9  12
ATOM     12  C   UNL     1      -2.236   6.628  -1.882  0.00  0.00    +0.019 C 
ATOM     13  C   UNL     1      -1.811   8.057  -1.933  0.00  0.00    +0.004 C 
ATOM     14  C   UNL     1      -3.675   6.564  -2.329  0.00  0.00    +0.004 C 
ATOM     15  C   UNL     1      -2.224   6.219  -0.414  0.00  0.00    +0.004 C 
ENDBRANCH   9  12
ENDBRANCH   2   6
BRANCH   1  19
ATOM     16  C   UNL     1       3.604   8.454  -1.522  0.00  0.00    +0.073 A 
ATOM     17  C   UNL     1       4.550   7.674  -2.182  0.00  0.00    +0.016 A 
ATOM     18  C   UNL     1       4.163   6.593  -2.967  0.00  0.00    -0.001 A 
ATOM     19  C   UNL     1       2.836   6.391  -3.337  0.00  0.00    -0.004 A 
ATOM     20  C   UNL     1       1.929   7.143  -2.607  0.00  0.00    -0.001 A 
ATOM     21  C   UNL     1       2.308   7.952  -1.563  0.00  0.00    +0.016 A 
BRANCH  16  23
ATOM     22  C   UNL     1       4.410   7.907   0.787  0.00  0.00    +0.264 C 
ATOM     23  N   UNL     1       4.003   8.871  -0.202  0.00  0.00    -0.178 NA
ATOM     24  O   UNL     1       4.235   6.752   0.453  0.00  0.00    -0.271 OA
BRANCH  22  27
ATOM     25  C   UNL     1       6.067  10.073   3.244  0.00  0.00    +0.246 C 
ATOM     26  N   UNL     1       5.079   9.321   2.588  0.00  0.00    -0.272 N 
ATOM     27  C   UNL     1       5.763   8.384   1.520  0.00  0.00    +0.154 C 
ATOM     28  C   UNL     1       5.854   7.071   2.498  0.00  0.00    +0.031 C 
ATOM     29  C   UNL     1       4.858   7.249   3.520  0.00  0.00    +0.024 C 
ATOM     30  C   UNL     1       4.197   8.547   3.372  0.00  0.00    +0.094 C 
ATOM     31  O   UNL     1       7.116   9.626   3.750  0.00  0.00    -0.273 OA
BRANCH  25  32
ATOM     32  C   UNL     1       6.214  11.655   3.020  0.00  0.00    +0.175 C 
BRANCH  32  33
ATOM     33  C   UNL     1       4.836  11.757   2.140  0.00  0.00    +0.029 C 
ATOM     34  C   UNL     1       3.749  12.360   2.876  0.00  0.00    +0.002 C 
ATOM     35  C   UNL     1       5.188  12.324   0.810  0.00  0.00    +0.002 C 
ENDBRANCH  32  33
BRANCH  32  37
ATOM     36  C   UNL     1       8.396  12.197   1.892  0.00  0.00    +0.422 C 
ATOM     37  N   UNL     1       7.169  11.517   1.773  0.00  0.00    -0.161 NA
ATOM     38  O   UNL     1       8.984  12.338   3.005  0.00  0.00    -0.225 OA
BRANCH  36  40
ATOM     39  C   UNL     1       8.622  13.255  -0.074  0.00  0.00    +0.257 C 
ATOM     40  O   UNL     1       9.027  12.858   0.827  0.00  0.00    -0.429 OA
ENDBRANCH  36  40
ENDBRANCH  32  37
ENDBRANCH  25  32
ENDBRANCH  22  27
ENDBRANCH  16  23
ENDBRANCH   1  19
BRANCH   3  41
ATOM     41  C   UNL     1       2.844   5.861  -7.136  0.00  0.00    -0.004 A 
ATOM     42  C   UNL     1       3.163   6.850  -7.965  0.00  0.00    -0.001 A 
ATOM     43  C   UNL     1       4.460   6.855  -8.466  0.00  0.00    +0.016 A 
ATOM     44  C   UNL     1       5.309   5.759  -8.349  0.00  0.00    +0.073 A 
ATOM     45  C   UNL     1       5.014   4.934  -7.269  0.00  0.00    +0.016 A 
ATOM     46  C   UNL     1       3.797   5.036  -6.609  0.00  0.00    -0.001 A 
BRANCH  44  47
ATOM     47  N   UNL     1       6.018   5.237  -9.491  0.00  0.00    -0.178 NA
ATOM     48  C   UNL     1       5.604   5.753 -10.722  0.00  0.00    +0.264 C 
ATOM     49  O   UNL     1       4.360   5.975 -10.845  0.00  0.00    -0.271 OA
BRANCH  48  50
ATOM     50  C   UNL     1       6.251   5.184 -12.075  0.00  0.00    +0.154 C 
ATOM     51  N   UNL     1       6.168   6.592 -12.776  0.00  0.00    -0.272 N 
ATOM     52  C   UNL     1       6.569   6.504 -14.111  0.00  0.00    +0.246 C 
ATOM     53  O   UNL     1       7.786   6.213 -14.319  0.00  0.00    -0.273 OA
ATOM     54  C   UNL     1       6.677   7.542 -11.854  0.00  0.00    +0.094 C 
ATOM     55  C   UNL     1       7.754   6.842 -11.107  0.00  0.00    +0.024 C 
ATOM     56  C   UNL     1       7.797   5.449 -11.593  0.00  0.00    +0.031 C 
BRANCH  52  57
ATOM     57  C   UNL     1       6.105   7.655 -15.138  0.00  0.00    +0.175 C 
BRANCH  57  58
ATOM     58  N   UNL     1       7.177   7.161 -16.174  0.00  0.00    -0.161 NA
ATOM     59  C   UNL     1       7.426   7.836 -17.340  0.00  0.00    +0.422 C 
ATOM     60  O   UNL     1       7.493   9.084 -17.221  0.00  0.00    -0.225 OA
BRANCH  59  61
ATOM     61  O   UNL     1       8.049   7.136 -18.382  0.00  0.00    -0.429 OA
ATOM     62  C   UNL     1       7.886   5.740 -18.342  0.00  0.00    +0.257 C 
ENDBRANCH  59  61
ENDBRANCH  57  58
BRANCH  57  63
ATOM     63  C   UNL     1       4.827   6.825 -15.746  0.00  0.00    +0.029 C 
ATOM     64  C   UNL     1       4.017   6.226 -14.716  0.00  0.00    +0.002 C 
ATOM     65  C   UNL     1       4.177   7.753 -16.720  0.00  0.00    +0.002 C 
ENDBRANCH  57  63
ENDBRANCH  52  57
ENDBRANCH  48  50
ENDBRANCH  44  47
ENDBRANCH   3  41
TORSDOF 16
ENDMDL
MODEL 5
REMARK VINA RESULT:      -6.6      2.537     10.324
REMARK  Name = 
REMARK  16 active torsions:
REMARK  status: ('A' for Active; 'I' for Inactive)
REMARK    1  A    between atoms: O_2  and  C_3
REMARK    2  A    between atoms: N_5  and  C_6
REMARK    3  A    between atoms: C_6  and  C_7
REMARK    4  A    between atoms: C_6  and  C_63
REMARK    5  A    between atoms: C_13  and  C_14
REMARK    6  A    between atoms: N_16  and  C_17
REMARK    7  A    between atoms: C_20  and  C_21
REMARK    8  A    between atoms: C_24  and  C_25
REMARK    9  A    between atoms: C_28  and  N_29
REMARK   10  A    between atoms: C_30  and  C_32
REMARK   11  A    between atoms: C_37  and  C_39
REMARK   12  A    between atoms: C_39  and  N_40
REMARK   13  A    between atoms: C_39  and  C_45
REMARK   14  A    between atoms: C_41  and  O_43
REMARK   15  A    between atoms: N_50  and  C_51
REMARK   16  A    between atoms: C_54  and  C_55
REMARK                            x       y       z     vdW  Elec       q    Type
REMARK                         _______ _______ _______ _____ _____    ______ ____
ROOT
ATOM      1  C   UNL     1       2.886   9.300   0.984  0.00  0.00    +0.096 C 
ATOM      2  N   UNL     1       3.855   9.991   2.003  0.00  0.00    -0.303 N 
ATOM      3  C   UNL     1       2.801  11.019   2.583  0.00  0.00    +0.096 C 
ATOM      4  C   UNL     1       2.180  11.441   1.124  0.00  0.00    +0.026 C 
ATOM      5  C   UNL     1       2.942  10.689   0.118  0.00  0.00    +0.026 C 
ENDROOT
BRANCH   2   6
ATOM      6  C   UNL     1       5.076  10.603   1.669  0.00  0.00    +0.048 A 
ATOM      7  C   UNL     1       6.141  10.405   2.539  0.00  0.00    +0.014 A 
ATOM      8  C   UNL     1       7.023  11.428   2.870  0.00  0.00    -0.003 A 
ATOM      9  C   UNL     1       6.865  12.681   2.292  0.00  0.00    -0.023 A 
ATOM     10  C   UNL     1       6.262  12.638   1.041  0.00  0.00    -0.003 A 
ATOM     11  C   UNL     1       5.206  11.746   0.888  0.00  0.00    +0.014 A 
BRANCH   9  12
ATOM     12  C   UNL     1       7.442  13.911   2.877  0.00  0.00    +0.019 C 
ATOM     13  C   UNL     1       8.615  13.615   3.749  0.00  0.00    +0.004 C 
ATOM     14  C   UNL     1       7.888  14.905   1.834  0.00  0.00    +0.004 C 
ATOM     15  C   UNL     1       6.419  14.632   3.747  0.00  0.00    +0.004 C 
ENDBRANCH   9  12
ENDBRANCH   2   6
BRANCH   1  19
ATOM     16  C   UNL     1       3.655   6.489  -1.772  0.00  0.00    +0.073 A 
ATOM     17  C   UNL     1       3.778   6.214  -0.412  0.00  0.00    +0.016 A 
ATOM     18  C   UNL     1       4.099   7.219   0.495  0.00  0.00    -0.001 A 
ATOM     19  C   UNL     1       4.059   8.566   0.143  0.00  0.00    -0.004 A 
ATOM     20  C   UNL     1       4.002   8.788  -1.224  0.00  0.00    -0.001 A 
ATOM     21  C   UNL     1       4.056   7.768  -2.142  0.00  0.00    +0.016 A 
BRANCH  16  23
ATOM     22  C   UNL     1       3.539   5.132  -3.875  0.00  0.00    +0.264 C 
ATOM     23  N   UNL     1       4.186   5.462  -2.631  0.00  0.00    -0.178 NA
ATOM     24  O   UNL     1       2.464   5.674  -4.033  0.00  0.00    -0.271 OA
BRANCH  22  27
ATOM     25  C   UNL     1       4.443   5.754  -7.378  0.00  0.00    +0.246 C 
ATOM     26  N   UNL     1       3.821   5.873  -6.125  0.00  0.00    -0.272 N 
ATOM     27  C   UNL     1       4.621   5.025  -5.064  0.00  0.00    +0.154 C 
ATOM     28  C   UNL     1       5.537   6.273  -4.524  0.00  0.00    +0.031 C 
ATOM     29  C   UNL     1       4.823   7.478  -4.849  0.00  0.00    +0.024 C 
ATOM     30  C   UNL     1       3.608   7.167  -5.605  0.00  0.00    +0.094 C 
ATOM     31  O   UNL     1       5.659   5.906  -7.612  0.00  0.00    -0.273 OA
BRANCH  25  32
ATOM     32  C   UNL     1       3.764   4.947  -8.587  0.00  0.00    +0.175 C 
BRANCH  32  33
ATOM     33  C   UNL     1       4.668   5.698  -9.727  0.00  0.00    +0.029 C 
ATOM     34  C   UNL     1       4.764   4.939 -10.952  0.00  0.00    +0.002 C 
ATOM     35  C   UNL     1       4.213   7.113  -9.807  0.00  0.00    +0.002 C 
ENDBRANCH  32  33
BRANCH  32  37
ATOM     36  C   UNL     1       1.522   5.489  -9.592  0.00  0.00    +0.422 C 
ATOM     37  N   UNL     1       2.533   5.923  -8.714  0.00  0.00    -0.161 NA
ATOM     38  O   UNL     1       1.252   4.262  -9.754  0.00  0.00    -0.225 OA
BRANCH  36  40
ATOM     39  C   UNL     1       0.550   6.256 -11.463  0.00  0.00    +0.257 C 
ATOM     40  O   UNL     1       0.797   6.347 -10.431  0.00  0.00    -0.429 OA
ENDBRANCH  36  40
ENDBRANCH  32  37
ENDBRANCH  25  32
ENDBRANCH  22  27
ENDBRANCH  16  23
ENDBRANCH   1  19
BRANCH   3  41
ATOM     41  C   UNL     1       1.735   9.864   2.904  0.00  0.00    -0.004 A 
ATOM     42  C   UNL     1       2.102   8.631   3.246  0.00  0.00    -0.001 A 
ATOM     43  C   UNL     1       1.091   7.682   3.345  0.00  0.00    +0.016 A 
ATOM     44  C   UNL     1      -0.192   7.904   2.855  0.00  0.00    +0.073 A 
ATOM     45  C   UNL     1      -0.544   9.247   2.791  0.00  0.00    +0.016 A 
ATOM     46  C   UNL     1       0.422  10.240   2.891  0.00  0.00    -0.001 A 
BRANCH  44  47
ATOM     47  N   UNL     1      -0.844   6.940   2.002  0.00  0.00    -0.178 NA
ATOM     48  C   UNL     1      -1.013   7.351   0.678  0.00  0.00    +0.264 C 
ATOM     49  O   UNL     1      -1.284   8.580   0.503  0.00  0.00    -0.271 OA
BRANCH  48  50
ATOM     50  C   UNL     1      -1.807   6.407  -0.347  0.00  0.00    +0.154 C 
ATOM     51  N   UNL     1      -1.031   6.998  -1.585  0.00  0.00    -0.272 N 
ATOM     52  C   UNL     1      -1.534   6.476  -2.779  0.00  0.00    +0.246 C 
ATOM     53  O   UNL     1      -1.365   5.234  -2.970  0.00  0.00    -0.273 OA
ATOM     54  C   UNL     1       0.344   7.011  -1.240  0.00  0.00    +0.094 C 
ATOM     55  C   UNL     1       0.558   5.814  -0.385  0.00  0.00    +0.024 C 
ATOM     56  C   UNL     1      -0.753   5.158  -0.207  0.00  0.00    +0.031 C 
BRANCH  52  57
ATOM     57  C   UNL     1      -1.263   7.278  -4.150  0.00  0.00    +0.175 C 
BRANCH  57  58
ATOM     58  N   UNL     1      -0.644   5.980  -4.783  0.00  0.00    -0.161 NA
ATOM     59  C   UNL     1      -0.261   5.924  -6.097  0.00  0.00    +0.422 C 
ATOM     60  O   UNL     1       0.361   6.935  -6.507  0.00  0.00    -0.225 OA
BRANCH  59  61
ATOM     61  O   UNL     1      -0.133   4.660  -6.690  0.00  0.00    -0.429 OA
ATOM     62  C   UNL     1       1.004   3.932  -6.298  0.00  0.00    +0.257 C 
ENDBRANCH  59  61
ENDBRANCH  57  58
BRANCH  57  63
ATOM     63  C   UNL     1      -2.780   7.099  -4.746  0.00  0.00    +0.029 C 
ATOM     64  C   UNL     1      -3.672   6.470  -3.806  0.00  0.00    +0.002 C 
ATOM     65  C   UNL     1      -3.149   8.437  -5.301  0.00  0.00    +0.002 C 
ENDBRANCH  57  63
ENDBRANCH  52  57
ENDBRANCH  48  50
ENDBRANCH  44  47
ENDBRANCH   3  41
TORSDOF 16
ENDMDL
MODEL 6
REMARK VINA RESULT:      -6.5      3.539     10.006
REMARK  Name = 
REMARK  16 active torsions:
REMARK  status: ('A' for Active; 'I' for Inactive)
REMARK    1  A    between atoms: O_2  and  C_3
REMARK    2  A    between atoms: N_5  and  C_6
REMARK    3  A    between atoms: C_6  and  C_7
REMARK    4  A    between atoms: C_6  and  C_63
REMARK    5  A    between atoms: C_13  and  C_14
REMARK    6  A    between atoms: N_16  and  C_17
REMARK    7  A    between atoms: C_20  and  C_21
REMARK    8  A    between atoms: C_24  and  C_25
REMARK    9  A    between atoms: C_28  and  N_29
REMARK   10  A    between atoms: C_30  and  C_32
REMARK   11  A    between atoms: C_37  and  C_39
REMARK   12  A    between atoms: C_39  and  N_40
REMARK   13  A    between atoms: C_39  and  C_45
REMARK   14  A    between atoms: C_41  and  O_43
REMARK   15  A    between atoms: N_50  and  C_51
REMARK   16  A    between atoms: C_54  and  C_55
REMARK                            x       y       z     vdW  Elec       q    Type
REMARK                         _______ _______ _______ _____ _____    ______ ____
ROOT
ATOM      1  C   UNL     1       3.152   6.466  -5.780  0.00  0.00    +0.096 C 
ATOM      2  N   UNL     1       2.267   5.208  -6.077  0.00  0.00    -0.303 N 
ATOM      3  C   UNL     1       1.938   5.572  -7.582  0.00  0.00    +0.096 C 
ATOM      4  C   UNL     1       1.621   7.155  -7.291  0.00  0.00    +0.026 C 
ATOM      5  C   UNL     1       1.773   7.347  -5.843  0.00  0.00    +0.026 C 
ENDROOT
BRANCH   2   6
ATOM      6  C   UNL     1       1.120   4.838  -5.352  0.00  0.00    +0.048 A 
ATOM      7  C   UNL     1      -0.102   4.935  -6.007  0.00  0.00    +0.014 A 
ATOM      8  C   UNL     1      -1.243   5.411  -5.372  0.00  0.00    -0.003 A 
ATOM      9  C   UNL     1      -1.180   5.770  -4.032  0.00  0.00    -0.023 A 
ATOM     10  C   UNL     1      -0.206   5.079  -3.321  0.00  0.00    -0.003 A 
ATOM     11  C   UNL     1       1.008   4.875  -3.966  0.00  0.00    +0.014 A 
BRANCH   9  12
ATOM     12  C   UNL     1      -2.170   6.667  -3.396  0.00  0.00    +0.019 C 
ATOM     13  C   UNL     1      -3.443   5.956  -3.080  0.00  0.00    +0.004 C 
ATOM     14  C   UNL     1      -1.666   7.289  -2.117  0.00  0.00    +0.004 C 
ATOM     15  C   UNL     1      -2.531   7.823  -4.321  0.00  0.00    +0.004 C 
ENDBRANCH   9  12
ENDBRANCH   2   6
BRANCH   1  19
ATOM     16  C   UNL     1       3.902   8.277  -2.281  0.00  0.00    +0.073 A 
ATOM     17  C   UNL     1       4.833   7.417  -2.858  0.00  0.00    +0.016 A 
ATOM     18  C   UNL     1       4.427   6.372  -3.682  0.00  0.00    -0.001 A 
ATOM     19  C   UNL     1       3.127   6.284  -4.171  0.00  0.00    -0.004 A 
ATOM     20  C   UNL     1       2.225   7.112  -3.521  0.00  0.00    -0.001 A 
ATOM     21  C   UNL     1       2.577   7.887  -2.443  0.00  0.00    +0.016 A 
BRANCH  16  23
ATOM     22  C   UNL     1       4.322   7.672   0.114  0.00  0.00    +0.264 C 
ATOM     23  N   UNL     1       4.214   8.660  -0.929  0.00  0.00    -0.178 NA
ATOM     24  O   UNL     1       3.981   6.557  -0.224  0.00  0.00    -0.271 OA
BRANCH  22  27
ATOM     25  C   UNL     1       6.229   9.837   2.384  0.00  0.00    +0.246 C 
ATOM     26  N   UNL     1       5.153   9.248   1.702  0.00  0.00    -0.272 N 
ATOM     27  C   UNL     1       5.644   7.925   0.998  0.00  0.00    +0.154 C 
ATOM     28  C   UNL     1       5.187   6.922   2.212  0.00  0.00    +0.031 C 
ATOM     29  C   UNL     1       4.169   7.614   2.955  0.00  0.00    +0.024 C 
ATOM     30  C   UNL     1       3.976   8.965   2.426  0.00  0.00    +0.094 C 
ATOM     31  O   UNL     1       7.007   9.259   3.169  0.00  0.00    -0.273 OA
BRANCH  25  32
ATOM     32  C   UNL     1       6.894  11.211   1.889  0.00  0.00    +0.175 C 
BRANCH  32  33
ATOM     33  C   UNL     1       6.839  11.888   3.380  0.00  0.00    +0.029 C 
ATOM     34  C   UNL     1       7.722  13.023   3.509  0.00  0.00    +0.002 C 
ATOM     35  C   UNL     1       5.406  12.063   3.746  0.00  0.00    +0.002 C 
ENDBRANCH  32  33
BRANCH  32  37
ATOM     36  C   UNL     1       5.667  13.028   0.656  0.00  0.00    +0.422 C 
ATOM     37  N   UNL     1       5.534  11.838   1.397  0.00  0.00    -0.161 NA
ATOM     38  O   UNL     1       6.662  13.246  -0.097  0.00  0.00    -0.225 OA
BRANCH  36  40
ATOM     39  C   UNL     1       4.967  15.142   0.935  0.00  0.00    +0.257 C 
ATOM     40  O   UNL     1       4.779  14.110   0.753  0.00  0.00    -0.429 OA
ENDBRANCH  36  40
ENDBRANCH  32  37
ENDBRANCH  25  32
ENDBRANCH  22  27
ENDBRANCH  16  23
ENDBRANCH   1  19
BRANCH   3  41
ATOM     41  C   UNL     1       3.487   5.764  -7.954  0.00  0.00    -0.004 A 
ATOM     42  C   UNL     1       3.952   6.876  -8.516  0.00  0.00    -0.001 A 
ATOM     43  C   UNL     1       5.278   6.860  -8.933  0.00  0.00    +0.016 A 
ATOM     44  C   UNL     1       6.018   5.686  -9.025  0.00  0.00    +0.073 A 
ATOM     45  C   UNL     1       5.572   4.675  -8.180  0.00  0.00    +0.016 A 
ATOM     46  C   UNL     1       4.323   4.751  -7.580  0.00  0.00    -0.001 A 
BRANCH  44  47
ATOM     47  N   UNL     1       6.763   5.363 -10.216  0.00  0.00    -0.178 NA
ATOM     48  C   UNL     1       6.041   5.479 -11.407  0.00  0.00    +0.264 C 
ATOM     49  O   UNL     1       4.819   5.133 -11.357  0.00  0.00    -0.271 OA
BRANCH  48  50
ATOM     50  C   UNL     1       6.729   5.058 -12.793  0.00  0.00    +0.154 C 
ATOM     51  N   UNL     1       5.861   6.092 -13.606  0.00  0.00    -0.272 N 
ATOM     52  C   UNL     1       6.097   5.965 -14.977  0.00  0.00    +0.246 C 
ATOM     53  O   UNL     1       7.260   6.270 -15.382  0.00  0.00    -0.273 OA
ATOM     54  C   UNL     1       5.915   7.320 -12.900  0.00  0.00    +0.094 C 
ATOM     55  C   UNL     1       7.276   7.384 -12.304  0.00  0.00    +0.024 C 
ATOM     56  C   UNL     1       7.967   6.124 -12.645  0.00  0.00    +0.031 C 
BRANCH  52  57
ATOM     57  C   UNL     1       4.998   6.534 -16.008  0.00  0.00    +0.175 C 
BRANCH  57  58
ATOM     58  N   UNL     1       4.019   6.808 -14.810  0.00  0.00    -0.161 NA
ATOM     59  C   UNL     1       2.931   6.014 -14.564  0.00  0.00    +0.422 C 
ATOM     60  O   UNL     1       3.146   4.781 -14.664  0.00  0.00    -0.225 OA
BRANCH  59  61
ATOM     61  O   UNL     1       1.894   6.545 -13.784  0.00  0.00    -0.429 OA
ATOM     62  C   UNL     1       1.137   5.594 -13.077  0.00  0.00    +0.257 C 
ENDBRANCH  59  61
ENDBRANCH  57  58
BRANCH  57  63
ATOM     63  C   UNL     1       5.634   8.043 -16.108  0.00  0.00    +0.029 C 
ATOM     64  C   UNL     1       6.850   8.078 -16.880  0.00  0.00    +0.002 C 
ATOM     65  C   UNL     1       4.500   8.927 -16.514  0.00  0.00    +0.002 C 
ENDBRANCH  57  63
ENDBRANCH  52  57
ENDBRANCH  48  50
ENDBRANCH  44  47
ENDBRANCH   3  41
TORSDOF 16
ENDMDL
MODEL 7
REMARK VINA RESULT:      -6.4      3.511     10.212
REMARK  Name = 
REMARK  16 active torsions:
REMARK  status: ('A' for Active; 'I' for Inactive)
REMARK    1  A    between atoms: O_2  and  C_3
REMARK    2  A    between atoms: N_5  and  C_6
REMARK    3  A    between atoms: C_6  and  C_7
REMARK    4  A    between atoms: C_6  and  C_63
REMARK    5  A    between atoms: C_13  and  C_14
REMARK    6  A    between atoms: N_16  and  C_17
REMARK    7  A    between atoms: C_20  and  C_21
REMARK    8  A    between atoms: C_24  and  C_25
REMARK    9  A    between atoms: C_28  and  N_29
REMARK   10  A    between atoms: C_30  and  C_32
REMARK   11  A    between atoms: C_37  and  C_39
REMARK   12  A    between atoms: C_39  and  N_40
REMARK   13  A    between atoms: C_39  and  C_45
REMARK   14  A    between atoms: C_41  and  O_43
REMARK   15  A    between atoms: N_50  and  C_51
REMARK   16  A    between atoms: C_54  and  C_55
REMARK                            x       y       z     vdW  Elec       q    Type
REMARK                         _______ _______ _______ _____ _____    ______ ____
ROOT
ATOM      1  C   UNL     1       2.983   6.563  -5.737  0.00  0.00    +0.096 C 
ATOM      2  N   UNL     1       2.136   5.268  -5.982  0.00  0.00    -0.303 N 
ATOM      3  C   UNL     1       1.738   5.594  -7.478  0.00  0.00    +0.096 C 
ATOM      4  C   UNL     1       1.371   7.169  -7.199  0.00  0.00    +0.026 C 
ATOM      5  C   UNL     1       1.569   7.389  -5.760  0.00  0.00    +0.026 C 
ENDROOT
BRANCH   2   6
ATOM      6  C   UNL     1       1.033   4.865  -5.208  0.00  0.00    +0.048 A 
ATOM      7  C   UNL     1      -0.225   5.003  -5.782  0.00  0.00    +0.014 A 
ATOM      8  C   UNL     1      -1.322   5.450  -5.054  0.00  0.00    -0.003 A 
ATOM      9  C   UNL     1      -1.175   5.738  -3.703  0.00  0.00    -0.023 A 
ATOM     10  C   UNL     1      -0.166   5.005  -3.091  0.00  0.00    -0.003 A 
ATOM     11  C   UNL     1       1.006   4.830  -3.819  0.00  0.00    +0.014 A 
BRANCH   9  12
ATOM     12  C   UNL     1      -2.117   6.605  -2.962  0.00  0.00    +0.019 C 
ATOM     13  C   UNL     1      -2.083   8.012  -3.456  0.00  0.00    +0.004 C 
ATOM     14  C   UNL     1      -3.545   6.128  -3.043  0.00  0.00    +0.004 C 
ATOM     15  C   UNL     1      -1.764   6.652  -1.480  0.00  0.00    +0.004 C 
ENDBRANCH   9  12
ENDBRANCH   2   6
BRANCH   1  19
ATOM     16  C   UNL     1       3.757   8.467  -2.293  0.00  0.00    +0.073 A 
ATOM     17  C   UNL     1       4.712   7.650  -2.892  0.00  0.00    +0.016 A 
ATOM     18  C   UNL     1       4.335   6.571  -3.685  0.00  0.00    -0.001 A 
ATOM     19  C   UNL     1       3.025   6.406  -4.126  0.00  0.00    -0.004 A 
ATOM     20  C   UNL     1       2.103   7.194  -3.455  0.00  0.00    -0.001 A 
ATOM     21  C   UNL     1       2.450   8.004  -2.401  0.00  0.00    +0.016 A 
BRANCH  16  23
ATOM     22  C   UNL     1       3.983  10.270  -0.568  0.00  0.00    +0.264 C 
ATOM     23  N   UNL     1       4.095   8.888  -0.958  0.00  0.00    -0.178 NA
ATOM     24  O   UNL     1       3.738  11.026  -1.488  0.00  0.00    -0.271 OA
BRANCH  22  27
ATOM     25  C   UNL     1       3.984   9.653   3.051  0.00  0.00    +0.246 C 
ATOM     26  N   UNL     1       4.438   9.871   1.740  0.00  0.00    -0.272 N 
ATOM     27  C   UNL     1       3.243  10.398   0.856  0.00  0.00    +0.154 C 
ATOM     28  C   UNL     1       3.595  11.988   1.048  0.00  0.00    +0.031 C 
ATOM     29  C   UNL     1       4.987  12.060   1.404  0.00  0.00    +0.024 C 
ATOM     30  C   UNL     1       5.550  10.717   1.549  0.00  0.00    +0.094 C 
ATOM     31  O   UNL     1       3.328  10.456   3.744  0.00  0.00    -0.273 OA
BRANCH  25  32
ATOM     32  C   UNL     1       3.838   8.176   3.661  0.00  0.00    +0.175 C 
BRANCH  32  33
ATOM     33  C   UNL     1       5.166   7.617   2.883  0.00  0.00    +0.029 C 
ATOM     34  C   UNL     1       6.044   6.867   3.750  0.00  0.00    +0.002 C 
ATOM     35  C   UNL     1       4.716   6.983   1.614  0.00  0.00    +0.002 C 
ENDBRANCH  32  33
BRANCH  32  37
ATOM     36  C   UNL     1       1.459   7.818   2.924  0.00  0.00    +0.422 C 
ATOM     37  N   UNL     1       2.815   7.689   2.565  0.00  0.00    -0.161 NA
ATOM     38  O   UNL     1       1.045   8.759   3.663  0.00  0.00    -0.225 OA
BRANCH  36  40
ATOM     39  C   UNL     1      -0.582   6.904   2.742  0.00  0.00    +0.257 C 
ATOM     40  O   UNL     1       0.471   6.882   2.585  0.00  0.00    -0.429 OA
ENDBRANCH  36  40
ENDBRANCH  32  37
ENDBRANCH  25  32
ENDBRANCH  22  27
ENDBRANCH  16  23
ENDBRANCH   1  19
BRANCH   3  41
ATOM     41  C   UNL     1       3.263   5.840  -7.911  0.00  0.00    -0.004 A 
ATOM     42  C   UNL     1       3.640   6.897  -8.626  0.00  0.00    -0.001 A 
ATOM     43  C   UNL     1       4.957   6.916  -9.070  0.00  0.00    +0.016 A 
ATOM     44  C   UNL     1       5.776   5.792  -9.027  0.00  0.00    +0.073 A 
ATOM     45  C   UNL     1       5.416   4.874  -8.047  0.00  0.00    +0.016 A 
ATOM     46  C   UNL     1       4.174   4.944  -7.430  0.00  0.00    -0.001 A 
BRANCH  44  47
ATOM     47  N   UNL     1       6.522   5.366 -10.185  0.00  0.00    -0.178 NA
ATOM     48  C   UNL     1       5.870   5.561 -11.405  0.00  0.00    +0.264 C 
ATOM     49  O   UNL     1       4.614   5.374 -11.405  0.00  0.00    -0.271 OA
BRANCH  48  50
ATOM     50  C   UNL     1       6.556   5.043 -12.759  0.00  0.00    +0.154 C 
ATOM     51  N   UNL     1       5.810   6.131 -13.622  0.00  0.00    -0.272 N 
ATOM     52  C   UNL     1       6.073   5.947 -14.982  0.00  0.00    +0.246 C 
ATOM     53  O   UNL     1       7.270   6.133 -15.358  0.00  0.00    -0.273 OA
ATOM     54  C   UNL     1       5.958   7.367 -12.943  0.00  0.00    +0.094 C 
ATOM     55  C   UNL     1       7.301   7.321 -12.307  0.00  0.00    +0.024 C 
ATOM     56  C   UNL     1       7.882   5.995 -12.598  0.00  0.00    +0.031 C 
BRANCH  52  57
ATOM     57  C   UNL     1       5.061   6.588 -16.059  0.00  0.00    +0.175 C 
BRANCH  57  58
ATOM     58  N   UNL     1       4.046   6.918 -14.907  0.00  0.00    -0.161 NA
ATOM     59  C   UNL     1       2.917   6.171 -14.697  0.00  0.00    +0.422 C 
ATOM     60  O   UNL     1       3.086   4.929 -14.772  0.00  0.00    -0.225 OA
BRANCH  59  61
ATOM     61  O   UNL     1       1.871   6.754 -13.967  0.00  0.00    -0.429 OA
ATOM     62  C   UNL     1       1.265   5.909 -13.021  0.00  0.00    +0.257 C 
ENDBRANCH  59  61
ENDBRANCH  57  58
BRANCH  57  63
ATOM     63  C   UNL     1       5.794   8.054 -16.120  0.00  0.00    +0.029 C 
ATOM     64  C   UNL     1       6.959   8.054 -16.967  0.00  0.00    +0.002 C 
ATOM     65  C   UNL     1       4.701   9.034 -16.401  0.00  0.00    +0.002 C 
ENDBRANCH  57  63
ENDBRANCH  52  57
ENDBRANCH  48  50
ENDBRANCH  44  47
ENDBRANCH   3  41
TORSDOF 16
ENDMDL
MODEL 8
REMARK VINA RESULT:      -6.2      1.453      2.197
REMARK  Name = 
REMARK  16 active torsions:
REMARK  status: ('A' for Active; 'I' for Inactive)
REMARK    1  A    between atoms: O_2  and  C_3
REMARK    2  A    between atoms: N_5  and  C_6
REMARK    3  A    between atoms: C_6  and  C_7
REMARK    4  A    between atoms: C_6  and  C_63
REMARK    5  A    between atoms: C_13  and  C_14
REMARK    6  A    between atoms: N_16  and  C_17
REMARK    7  A    between atoms: C_20  and  C_21
REMARK    8  A    between atoms: C_24  and  C_25
REMARK    9  A    between atoms: C_28  and  N_29
REMARK   10  A    between atoms: C_30  and  C_32
REMARK   11  A    between atoms: C_37  and  C_39
REMARK   12  A    between atoms: C_39  and  N_40
REMARK   13  A    between atoms: C_39  and  C_45
REMARK   14  A    between atoms: C_41  and  O_43
REMARK   15  A    between atoms: N_50  and  C_51
REMARK   16  A    between atoms: C_54  and  C_55
REMARK                            x       y       z     vdW  Elec       q    Type
REMARK                         _______ _______ _______ _____ _____    ______ ____
ROOT
ATOM      1  C   UNL     1       2.941   5.585  -7.481  0.00  0.00    +0.096 C 
ATOM      2  N   UNL     1       3.239   6.086  -8.935  0.00  0.00    -0.303 N 
ATOM      3  C   UNL     1       2.708   4.795  -9.682  0.00  0.00    +0.096 C 
ATOM      4  C   UNL     1       3.426   3.725  -8.667  0.00  0.00    +0.026 C 
ATOM      5  C   UNL     1       4.171   4.524  -7.685  0.00  0.00    +0.026 C 
ENDROOT
BRANCH   2   6
ATOM      6  C   UNL     1       4.499   6.498  -9.406  0.00  0.00    +0.048 A 
ATOM      7  C   UNL     1       4.522   7.554 -10.309  0.00  0.00    +0.014 A 
ATOM      8  C   UNL     1       5.372   7.566 -11.409  0.00  0.00    -0.003 A 
ATOM      9  C   UNL     1       6.254   6.511 -11.602  0.00  0.00    -0.023 A 
ATOM     10  C   UNL     1       6.627   5.881 -10.421  0.00  0.00    -0.003 A 
ATOM     11  C   UNL     1       5.627   5.688  -9.475  0.00  0.00    +0.014 A 
BRANCH   9  12
ATOM     12  C   UNL     1       6.865   6.208 -12.915  0.00  0.00    +0.019 C 
ATOM     13  C   UNL     1       6.755   7.359 -13.858  0.00  0.00    +0.004 C 
ATOM     14  C   UNL     1       8.325   5.840 -12.814  0.00  0.00    +0.004 C 
ATOM     15  C   UNL     1       6.170   5.027 -13.581  0.00  0.00    +0.004 C 
ENDBRANCH   9  12
ENDBRANCH   2   6
BRANCH   1  19
ATOM     16  C   UNL     1       4.551   6.714  -3.986  0.00  0.00    +0.073 A 
ATOM     17  C   UNL     1       3.353   7.263  -4.435  0.00  0.00    +0.016 A 
ATOM     18  C   UNL     1       3.079   7.367  -5.795  0.00  0.00    -0.001 A 
ATOM     19  C   UNL     1       3.848   6.710  -6.752  0.00  0.00    -0.004 A 
ATOM     20  C   UNL     1       5.059   6.238  -6.271  0.00  0.00    -0.001 A 
ATOM     21  C   UNL     1       5.486   6.469  -4.986  0.00  0.00    +0.016 A 
BRANCH  16  23
ATOM     22  C   UNL     1       4.265   7.952  -1.827  0.00  0.00    +0.264 C 
ATOM     23  N   UNL     1       5.114   7.383  -2.842  0.00  0.00    -0.178 NA
ATOM     24  O   UNL     1       3.083   7.947  -2.110  0.00  0.00    -0.271 OA
BRANCH  22  27
ATOM     25  C   UNL     1       3.744   7.921   1.807  0.00  0.00    +0.246 C 
ATOM     26  N   UNL     1       3.484   7.954   0.428  0.00  0.00    -0.272 N 
ATOM     27  C   UNL     1       4.789   7.549  -0.358  0.00  0.00    +0.154 C 
ATOM     28  C   UNL     1       4.397   5.964  -0.508  0.00  0.00    +0.031 C 
ATOM     29  C   UNL     1       2.968   5.879  -0.370  0.00  0.00    +0.024 C 
ATOM     30  C   UNL     1       2.402   7.195  -0.067  0.00  0.00    +0.094 C 
ATOM     31  O   UNL     1       4.285   6.986   2.430  0.00  0.00    -0.273 OA
BRANCH  25  32
ATOM     32  C   UNL     1       3.815   9.261   2.687  0.00  0.00    +0.175 C 
BRANCH  32  33
ATOM     33  C   UNL     1       2.188   9.444   2.716  0.00  0.00    +0.029 C 
ATOM     34  C   UNL     1       1.518   8.367   3.407  0.00  0.00    +0.002 C 
ATOM     35  C   UNL     1       1.897  10.841   3.138  0.00  0.00    +0.002 C 
ENDBRANCH  32  33
BRANCH  32  37
ATOM     36  C   UNL     1       4.914  11.292   1.690  0.00  0.00    +0.422 C 
ATOM     37  N   UNL     1       4.044  10.211   1.451  0.00  0.00    -0.161 NA
ATOM     38  O   UNL     1       5.894  11.205   2.488  0.00  0.00    -0.225 OA
BRANCH  36  40
ATOM     39  C   UNL     1       4.882  12.939   0.167  0.00  0.00    +0.257 C 
ATOM     40  O   UNL     1       4.728  12.575   1.155  0.00  0.00    -0.429 OA
ENDBRANCH  36  40
ENDBRANCH  32  37
ENDBRANCH  25  32
ENDBRANCH  22  27
ENDBRANCH  16  23
ENDBRANCH   1  19
BRANCH   3  41
ATOM     41  C   UNL     1       1.296   4.843  -8.921  0.00  0.00    -0.004 A 
ATOM     42  C   UNL     1       0.210   5.382  -9.468  0.00  0.00    -0.001 A 
ATOM     43  C   UNL     1      -0.908   5.504  -8.651  0.00  0.00    +0.016 A 
ATOM     44  C   UNL     1      -0.846   5.340  -7.271  0.00  0.00    +0.073 A 
ATOM     45  C   UNL     1       0.203   4.531  -6.849  0.00  0.00    +0.016 A 
ATOM     46  C   UNL     1       1.249   4.218  -7.707  0.00  0.00    -0.001 A 
BRANCH  44  47
ATOM     47  N   UNL     1      -1.417   6.316  -6.375  0.00  0.00    -0.178 NA
ATOM     48  C   UNL     1      -1.975   5.784  -5.210  0.00  0.00    +0.264 C 
ATOM     49  O   UNL     1      -2.571   4.668  -5.333  0.00  0.00    -0.271 OA
BRANCH  48  50
ATOM     50  C   UNL     1      -2.725   6.756  -4.178  0.00  0.00    +0.154 C 
ATOM     51  N   UNL     1      -1.466   6.818  -3.232  0.00  0.00    -0.272 N 
ATOM     52  C   UNL     1      -1.757   7.537  -2.070  0.00  0.00    +0.246 C 
ATOM     53  O   UNL     1      -1.999   8.774  -2.215  0.00  0.00    -0.273 OA
ATOM     54  C   UNL     1      -0.342   7.064  -4.059  0.00  0.00    +0.094 C 
ATOM     55  C   UNL     1      -0.831   7.939  -5.156  0.00  0.00    +0.024 C 
ATOM     56  C   UNL     1      -2.281   8.129  -4.957  0.00  0.00    +0.031 C 
BRANCH  52  57
ATOM     57  C   UNL     1      -0.831   7.315  -0.770  0.00  0.00    +0.175 C 
BRANCH  57  58
ATOM     58  N   UNL     1      -1.960   7.927   0.135  0.00  0.00    -0.161 NA
ATOM     59  C   UNL     1      -1.679   8.768   1.180  0.00  0.00    +0.422 C 
ATOM     60  O   UNL     1      -0.811   9.642   0.933  0.00  0.00    -0.225 OA
BRANCH  59  61
ATOM     61  O   UNL     1      -2.650   8.921   2.179  0.00  0.00    -0.429 OA
ATOM     62  C   UNL     1      -3.448   7.787   2.410  0.00  0.00    +0.257 C 
ENDBRANCH  59  61
ENDBRANCH  57  58
BRANCH  57  63
ATOM     63  C   UNL     1      -1.224   5.737  -0.558  0.00  0.00    +0.029 C 
ATOM     64  C   UNL     1      -2.616   5.474  -0.823  0.00  0.00    +0.002 C 
ATOM     65  C   UNL     1      -0.191   4.965  -1.312  0.00  0.00    +0.002 C 
ENDBRANCH  57  63
ENDBRANCH  52  57
ENDBRANCH  48  50
ENDBRANCH  44  47
ENDBRANCH   3  41
TORSDOF 16
ENDMDL
