MODEL 1
REMARK VINA RESULT:      -9.2      0.000      0.000
REMARK  Name = 
REMARK  4 active torsions:
REMARK  status: ('A' for Active; 'I' for Inactive)
REMARK    1  A    between atoms: C_2  and  C_3
REMARK    2  A    between atoms: C_2  and  C_8
REMARK    3  A    between atoms: C_3  and  C_4
REMARK    4  A    between atoms: C_4  and  C_5
REMARK                            x       y       z     vdW  Elec       q    Type
REMARK                         _______ _______ _______ _____ _____    ______ ____
ROOT
ATOM      1  C   UNL     1       4.890   6.852  -9.768  0.00  0.00    +0.000 C 
ATOM      2  C   UNL     1       4.180   5.717  -8.881  0.00  0.00    +0.000 C 
ATOM      3  C   UNL     1       2.777   6.537  -8.985  0.00  0.00    +0.002 C 
ATOM      4  C   UNL     1       2.034   5.202  -8.292  0.00  0.00    +0.030 C 
ATOM      5  C   UNL     1       1.921   6.086  -6.885  0.00  0.00    +0.002 C 
ATOM      6  C   UNL     1       3.433   5.678  -6.446  0.00  0.00    +0.000 C 
ATOM      7  C   UNL     1       1.330   4.849  -6.053  0.00  0.00    +0.000 C 
ATOM      8  C   UNL     1      -0.278   4.843  -6.329  0.00  0.00    +0.005 C 
ATOM      9  C   UNL     1      -0.447   6.480  -6.281  0.00  0.00    +0.033 C 
ATOM     10  C   UNL     1      -0.621   6.609  -4.645  0.00  0.00    +0.152 C 
ATOM     11  C   UNL     1       1.012   6.705  -4.412  0.00  0.00    +0.033 C 
ATOM     12  O   UNL     1      -0.763   8.121  -4.749  0.00  0.00    -0.223 OA
ATOM     13  C   UNL     1      -0.316   4.617  -7.903  0.00  0.00    +0.033 C 
ATOM     14  C   UNL     1       1.942   3.598  -6.419  0.00  0.00    +0.000 C 
ATOM     15  C   UNL     1       1.449   5.281  -4.609  0.00  0.00    +0.003 C 
ATOM     16  C   UNL     1       0.504   5.519  -8.949  0.00  0.00    +0.152 C 
ATOM     17  O   UNL     1       0.316   6.912  -8.358  0.00  0.00    -0.223 OA
ATOM     18  C   UNL     1       2.650   6.064 -10.526  0.00  0.00    +0.000 C 
ATOM     19  C   UNL     1       4.034   4.455  -9.584  0.00  0.00    +0.000 C 
ATOM     20  C   UNL     1       4.412   5.827  -7.483  0.00  0.00    +0.000 C 
ATOM     21  C   UNL     1       3.941   6.557 -11.051  0.00  0.00    +0.000 C 
ENDROOT
BRANCH   1  23
ATOM     22  C   UNL     1       7.221   6.098  -9.215  0.00  0.00    +0.000 C 
ATOM     23  C   UNL     1       6.149   5.907 -10.419  0.00  0.00    +0.001 C 
BRANCH  23  24
ATOM     24  C   UNL     1       6.792   7.170 -11.207  0.00  0.00    +0.012 C 
BRANCH  24  25
ATOM     25  C   UNL     1       7.055   6.790 -12.608  0.00  0.00    +0.114 C 
BRANCH  25  26
ATOM     26  C   UNL     1       8.135   5.787 -12.779  0.00  0.00    +0.365 C 
ATOM     27  O   UNL     1       9.358   5.830 -12.104  0.00  0.00    -0.246 OA
ATOM     28  O   UNL     1       7.735   4.666 -13.215  0.00  0.00    -0.246 OA
ENDBRANCH  25  26
ENDBRANCH  24  25
ENDBRANCH  23  24
ENDBRANCH   1  23
TORSDOF 4
ENDMDL
MODEL 2
REMARK VINA RESULT:      -8.9      2.144      8.078
REMARK  Name = 
REMARK  4 active torsions:
REMARK  status: ('A' for Active; 'I' for Inactive)
REMARK    1  A    between atoms: C_2  and  C_3
REMARK    2  A    between atoms: C_2  and  C_8
REMARK    3  A    between atoms: C_3  and  C_4
REMARK    4  A    between atoms: C_4  and  C_5
REMARK                            x       y       z     vdW  Elec       q    Type
REMARK                         _______ _______ _______ _____ _____    ______ ____
ROOT
ATOM      1  C   UNL     1      -0.452   6.909  -5.732  0.00  0.00    +0.000 C 
ATOM      2  C   UNL     1       0.331   5.734  -6.499  0.00  0.00    +0.000 C 
ATOM      3  C   UNL     1       1.680   6.647  -6.485  0.00  0.00    +0.002 C 
ATOM      4  C   UNL     1       2.507   5.296  -7.037  0.00  0.00    +0.030 C 
ATOM      5  C   UNL     1       2.570   6.034  -8.529  0.00  0.00    +0.002 C 
ATOM      6  C   UNL     1       1.088   5.489  -8.918  0.00  0.00    +0.000 C 
ATOM      7  C   UNL     1       3.239   4.757  -9.229  0.00  0.00    +0.000 C 
ATOM      8  C   UNL     1       4.844   4.880  -8.959  0.00  0.00    +0.005 C 
ATOM      9  C   UNL     1       4.910   6.510  -9.178  0.00  0.00    +0.033 C 
ATOM     10  C   UNL     1       5.082   6.480 -10.819  0.00  0.00    +0.152 C 
ATOM     11  C   UNL     1       3.446   6.448 -11.055  0.00  0.00    +0.033 C 
ATOM     12  O   UNL     1       5.129   8.000 -10.873  0.00  0.00    -0.223 OA
ATOM     13  C   UNL     1       4.890   4.822  -7.371  0.00  0.00    +0.033 C 
ATOM     14  C   UNL     1       2.705   3.515  -8.734  0.00  0.00    +0.000 C 
ATOM     15  C   UNL     1       3.099   5.028 -10.711  0.00  0.00    +0.003 C 
ATOM     16  C   UNL     1       4.011   5.774  -6.421  0.00  0.00    +0.152 C 
ATOM     17  O   UNL     1       4.115   7.107  -7.155  0.00  0.00    -0.223 OA
ATOM     18  C   UNL     1       1.830   6.345  -4.904  0.00  0.00    +0.000 C 
ATOM     19  C   UNL     1       0.552   4.564  -5.669  0.00  0.00    +0.000 C 
ATOM     20  C   UNL     1       0.098   5.684  -7.900  0.00  0.00    +0.000 C 
ATOM     21  C   UNL     1       0.509   6.809  -4.429  0.00  0.00    +0.000 C 
ENDROOT
BRANCH   1  23
ATOM     22  C   UNL     1      -2.765   6.028  -6.163  0.00  0.00    +0.000 C 
ATOM     23  C   UNL     1      -1.652   5.960  -4.983  0.00  0.00    +0.001 C 
BRANCH  23  24
ATOM     24  C   UNL     1      -2.324   7.246  -4.259  0.00  0.00    +0.012 C 
BRANCH  24  25
ATOM     25  C   UNL     1      -3.050   6.805  -3.054  0.00  0.00    +0.114 C 
BRANCH  25  26
ATOM     26  C   UNL     1      -2.229   6.023  -2.095  0.00  0.00    +0.365 C 
ATOM     27  O   UNL     1      -1.393   6.593  -1.133  0.00  0.00    -0.246 OA
ATOM     28  O   UNL     1      -2.652   4.844  -1.894  0.00  0.00    -0.246 OA
ENDBRANCH  25  26
ENDBRANCH  24  25
ENDBRANCH  23  24
ENDBRANCH   1  23
TORSDOF 4
ENDMDL
MODEL 3
REMARK VINA RESULT:      -8.7      2.680      4.249
REMARK  Name = 
REMARK  4 active torsions:
REMARK  status: ('A' for Active; 'I' for Inactive)
REMARK    1  A    between atoms: C_2  and  C_3
REMARK    2  A    between atoms: C_2  and  C_8
REMARK    3  A    between atoms: C_3  and  C_4
REMARK    4  A    between atoms: C_4  and  C_5
REMARK                            x       y       z     vdW  Elec       q    Type
REMARK                         _______ _______ _______ _____ _____    ______ ____
ROOT
ATOM      1  C   UNL     1       2.177   6.476  -9.433  0.00  0.00    +0.000 C 
ATOM      2  C   UNL     1       2.739   5.566  -8.235  0.00  0.00    +0.000 C 
ATOM      3  C   UNL     1       1.885   6.462  -7.177  0.00  0.00    +0.002 C 
ATOM      4  C   UNL     1       2.285   5.325  -6.010  0.00  0.00    +0.030 C 
ATOM      5  C   UNL     1       3.356   6.440  -5.393  0.00  0.00    +0.002 C 
ATOM      6  C   UNL     1       4.507   5.998  -6.454  0.00  0.00    +0.000 C 
ATOM      7  C   UNL     1       3.939   5.411  -4.310  0.00  0.00    +0.000 C 
ATOM      8  C   UNL     1       2.931   5.482  -3.029  0.00  0.00    +0.005 C 
ATOM      9  C   UNL     1       2.707   7.111  -3.101  0.00  0.00    +0.033 C 
ATOM     10  C   UNL     1       4.034   7.529  -2.214  0.00  0.00    +0.152 C 
ATOM     11  C   UNL     1       5.006   7.537  -3.550  0.00  0.00    +0.033 C 
ATOM     12  O   UNL     1       3.704   9.008  -2.361  0.00  0.00    -0.223 OA
ATOM     13  C   UNL     1       1.567   4.996  -3.688  0.00  0.00    +0.033 C 
ATOM     14  C   UNL     1       4.054   4.073  -4.829  0.00  0.00    +0.000 C 
ATOM     15  C   UNL     1       5.205   6.071  -3.812  0.00  0.00    +0.003 C 
ATOM     16  C   UNL     1       0.946   5.641  -5.021  0.00  0.00    +0.152 C 
ATOM     17  O   UNL     1       1.213   7.124  -4.789  0.00  0.00    -0.223 OA
ATOM     18  C   UNL     1       0.536   5.745  -7.706  0.00  0.00    +0.000 C 
ATOM     19  C   UNL     1       2.200   4.218  -8.246  0.00  0.00    +0.000 C 
ATOM     20  C   UNL     1       4.055   5.893  -7.810  0.00  0.00    +0.000 C 
ATOM     21  C   UNL     1       0.640   6.042  -9.150  0.00  0.00    +0.000 C 
ENDROOT
BRANCH   1  23
ATOM     22  C   UNL     1       3.786   5.782 -11.233  0.00  0.00    +0.000 C 
ATOM     23  C   UNL     1       2.318   5.341 -10.696  0.00  0.00    +0.001 C 
BRANCH  23  24
ATOM     24  C   UNL     1       1.615   6.333 -11.768  0.00  0.00    +0.012 C 
BRANCH  24  25
ATOM     25  C   UNL     1       0.857   5.533 -12.749  0.00  0.00    +0.114 C 
BRANCH  25  26
ATOM     26  C   UNL     1       1.500   5.430 -14.084  0.00  0.00    +0.365 C 
ATOM     27  O   UNL     1       2.632   4.657 -14.350  0.00  0.00    -0.246 OA
ATOM     28  O   UNL     1       0.730   5.712 -15.051  0.00  0.00    -0.246 OA
ENDBRANCH  25  26
ENDBRANCH  24  25
ENDBRANCH  23  24
ENDBRANCH   1  23
TORSDOF 4
ENDMDL
MODEL 4
REMARK VINA RESULT:      -8.6      3.389      5.598
REMARK  Name = 
REMARK  4 active torsions:
REMARK  status: ('A' for Active; 'I' for Inactive)
REMARK    1  A    between atoms: C_2  and  C_3
REMARK    2  A    between atoms: C_2  and  C_8
REMARK    3  A    between atoms: C_3  and  C_4
REMARK    4  A    between atoms: C_4  and  C_5
REMARK                            x       y       z     vdW  Elec       q    Type
REMARK                         _______ _______ _______ _____ _____    ______ ____
ROOT
ATOM      1  C   UNL     1       1.292   6.547  -7.017  0.00  0.00    +0.000 C 
ATOM      2  C   UNL     1       2.283   5.920  -5.919  0.00  0.00    +0.000 C 
ATOM      3  C   UNL     1       1.212   6.307  -4.755  0.00  0.00    +0.002 C 
ATOM      4  C   UNL     1       2.153   5.407  -3.698  0.00  0.00    +0.030 C 
ATOM      5  C   UNL     1       2.682   6.849  -3.056  0.00  0.00    +0.002 C 
ATOM      6  C   UNL     1       3.825   7.000  -4.203  0.00  0.00    +0.000 C 
ATOM      7  C   UNL     1       3.734   6.130  -2.082  0.00  0.00    +0.000 C 
ATOM      8  C   UNL     1       2.898   5.698  -0.750  0.00  0.00    +0.005 C 
ATOM      9  C   UNL     1       1.988   7.068  -0.690  0.00  0.00    +0.033 C 
ATOM     10  C   UNL     1       3.069   7.983   0.157  0.00  0.00    +0.152 C 
ATOM     11  C   UNL     1       3.836   8.473  -1.223  0.00  0.00    +0.033 C 
ATOM     12  O   UNL     1       2.124   9.175   0.136  0.00  0.00    -0.223 OA
ATOM     13  C   UNL     1       1.831   4.696  -1.372  0.00  0.00    +0.033 C 
ATOM     14  C   UNL     1       4.375   5.000  -2.704  0.00  0.00    +0.000 C 
ATOM     15  C   UNL     1       4.626   7.253  -1.602  0.00  0.00    +0.003 C 
ATOM     16  C   UNL     1       0.890   5.065  -2.621  0.00  0.00    +0.152 C 
ATOM     17  O   UNL     1       0.508   6.505  -2.295  0.00  0.00    -0.223 OA
ATOM     18  C   UNL     1       0.268   5.099  -5.267  0.00  0.00    +0.000 C 
ATOM     19  C   UNL     1       2.380   4.474  -6.001  0.00  0.00    +0.000 C 
ATOM     20  C   UNL     1       3.358   6.769  -5.539  0.00  0.00    +0.000 C 
ATOM     21  C   UNL     1       0.120   5.475  -6.689  0.00  0.00    +0.000 C 
ENDROOT
BRANCH   1  23
ATOM     22  C   UNL     1       2.803   6.753  -9.013  0.00  0.00    +0.000 C 
ATOM     23  C   UNL     1       1.811   5.644  -8.365  0.00  0.00    +0.001 C 
BRANCH  23  24
ATOM     24  C   UNL     1       0.591   6.180  -9.289  0.00  0.00    +0.012 C 
BRANCH  24  25
ATOM     25  C   UNL     1       0.250   5.153 -10.292  0.00  0.00    +0.114 C 
BRANCH  25  26
ATOM     26  C   UNL     1       0.447   5.583 -11.700  0.00  0.00    +0.365 C 
ATOM     27  O   UNL     1       0.887   6.853 -12.076  0.00  0.00    -0.246 OA
ATOM     28  O   UNL     1       0.625   4.625 -12.511  0.00  0.00    -0.246 OA
ENDBRANCH  25  26
ENDBRANCH  24  25
ENDBRANCH  23  24
ENDBRANCH   1  23
TORSDOF 4
ENDMDL
MODEL 5
REMARK VINA RESULT:      -8.3      3.108      7.115
REMARK  Name = 
REMARK  4 active torsions:
REMARK  status: ('A' for Active; 'I' for Inactive)
REMARK    1  A    between atoms: C_2  and  C_3
REMARK    2  A    between atoms: C_2  and  C_8
REMARK    3  A    between atoms: C_3  and  C_4
REMARK    4  A    between atoms: C_4  and  C_5
REMARK                            x       y       z     vdW  Elec       q    Type
REMARK                         _______ _______ _______ _____ _____    ______ ____
ROOT
ATOM      1  C   UNL     1       1.495   6.511  -3.972  0.00  0.00    +0.000 C 
ATOM      2  C   UNL     1       1.854   5.508  -5.174  0.00  0.00    +0.000 C 
ATOM      3  C   UNL     1       2.063   6.789  -6.158  0.00  0.00    +0.002 C 
ATOM      4  C   UNL     1       2.686   5.720  -7.291  0.00  0.00    +0.030 C 
ATOM      5  C   UNL     1       1.257   5.888  -8.128  0.00  0.00    +0.002 C 
ATOM      6  C   UNL     1       0.530   4.754  -7.216  0.00  0.00    +0.000 C 
ATOM      7  C   UNL     1       1.660   4.777  -9.212  0.00  0.00    +0.000 C 
ATOM      8  C   UNL     1       2.557   5.546 -10.337  0.00  0.00    +0.005 C 
ATOM      9  C   UNL     1       1.649   6.918 -10.344  0.00  0.00    +0.033 C 
ATOM     10  C   UNL     1       0.526   6.404 -11.437  0.00  0.00    +0.152 C 
ATOM     11  C   UNL     1      -0.405   5.715 -10.258  0.00  0.00    +0.033 C 
ATOM     12  O   UNL     1      -0.217   7.729 -11.345  0.00  0.00    -0.223 OA
ATOM     13  C   UNL     1       3.786   6.043  -9.459  0.00  0.00    +0.033 C 
ATOM     14  C   UNL     1       2.369   3.669  -8.626  0.00  0.00    +0.000 C 
ATOM     15  C   UNL     1       0.365   4.468  -9.929  0.00  0.00    +0.003 C 
ATOM     16  C   UNL     1       3.624   6.879  -8.097  0.00  0.00    +0.152 C 
ATOM     17  O   UNL     1       2.492   7.833  -8.464  0.00  0.00    -0.223 OA
ATOM     18  C   UNL     1       3.452   7.108  -5.394  0.00  0.00    +0.000 C 
ATOM     19  C   UNL     1       3.132   4.843  -4.997  0.00  0.00    +0.000 C 
ATOM     20  C   UNL     1       0.727   4.912  -5.804  0.00  0.00    +0.000 C 
ATOM     21  C   UNL     1       2.962   7.202  -4.003  0.00  0.00    +0.000 C 
ENDROOT
BRANCH   1  23
ATOM     22  C   UNL     1       0.451   5.009  -2.250  0.00  0.00    +0.000 C 
ATOM     23  C   UNL     1       1.939   5.507  -2.670  0.00  0.00    +0.001 C 
BRANCH  23  24
ATOM     24  C   UNL     1       1.845   6.723  -1.601  0.00  0.00    +0.012 C 
BRANCH  24  25
ATOM     25  C   UNL     1       2.600   6.364  -0.386  0.00  0.00    +0.114 C 
BRANCH  25  26
ATOM     26  C   UNL     1       4.049   6.133  -0.610  0.00  0.00    +0.365 C 
ATOM     27  O   UNL     1       5.013   7.145  -0.610  0.00  0.00    -0.246 OA
ATOM     28  O   UNL     1       4.429   4.950  -0.358  0.00  0.00    -0.246 OA
ENDBRANCH  25  26
ENDBRANCH  24  25
ENDBRANCH  23  24
ENDBRANCH   1  23
TORSDOF 4
ENDMDL
MODEL 6
REMARK VINA RESULT:      -8.3      3.181      4.233
REMARK  Name = 
REMARK  4 active torsions:
REMARK  status: ('A' for Active; 'I' for Inactive)
REMARK    1  A    between atoms: C_2  and  C_3
REMARK    2  A    between atoms: C_2  and  C_8
REMARK    3  A    between atoms: C_3  and  C_4
REMARK    4  A    between atoms: C_4  and  C_5
REMARK                            x       y       z     vdW  Elec       q    Type
REMARK                         _______ _______ _______ _____ _____    ______ ____
ROOT
ATOM      1  C   UNL     1       1.936   6.595 -10.966  0.00  0.00    +0.000 C 
ATOM      2  C   UNL     1       1.991   5.474  -9.817  0.00  0.00    +0.000 C 
ATOM      3  C   UNL     1       1.451   6.572  -8.743  0.00  0.00    +0.002 C 
ATOM      4  C   UNL     1       1.272   5.308  -7.655  0.00  0.00    +0.030 C 
ATOM      5  C   UNL     1       2.627   5.884  -6.875  0.00  0.00    +0.002 C 
ATOM      6  C   UNL     1       3.614   5.086  -7.892  0.00  0.00    +0.000 C 
ATOM      7  C   UNL     1       2.665   4.652  -5.849  0.00  0.00    +0.000 C 
ATOM      8  C   UNL     1       1.646   5.040  -4.636  0.00  0.00    +0.005 C 
ATOM      9  C   UNL     1       2.072   6.629  -4.581  0.00  0.00    +0.033 C 
ATOM     10  C   UNL     1       3.368   6.449  -3.576  0.00  0.00    +0.152 C 
ATOM     11  C   UNL     1       4.391   6.149  -4.840  0.00  0.00    +0.033 C 
ATOM     12  O   UNL     1       3.647   7.944  -3.616  0.00  0.00    -0.223 OA
ATOM     13  C   UNL     1       0.269   5.160  -5.422  0.00  0.00    +0.033 C 
ATOM     14  C   UNL     1       2.307   3.405  -6.473  0.00  0.00    +0.000 C 
ATOM     15  C   UNL     1       4.035   4.739  -5.214  0.00  0.00    +0.003 C 
ATOM     16  C   UNL     1       0.071   6.067  -6.732  0.00  0.00    +0.152 C 
ATOM     17  O   UNL     1       0.864   7.315  -6.356  0.00  0.00    -0.223 OA
ATOM     18  C   UNL     1      -0.014   6.468  -9.419  0.00  0.00    +0.000 C 
ATOM     19  C   UNL     1       0.979   4.445  -9.978  0.00  0.00    +0.000 C 
ATOM     20  C   UNL     1       3.286   5.239  -9.279  0.00  0.00    +0.000 C 
ATOM     21  C   UNL     1       0.331   6.779 -10.823  0.00  0.00    +0.000 C 
ENDROOT
BRANCH   1  23
ATOM     22  C   UNL     1       3.243   5.722 -12.926  0.00  0.00    +0.000 C 
ATOM     23  C   UNL     1       1.749   5.564 -12.310  0.00  0.00    +0.001 C 
BRANCH  23  24
ATOM     24  C   UNL     1       1.219   6.769 -13.256  0.00  0.00    +0.012 C 
BRANCH  24  25
ATOM     25  C   UNL     1       1.063   6.274 -14.636  0.00  0.00    +0.114 C 
BRANCH  25  26
ATOM     26  C   UNL     1       0.724   7.323 -15.630  0.00  0.00    +0.365 C 
ATOM     27  O   UNL     1       0.866   8.693 -15.401  0.00  0.00    -0.246 OA
ATOM     28  O   UNL     1       0.724   6.916 -16.831  0.00  0.00    -0.246 OA
ENDBRANCH  25  26
ENDBRANCH  24  25
ENDBRANCH  23  24
ENDBRANCH   1  23
TORSDOF 4
ENDMDL
MODEL 7
REMARK VINA RESULT:      -8.1      3.126      7.823
REMARK  Name = 
REMARK  4 active torsions:
REMARK  status: ('A' for Active; 'I' for Inactive)
REMARK    1  A    between atoms: C_2  and  C_3
REMARK    2  A    between atoms: C_2  and  C_8
REMARK    3  A    between atoms: C_3  and  C_4
REMARK    4  A    between atoms: C_4  and  C_5
REMARK                            x       y       z     vdW  Elec       q    Type
REMARK                         _______ _______ _______ _____ _____    ______ ____
ROOT
ATOM      1  C   UNL     1       1.576   6.524  -3.819  0.00  0.00    +0.000 C 
ATOM      2  C   UNL     1       1.937   5.518  -5.018  0.00  0.00    +0.000 C 
ATOM      3  C   UNL     1       2.131   6.796  -6.009  0.00  0.00    +0.002 C 
ATOM      4  C   UNL     1       2.756   5.727  -7.140  0.00  0.00    +0.030 C 
ATOM      5  C   UNL     1       1.321   5.879  -7.970  0.00  0.00    +0.002 C 
ATOM      6  C   UNL     1       0.608   4.743  -7.049  0.00  0.00    +0.000 C 
ATOM      7  C   UNL     1       1.729   4.766  -9.051  0.00  0.00    +0.000 C 
ATOM      8  C   UNL     1       2.613   5.537 -10.185  0.00  0.00    +0.005 C 
ATOM      9  C   UNL     1       1.694   6.902 -10.193  0.00  0.00    +0.033 C 
ATOM     10  C   UNL     1       0.569   6.373 -11.279  0.00  0.00    +0.152 C 
ATOM     11  C   UNL     1      -0.349   5.682 -10.091  0.00  0.00    +0.033 C 
ATOM     12  O   UNL     1      -0.184   7.693 -11.188  0.00  0.00    -0.223 OA
ATOM     13  C   UNL     1       3.842   6.048  -9.316  0.00  0.00    +0.033 C 
ATOM     14  C   UNL     1       2.449   3.667  -8.463  0.00  0.00    +0.000 C 
ATOM     15  C   UNL     1       0.432   4.443  -9.760  0.00  0.00    +0.003 C 
ATOM     16  C   UNL     1       3.681   6.889  -7.957  0.00  0.00    +0.152 C 
ATOM     17  O   UNL     1       2.539   7.833  -8.322  0.00  0.00    -0.223 OA
ATOM     18  C   UNL     1       3.521   7.130  -5.254  0.00  0.00    +0.000 C 
ATOM     19  C   UNL     1       3.221   4.865  -4.844  0.00  0.00    +0.000 C 
ATOM     20  C   UNL     1       0.812   4.910  -5.640  0.00  0.00    +0.000 C 
ATOM     21  C   UNL     1       3.037   7.226  -3.860  0.00  0.00    +0.000 C 
ENDROOT
BRANCH   1  23
ATOM     22  C   UNL     1       0.562   4.960  -2.134  0.00  0.00    +0.000 C 
ATOM     23  C   UNL     1       2.035   5.529  -2.514  0.00  0.00    +0.001 C 
BRANCH  23  24
ATOM     24  C   UNL     1       1.860   6.730  -1.439  0.00  0.00    +0.012 C 
BRANCH  24  25
ATOM     25  C   UNL     1       0.838   6.351  -0.445  0.00  0.00    +0.114 C 
BRANCH  25  26
ATOM     26  C   UNL     1       0.538   7.404   0.558  0.00  0.00    +0.365 C 
ATOM     27  O   UNL     1      -0.210   8.551   0.289  0.00  0.00    -0.246 OA
ATOM     28  O   UNL     1       0.608   7.006   1.761  0.00  0.00    -0.246 OA
ENDBRANCH  25  26
ENDBRANCH  24  25
ENDBRANCH  23  24
ENDBRANCH   1  23
TORSDOF 4
ENDMDL
MODEL 8
REMARK VINA RESULT:      -8.1      3.637      7.542
REMARK  Name = 
REMARK  4 active torsions:
REMARK  status: ('A' for Active; 'I' for Inactive)
REMARK    1  A    between atoms: C_2  and  C_3
REMARK    2  A    between atoms: C_2  and  C_8
REMARK    3  A    between atoms: C_3  and  C_4
REMARK    4  A    between atoms: C_4  and  C_5
REMARK                            x       y       z     vdW  Elec       q    Type
REMARK                         _______ _______ _______ _____ _____    ______ ____
ROOT
ATOM      1  C   UNL     1       3.363   7.648  -3.069  0.00  0.00    +0.000 C 
ATOM      2  C   UNL     1       3.040   6.287  -3.857  0.00  0.00    +0.000 C 
ATOM      3  C   UNL     1       3.440   7.020  -5.254  0.00  0.00    +0.002 C 
ATOM      4  C   UNL     1       3.349   5.512  -5.983  0.00  0.00    +0.030 C 
ATOM      5  C   UNL     1       1.911   6.007  -6.662  0.00  0.00    +0.002 C 
ATOM      6  C   UNL     1       1.079   5.595  -5.327  0.00  0.00    +0.000 C 
ATOM      7  C   UNL     1       1.620   4.568  -7.306  0.00  0.00    +0.000 C 
ATOM      8  C   UNL     1       2.424   4.534  -8.725  0.00  0.00    +0.005 C 
ATOM      9  C   UNL     1       2.086   6.093  -9.129  0.00  0.00    +0.033 C 
ATOM     10  C   UNL     1       0.623   5.799  -9.832  0.00  0.00    +0.152 C 
ATOM     11  C   UNL     1      -0.171   5.931  -8.389  0.00  0.00    +0.033 C 
ATOM     12  O   UNL     1       0.441   7.277 -10.146  0.00  0.00    -0.223 OA
ATOM     13  C   UNL     1       3.925   4.707  -8.227  0.00  0.00    +0.033 C 
ATOM     14  C   UNL     1       2.013   3.488  -6.440  0.00  0.00    +0.000 C 
ATOM     15  C   UNL     1       0.165   4.631  -7.716  0.00  0.00    +0.003 C 
ATOM     16  C   UNL     1       4.406   5.889  -7.252  0.00  0.00    +0.152 C 
ATOM     17  O   UNL     1       3.631   7.076  -7.814  0.00  0.00    -0.223 OA
ATOM     18  C   UNL     1       4.994   6.941  -4.815  0.00  0.00    +0.000 C 
ATOM     19  C   UNL     1       4.004   5.234  -3.591  0.00  0.00    +0.000 C 
ATOM     20  C   UNL     1       1.659   6.057  -4.100  0.00  0.00    +0.000 C 
ATOM     21  C   UNL     1       4.925   7.627  -3.508  0.00  0.00    +0.000 C 
ENDROOT
BRANCH   1  23
ATOM     22  C   UNL     1       2.229   6.985  -0.928  0.00  0.00    +0.000 C 
ATOM     23  C   UNL     1       3.730   6.974  -1.547  0.00  0.00    +0.001 C 
BRANCH  23  24
ATOM     24  C   UNL     1       4.024   8.427  -0.890  0.00  0.00    +0.012 C 
BRANCH  24  25
ATOM     25  C   UNL     1       3.678   8.394   0.543  0.00  0.00    +0.114 C 
BRANCH  25  26
ATOM     26  C   UNL     1       4.796   7.993   1.435  0.00  0.00    +0.365 C 
ATOM     27  O   UNL     1       5.612   8.894   2.121  0.00  0.00    -0.246 OA
ATOM     28  O   UNL     1       4.695   6.814   1.890  0.00  0.00    -0.246 OA
ENDBRANCH  25  26
ENDBRANCH  24  25
ENDBRANCH  23  24
ENDBRANCH   1  23
TORSDOF 4
ENDMDL
MODEL 9
REMARK VINA RESULT:      -7.9      3.190      8.285
REMARK  Name = 
REMARK  4 active torsions:
REMARK  status: ('A' for Active; 'I' for Inactive)
REMARK    1  A    between atoms: C_2  and  C_3
REMARK    2  A    between atoms: C_2  and  C_8
REMARK    3  A    between atoms: C_3  and  C_4
REMARK    4  A    between atoms: C_4  and  C_5
REMARK                            x       y       z     vdW  Elec       q    Type
REMARK                         _______ _______ _______ _____ _____    ______ ____
ROOT
ATOM      1  C   UNL     1      -1.161   6.534  -5.038  0.00  0.00    +0.000 C 
ATOM      2  C   UNL     1      -0.246   5.527  -5.892  0.00  0.00    +0.000 C 
ATOM      3  C   UNL     1       0.389   6.801  -6.683  0.00  0.00    +0.002 C 
ATOM      4  C   UNL     1       1.502   5.736  -7.346  0.00  0.00    +0.030 C 
ATOM      5  C   UNL     1       0.653   5.852  -8.774  0.00  0.00    +0.002 C 
ATOM      6  C   UNL     1      -0.403   4.710  -8.299  0.00  0.00    +0.000 C 
ATOM      7  C   UNL     1       1.552   4.740  -9.500  0.00  0.00    +0.000 C 
ATOM      8  C   UNL     1       2.866   5.519 -10.071  0.00  0.00    +0.005 C 
ATOM      9  C   UNL     1       2.049   6.866 -10.549  0.00  0.00    +0.033 C 
ATOM     10  C   UNL     1       1.606   6.306 -12.036  0.00  0.00    +0.152 C 
ATOM     11  C   UNL     1       0.234   5.606 -11.437  0.00  0.00    +0.033 C 
ATOM     12  O   UNL     1       0.886   7.611 -12.347  0.00  0.00    -0.223 OA
ATOM     13  C   UNL     1       3.508   6.062  -8.720  0.00  0.00    +0.033 C 
ATOM     14  C   UNL     1       1.908   3.659  -8.618  0.00  0.00    +0.000 C 
ATOM     15  C   UNL     1       0.771   4.385 -10.746  0.00  0.00    +0.003 C 
ATOM     16  C   UNL     1       2.691   6.910  -7.627  0.00  0.00    +0.152 C 
ATOM     17  O   UNL     1       1.861   7.827  -8.518  0.00  0.00    -0.223 OA
ATOM     18  C   UNL     1       1.229   7.169  -5.351  0.00  0.00    +0.000 C 
ATOM     19  C   UNL     1       0.799   4.901  -5.102  0.00  0.00    +0.000 C 
ATOM     20  C   UNL     1      -0.916   4.891  -6.973  0.00  0.00    +0.000 C 
ATOM     21  C   UNL     1       0.125   7.266  -4.372  0.00  0.00    +0.000 C 
ENDROOT
BRANCH   1  23
ATOM     22  C   UNL     1      -2.913   5.099  -3.952  0.00  0.00    +0.000 C 
ATOM     23  C   UNL     1      -1.384   5.560  -3.659  0.00  0.00    +0.001 C 
BRANCH  23  24
ATOM     24  C   UNL     1      -1.917   6.806  -2.770  0.00  0.00    +0.012 C 
BRANCH  24  25
ATOM     25  C   UNL     1      -2.351   6.315  -1.449  0.00  0.00    +0.114 C 
BRANCH  25  26
ATOM     26  C   UNL     1      -1.289   6.322  -0.413  0.00  0.00    +0.365 C 
ATOM     27  O   UNL     1       0.062   6.556  -0.678  0.00  0.00    -0.246 OA
ATOM     28  O   UNL     1      -1.714   6.548   0.761  0.00  0.00    -0.246 OA
ENDBRANCH  25  26
ENDBRANCH  24  25
ENDBRANCH  23  24
ENDBRANCH   1  23
TORSDOF 4
ENDMDL
