MODEL 1
REMARK VINA RESULT:      -8.5      0.000      0.000
REMARK  Name = 
REMARK  7 active torsions:
REMARK  status: ('A' for Active; 'I' for Inactive)
REMARK    1  A    between atoms: C_2  and  C_3
REMARK    2  A    between atoms: C_3  and  C_5
REMARK    3  A    between atoms: C_5  and  O_7
REMARK    4  A    between atoms: O_7  and  C_8
REMARK    5  A    between atoms: C_18  and  C_19
REMARK    6  A    between atoms: C_19  and  C_20
REMARK    7  A    between atoms: C_20  and  C_21
REMARK                            x       y       z     vdW  Elec       q    Type
REMARK                         _______ _______ _______ _____ _____    ______ ____
ROOT
ATOM      1  C   UNL     1       2.375   7.177  -6.433  0.00  0.00    +0.173 C 
ATOM      2  C   UNL     1       3.131   6.063  -7.532  0.00  0.00    +0.062 C 
ATOM      3  C   UNL     1       2.365   4.746  -7.073  0.00  0.00    -0.024 C 
ATOM      4  C   UNL     1       2.549   3.760  -8.172  0.00  0.00    -0.009 C 
ATOM      5  C   UNL     1       2.105   4.208  -9.354  0.00  0.00    -0.027 C 
ATOM      6  C   UNL     1       1.020   5.275  -8.796  0.00  0.00    +0.022 C 
ATOM      7  C   UNL     1       0.502   5.671 -10.299  0.00  0.00    +0.005 C 
ATOM      8  C   UNL     1       2.921   4.273  -5.975  0.00  0.00    -0.030 C 
ATOM      9  C   UNL     1       3.957   5.391  -5.390  0.00  0.00    +0.025 C 
ATOM     10  C   UNL     1       3.878   4.699  -3.884  0.00  0.00    +0.005 C 
ATOM     11  C   UNL     1       2.072   6.627  -8.739  0.00  0.00    +0.012 C 
ATOM     12  C   UNL     1       2.680   6.358  -5.036  0.00  0.00    +0.048 C 
ENDROOT
BRANCH   1  13
ATOM     13  O   UNL     1       0.976   6.504  -6.567  0.00  0.00    -0.452 OA
BRANCH  13  14
ATOM     14  C   UNL     1       0.228   6.813  -5.460  0.00  0.00    +0.316 C 
ATOM     15  O   UNL     1      -0.084   7.978  -5.290  0.00  0.00    -0.250 OA
BRANCH  14  16
ATOM     16  C   UNL     1      -0.754   5.628  -4.953  0.00  0.00    +0.099 C 
ATOM     17  C   UNL     1      -1.980   6.713  -4.680  0.00  0.00    +0.012 C 
BRANCH  16  19
ATOM     18  C   UNL     1      -2.618   5.752  -6.405  0.00  0.00    +0.001 C 
ATOM     19  C   UNL     1      -1.367   5.278  -6.455  0.00  0.00    +0.011 C 
ENDBRANCH  16  19
ENDBRANCH  14  16
ENDBRANCH  13  14
ENDBRANCH   1  13
BRANCH  11  20
ATOM     20  C   UNL     1       3.060   6.189  -9.944  0.00  0.00    +0.004 C 
BRANCH  20  21
ATOM     21  C   UNL     1       4.083   7.254 -10.184  0.00  0.00    +0.044 C 
BRANCH  21  22
ATOM     22  C   UNL     1       5.412   6.301 -10.523  0.00  0.00    +0.171 C 
ATOM     23  O   UNL     1       4.758   5.656 -11.797  0.00  0.00    -0.452 OA
ATOM     24  C   UNL     1       5.868   5.388 -12.621  0.00  0.00    +0.319 C 
ATOM     25  O   UNL     1       5.919   5.551 -13.842  0.00  0.00    -0.250 OA
ATOM     26  C   UNL     1       7.109   5.281 -11.856  0.00  0.00    +0.142 C 
ATOM     27  C   UNL     1       7.631   6.860 -11.617  0.00  0.00    +0.167 C 
ATOM     28  O   UNL     1       7.764   6.644 -10.093  0.00  0.00    -0.222 OA
ATOM     29  C   UNL     1       6.090   7.504 -11.460  0.00  0.00    +0.077 C 
ENDBRANCH  21  22
ENDBRANCH  20  21
ENDBRANCH  11  20
TORSDOF 7
ENDMDL
MODEL 2
REMARK VINA RESULT:      -8.2      2.031      7.825
REMARK  Name = 
REMARK  7 active torsions:
REMARK  status: ('A' for Active; 'I' for Inactive)
REMARK    1  A    between atoms: C_2  and  C_3
REMARK    2  A    between atoms: C_3  and  C_5
REMARK    3  A    between atoms: C_5  and  O_7
REMARK    4  A    between atoms: O_7  and  C_8
REMARK    5  A    between atoms: C_18  and  C_19
REMARK    6  A    between atoms: C_19  and  C_20
REMARK    7  A    between atoms: C_20  and  C_21
REMARK                            x       y       z     vdW  Elec       q    Type
REMARK                         _______ _______ _______ _____ _____    ______ ____
ROOT
ATOM      1  C   UNL     1       2.014   7.113  -8.854  0.00  0.00    +0.173 C 
ATOM      2  C   UNL     1       1.391   6.010  -7.664  0.00  0.00    +0.062 C 
ATOM      3  C   UNL     1       2.192   4.714  -8.124  0.00  0.00    -0.024 C 
ATOM      4  C   UNL     1       2.132   3.766  -6.978  0.00  0.00    -0.009 C 
ATOM      5  C   UNL     1       2.629   4.284  -5.847  0.00  0.00    -0.027 C 
ATOM      6  C   UNL     1       3.618   5.379  -6.518  0.00  0.00    +0.022 C 
ATOM      7  C   UNL     1       4.213   5.862  -5.069  0.00  0.00    +0.005 C 
ATOM      8  C   UNL     1       1.590   4.169  -9.163  0.00  0.00    -0.030 C 
ATOM      9  C   UNL     1       0.462   5.210  -9.718  0.00  0.00    +0.025 C 
ATOM     10  C   UNL     1       0.477   4.461 -11.199  0.00  0.00    +0.005 C 
ATOM     11  C   UNL     1       2.497   6.674  -6.554  0.00  0.00    +0.012 C 
ATOM     12  C   UNL     1       1.661   6.223 -10.194  0.00  0.00    +0.048 C 
ENDROOT
BRANCH   1  13
ATOM     13  O   UNL     1       3.452   6.515  -8.789  0.00  0.00    -0.452 OA
BRANCH  13  14
ATOM     14  C   UNL     1       4.076   6.731  -9.991  0.00  0.00    +0.316 C 
ATOM     15  O   UNL     1       4.309   7.883 -10.313  0.00  0.00    -0.250 OA
BRANCH  14  16
ATOM     16  C   UNL     1       5.065   5.539 -10.466  0.00  0.00    +0.099 C 
ATOM     17  C   UNL     1       6.116   6.632 -11.140  0.00  0.00    +0.012 C 
BRANCH  16  19
ATOM     18  C   UNL     1       7.194   5.823  -9.473  0.00  0.00    +0.001 C 
ATOM     19  C   UNL     1       5.958   5.510  -9.067  0.00  0.00    +0.011 C 
ENDBRANCH  16  19
ENDBRANCH  14  16
ENDBRANCH  13  14
ENDBRANCH   1  13
BRANCH  11  20
ATOM     20  C   UNL     1       1.614   6.238  -5.269  0.00  0.00    +0.004 C 
BRANCH  20  21
ATOM     21  C   UNL     1       0.309   6.968  -5.270  0.00  0.00    +0.044 C 
BRANCH  21  22
ATOM     22  C   UNL     1      -0.068   6.880  -3.645  0.00  0.00    +0.171 C 
ATOM     23  O   UNL     1      -1.575   6.519  -3.905  0.00  0.00    -0.452 OA
ATOM     24  C   UNL     1      -1.908   5.729  -2.789  0.00  0.00    +0.319 C 
ATOM     25  O   UNL     1      -2.602   4.709  -2.804  0.00  0.00    -0.250 OA
ATOM     26  C   UNL     1      -1.025   5.981  -1.652  0.00  0.00    +0.142 C 
ATOM     27  C   UNL     1       0.350   5.057  -1.931  0.00  0.00    +0.167 C 
ATOM     28  O   UNL     1       1.277   6.277  -1.732  0.00  0.00    -0.222 OA
ATOM     29  C   UNL     1       0.329   5.260  -3.597  0.00  0.00    +0.077 C 
ENDBRANCH  21  22
ENDBRANCH  20  21
ENDBRANCH  11  20
TORSDOF 7
ENDMDL
MODEL 3
REMARK VINA RESULT:      -8.1      1.804      7.938
REMARK  Name = 
REMARK  7 active torsions:
REMARK  status: ('A' for Active; 'I' for Inactive)
REMARK    1  A    between atoms: C_2  and  C_3
REMARK    2  A    between atoms: C_3  and  C_5
REMARK    3  A    between atoms: C_5  and  O_7
REMARK    4  A    between atoms: O_7  and  C_8
REMARK    5  A    between atoms: C_18  and  C_19
REMARK    6  A    between atoms: C_19  and  C_20
REMARK    7  A    between atoms: C_20  and  C_21
REMARK                            x       y       z     vdW  Elec       q    Type
REMARK                         _______ _______ _______ _____ _____    ______ ____
ROOT
ATOM      1  C   UNL     1       2.233   7.178  -8.985  0.00  0.00    +0.173 C 
ATOM      2  C   UNL     1       1.578   6.164  -7.734  0.00  0.00    +0.062 C 
ATOM      3  C   UNL     1       2.287   4.804  -8.158  0.00  0.00    -0.024 C 
ATOM      4  C   UNL     1       2.202   3.909  -6.972  0.00  0.00    -0.009 C 
ATOM      5  C   UNL     1       2.760   4.442  -5.877  0.00  0.00    -0.027 C 
ATOM      6  C   UNL     1       3.794   5.446  -6.618  0.00  0.00    +0.022 C 
ATOM      7  C   UNL     1       4.456   5.951  -5.206  0.00  0.00    +0.005 C 
ATOM      8  C   UNL     1       1.626   4.255  -9.158  0.00  0.00    -0.030 C 
ATOM      9  C   UNL     1       0.547   5.339  -9.729  0.00  0.00    +0.025 C 
ATOM     10  C   UNL     1       0.477   4.530 -11.176  0.00  0.00    +0.005 C 
ATOM     11  C   UNL     1       2.751   6.805  -6.681  0.00  0.00    +0.012 C 
ATOM     12  C   UNL     1       1.791   6.257 -10.277  0.00  0.00    +0.048 C 
ENDROOT
BRANCH   1  13
ATOM     13  O   UNL     1       3.633   6.497  -8.931  0.00  0.00    -0.452 OA
BRANCH  13  14
ATOM     14  C   UNL     1       4.281   6.721 -10.119  0.00  0.00    +0.316 C 
ATOM     15  O   UNL     1       4.507   7.875 -10.436  0.00  0.00    -0.250 OA
BRANCH  14  16
ATOM     16  C   UNL     1       5.296   5.542 -10.571  0.00  0.00    +0.099 C 
ATOM     17  C   UNL     1       6.370   6.650 -11.180  0.00  0.00    +0.012 C 
BRANCH  16  19
ATOM     18  C   UNL     1       7.359   5.893  -9.468  0.00  0.00    +0.001 C 
ATOM     19  C   UNL     1       6.127   5.490  -9.135  0.00  0.00    +0.011 C 
ENDBRANCH  16  19
ENDBRANCH  14  16
ENDBRANCH  13  14
ENDBRANCH   1  13
BRANCH  11  20
ATOM     20  C   UNL     1       1.880   6.476  -5.358  0.00  0.00    +0.004 C 
BRANCH  20  21
ATOM     21  C   UNL     1       0.618   7.280  -5.359  0.00  0.00    +0.044 C 
BRANCH  21  22
ATOM     22  C   UNL     1      -0.406   6.205  -4.596  0.00  0.00    +0.171 C 
ATOM     23  O   UNL     1       0.242   6.425  -3.182  0.00  0.00    -0.452 OA
ATOM     24  C   UNL     1      -0.835   6.207  -2.302  0.00  0.00    +0.319 C 
ATOM     25  O   UNL     1      -1.084   6.861  -1.287  0.00  0.00    -0.250 OA
ATOM     26  C   UNL     1      -1.884   5.391  -2.908  0.00  0.00    +0.142 C 
ATOM     27  C   UNL     1      -2.811   6.450  -3.825  0.00  0.00    +0.167 C 
ATOM     28  O   UNL     1      -2.682   5.560  -5.082  0.00  0.00    -0.222 OA
ATOM     29  C   UNL     1      -1.518   7.412  -4.292  0.00  0.00    +0.077 C 
ENDBRANCH  21  22
ENDBRANCH  20  21
ENDBRANCH  11  20
TORSDOF 7
ENDMDL
MODEL 4
REMARK VINA RESULT:      -7.8      2.544      6.421
REMARK  Name = 
REMARK  7 active torsions:
REMARK  status: ('A' for Active; 'I' for Inactive)
REMARK    1  A    between atoms: C_2  and  C_3
REMARK    2  A    between atoms: C_3  and  C_5
REMARK    3  A    between atoms: C_5  and  O_7
REMARK    4  A    between atoms: O_7  and  C_8
REMARK    5  A    between atoms: C_18  and  C_19
REMARK    6  A    between atoms: C_19  and  C_20
REMARK    7  A    between atoms: C_20  and  C_21
REMARK                            x       y       z     vdW  Elec       q    Type
REMARK                         _______ _______ _______ _____ _____    ______ ____
ROOT
ATOM      1  C   UNL     1       2.919   4.235  -8.912  0.00  0.00    +0.173 C 
ATOM      2  C   UNL     1       3.294   5.382  -7.661  0.00  0.00    +0.062 C 
ATOM      3  C   UNL     1       2.721   6.683  -8.376  0.00  0.00    -0.024 C 
ATOM      4  C   UNL     1       2.553   7.701  -7.304  0.00  0.00    -0.009 C 
ATOM      5  C   UNL     1       1.754   7.285  -6.311  0.00  0.00    -0.027 C 
ATOM      6  C   UNL     1       0.896   6.199  -7.155  0.00  0.00    +0.022 C 
ATOM      7  C   UNL     1      -0.075   5.844  -5.882  0.00  0.00    +0.005 C 
ATOM      8  C   UNL     1       3.599   7.126  -9.254  0.00  0.00    -0.030 C 
ATOM      9  C   UNL     1       4.760   5.996  -9.449  0.00  0.00    +0.025 C 
ATOM     10  C   UNL     1       5.167   6.645 -10.921  0.00  0.00    +0.005 C 
ATOM     11  C   UNL     1       1.903   4.849  -6.837  0.00  0.00    +0.012 C 
ATOM     12  C   UNL     1       3.655   5.015 -10.162  0.00  0.00    +0.048 C 
ENDROOT
BRANCH   1  13
ATOM     13  O   UNL     1       1.554   4.907  -9.247  0.00  0.00    -0.452 OA
BRANCH  13  14
ATOM     14  C   UNL     1       1.185   4.551 -10.519  0.00  0.00    +0.316 C 
ATOM     15  O   UNL     1       0.462   3.579 -10.651  0.00  0.00    -0.250 OA
BRANCH  14  16
ATOM     16  C   UNL     1       1.089   5.781 -11.568  0.00  0.00    +0.099 C 
ATOM     17  C   UNL     1       0.153   4.877 -12.597  0.00  0.00    +0.012 C 
BRANCH  16  19
ATOM     18  C   UNL     1      -0.492   7.540 -11.648  0.00  0.00    +0.001 C 
ATOM     19  C   UNL     1      -0.268   6.458 -10.892  0.00  0.00    +0.011 C 
ENDBRANCH  16  19
ENDBRANCH  14  16
ENDBRANCH  13  14
ENDBRANCH   1  13
BRANCH  11  20
ATOM     20  C   UNL     1       2.461   5.325  -5.394  0.00  0.00    +0.004 C 
BRANCH  20  21
ATOM     21  C   UNL     1       3.276   4.235  -4.772  0.00  0.00    +0.044 C 
BRANCH  21  22
ATOM     22  C   UNL     1       4.040   5.103  -3.567  0.00  0.00    +0.171 C 
ATOM     23  O   UNL     1       4.853   5.991  -4.575  0.00  0.00    -0.452 OA
ATOM     24  C   UNL     1       5.005   7.204  -3.877  0.00  0.00    +0.319 C 
ATOM     25  O   UNL     1       4.913   8.335  -4.361  0.00  0.00    -0.250 OA
ATOM     26  C   UNL     1       4.879   7.027  -2.432  0.00  0.00    +0.142 C 
ATOM     27  C   UNL     1       3.228   7.020  -2.118  0.00  0.00    +0.167 C 
ATOM     28  O   UNL     1       3.327   5.691  -1.336  0.00  0.00    -0.222 OA
ATOM     29  C   UNL     1       2.811   6.230  -3.539  0.00  0.00    +0.077 C 
ENDBRANCH  21  22
ENDBRANCH  20  21
ENDBRANCH  11  20
TORSDOF 7
ENDMDL
MODEL 5
REMARK VINA RESULT:      -7.7      2.380      3.840
REMARK  Name = 
REMARK  7 active torsions:
REMARK  status: ('A' for Active; 'I' for Inactive)
REMARK    1  A    between atoms: C_2  and  C_3
REMARK    2  A    between atoms: C_3  and  C_5
REMARK    3  A    between atoms: C_5  and  O_7
REMARK    4  A    between atoms: O_7  and  C_8
REMARK    5  A    between atoms: C_18  and  C_19
REMARK    6  A    between atoms: C_19  and  C_20
REMARK    7  A    between atoms: C_20  and  C_21
REMARK                            x       y       z     vdW  Elec       q    Type
REMARK                         _______ _______ _______ _____ _____    ______ ____
ROOT
ATOM      1  C   UNL     1       1.765   6.951  -3.021  0.00  0.00    +0.173 C 
ATOM      2  C   UNL     1       3.191   6.698  -3.982  0.00  0.00    +0.062 C 
ATOM      3  C   UNL     1       3.732   5.400  -3.236  0.00  0.00    -0.024 C 
ATOM      4  C   UNL     1       4.709   4.770  -4.164  0.00  0.00    -0.009 C 
ATOM      5  C   UNL     1       4.178   4.473  -5.358  0.00  0.00    -0.027 C 
ATOM      6  C   UNL     1       2.632   4.344  -4.888  0.00  0.00    +0.022 C 
ATOM      7  C   UNL     1       2.121   3.900  -6.381  0.00  0.00    +0.005 C 
ATOM      8  C   UNL     1       4.358   5.756  -2.132  0.00  0.00    -0.030 C 
ATOM      9  C   UNL     1       4.057   7.335  -1.845  0.00  0.00    +0.025 C 
ATOM     10  C   UNL     1       4.438   7.133  -0.243  0.00  0.00    +0.005 C 
ATOM     11  C   UNL     1       2.196   5.979  -5.162  0.00  0.00    +0.012 C 
ATOM     12  C   UNL     1       2.489   6.959  -1.541  0.00  0.00    +0.048 C 
ENDROOT
BRANCH   1  13
ATOM     13  O   UNL     1       1.459   5.428  -2.906  0.00  0.00    -0.452 OA
BRANCH  13  14
ATOM     14  C   UNL     1       0.161   5.266  -2.493  0.00  0.00    +0.316 C 
ATOM     15  O   UNL     1      -0.036   4.633  -1.471  0.00  0.00    -0.250 OA
BRANCH  14  16
ATOM     16  C   UNL     1      -0.838   6.472  -2.907  0.00  0.00    +0.099 C 
ATOM     17  C   UNL     1      -1.442   5.585  -4.172  0.00  0.00    +0.012 C 
BRANCH  16  19
ATOM     18  C   UNL     1      -3.169   6.113  -2.714  0.00  0.00    +0.001 C 
ATOM     19  C   UNL     1      -2.090   5.979  -1.934  0.00  0.00    +0.011 C 
ENDBRANCH  16  19
ENDBRANCH  14  16
ENDBRANCH  13  14
ENDBRANCH   1  13
BRANCH  11  20
ATOM     20  C   UNL     1       3.237   6.286  -6.363  0.00  0.00    +0.004 C 
BRANCH  20  21
ATOM     21  C   UNL     1       2.584   7.142  -7.402  0.00  0.00    +0.044 C 
BRANCH  21  22
ATOM     22  C   UNL     1       2.975   6.273  -8.774  0.00  0.00    +0.171 C 
ATOM     23  O   UNL     1       3.364   7.550  -9.601  0.00  0.00    -0.452 OA
ATOM     24  C   UNL     1       4.354   7.069 -10.479  0.00  0.00    +0.319 C 
ATOM     25  O   UNL     1       5.390   7.658 -10.796  0.00  0.00    -0.250 OA
ATOM     26  C   UNL     1       4.258   5.624 -10.679  0.00  0.00    +0.142 C 
ATOM     27  C   UNL     1       5.045   4.932  -9.367  0.00  0.00    +0.167 C 
ATOM     28  O   UNL     1       3.831   4.031  -9.044  0.00  0.00    -0.222 OA
ATOM     29  C   UNL     1       4.556   6.100  -8.266  0.00  0.00    +0.077 C 
ENDBRANCH  21  22
ENDBRANCH  20  21
ENDBRANCH  11  20
TORSDOF 7
ENDMDL
MODEL 6
REMARK VINA RESULT:      -7.5      2.682      7.761
REMARK  Name = 
REMARK  7 active torsions:
REMARK  status: ('A' for Active; 'I' for Inactive)
REMARK    1  A    between atoms: C_2  and  C_3
REMARK    2  A    between atoms: C_3  and  C_5
REMARK    3  A    between atoms: C_5  and  O_7
REMARK    4  A    between atoms: O_7  and  C_8
REMARK    5  A    between atoms: C_18  and  C_19
REMARK    6  A    between atoms: C_19  and  C_20
REMARK    7  A    between atoms: C_20  and  C_21
REMARK                            x       y       z     vdW  Elec       q    Type
REMARK                         _______ _______ _______ _____ _____    ______ ____
ROOT
ATOM      1  C   UNL     1       3.454   6.980  -8.606  0.00  0.00    +0.173 C 
ATOM      2  C   UNL     1       2.479   6.735  -7.189  0.00  0.00    +0.062 C 
ATOM      3  C   UNL     1       1.994   5.253  -7.507  0.00  0.00    -0.024 C 
ATOM      4  C   UNL     1       1.498   4.698  -6.219  0.00  0.00    -0.009 C 
ATOM      5  C   UNL     1       2.424   4.722  -5.250  0.00  0.00    -0.027 C 
ATOM      6  C   UNL     1       3.739   4.710  -6.198  0.00  0.00    +0.022 C 
ATOM      7  C   UNL     1       4.767   4.650  -4.922  0.00  0.00    +0.005 C 
ATOM      8  C   UNL     1       0.998   5.291  -8.369  0.00  0.00    -0.030 C 
ATOM      9  C   UNL     1       0.881   6.806  -8.968  0.00  0.00    +0.025 C 
ATOM     10  C   UNL     1       0.064   6.235 -10.295  0.00  0.00    +0.005 C 
ATOM     11  C   UNL     1       3.912   6.410  -6.331  0.00  0.00    +0.012 C 
ATOM     12  C   UNL     1       2.316   6.591  -9.733  0.00  0.00    +0.048 C 
ENDROOT
BRANCH   1  13
ATOM     13  O   UNL     1       3.998   5.520  -8.597  0.00  0.00    -0.452 OA
BRANCH  13  14
ATOM     14  C   UNL     1       4.975   5.405  -9.552  0.00  0.00    +0.316 C 
ATOM     15  O   UNL     1       4.695   4.826 -10.587  0.00  0.00    -0.250 OA
BRANCH  14  16
ATOM     16  C   UNL     1       6.059   6.609  -9.564  0.00  0.00    +0.099 C 
ATOM     17  C   UNL     1       7.314   5.527  -9.631  0.00  0.00    +0.012 C 
BRANCH  16  19
ATOM     18  C   UNL     1       6.413   8.063 -11.397  0.00  0.00    +0.001 C 
ATOM     19  C   UNL     1       6.087   6.778 -11.216  0.00  0.00    +0.011 C 
ENDBRANCH  16  19
ENDBRANCH  14  16
ENDBRANCH  13  14
ENDBRANCH   1  13
BRANCH  11  20
ATOM     20  C   UNL     1       3.261   6.810  -4.904  0.00  0.00    +0.004 C 
BRANCH  20  21
ATOM     21  C   UNL     1       4.213   7.661  -4.124  0.00  0.00    +0.044 C 
BRANCH  21  22
ATOM     22  C   UNL     1       3.324   7.877  -2.727  0.00  0.00    +0.171 C 
ATOM     23  O   UNL     1       2.851   6.380  -2.670  0.00  0.00    -0.452 OA
ATOM     24  C   UNL     1       2.705   6.147  -1.289  0.00  0.00    +0.319 C 
ATOM     25  O   UNL     1       3.030   5.120  -0.689  0.00  0.00    -0.250 OA
ATOM     26  C   UNL     1       2.505   7.386  -0.540  0.00  0.00    +0.142 C 
ATOM     27  C   UNL     1       4.041   8.022  -0.298  0.00  0.00    +0.167 C 
ATOM     28  O   UNL     1       3.623   9.394  -0.872  0.00  0.00    -0.222 OA
ATOM     29  C   UNL     1       4.647   7.513  -1.777  0.00  0.00    +0.077 C 
ENDBRANCH  21  22
ENDBRANCH  20  21
ENDBRANCH  11  20
TORSDOF 7
ENDMDL
MODEL 7
REMARK VINA RESULT:      -7.5      4.156      8.818
REMARK  Name = 
REMARK  7 active torsions:
REMARK  status: ('A' for Active; 'I' for Inactive)
REMARK    1  A    between atoms: C_2  and  C_3
REMARK    2  A    between atoms: C_3  and  C_5
REMARK    3  A    between atoms: C_5  and  O_7
REMARK    4  A    between atoms: O_7  and  C_8
REMARK    5  A    between atoms: C_18  and  C_19
REMARK    6  A    between atoms: C_19  and  C_20
REMARK    7  A    between atoms: C_20  and  C_21
REMARK                            x       y       z     vdW  Elec       q    Type
REMARK                         _______ _______ _______ _____ _____    ______ ____
ROOT
ATOM      1  C   UNL     1       1.512   6.565  -5.131  0.00  0.00    +0.173 C 
ATOM      2  C   UNL     1       1.176   6.777  -3.439  0.00  0.00    +0.062 C 
ATOM      3  C   UNL     1       0.509   5.358  -3.167  0.00  0.00    -0.024 C 
ATOM      4  C   UNL     1       0.538   5.166  -1.692  0.00  0.00    -0.009 C 
ATOM      5  C   UNL     1       1.774   5.242  -1.181  0.00  0.00    -0.027 C 
ATOM      6  C   UNL     1       2.594   4.825  -2.516  0.00  0.00    +0.022 C 
ATOM      7  C   UNL     1       4.042   4.866  -1.749  0.00  0.00    +0.005 C 
ATOM      8  C   UNL     1      -0.746   5.376  -3.572  0.00  0.00    -0.030 C 
ATOM      9  C   UNL     1      -0.994   6.733  -4.445  0.00  0.00    +0.025 C 
ATOM     10  C   UNL     1      -2.311   6.039  -5.178  0.00  0.00    +0.005 C 
ATOM     11  C   UNL     1       2.809   6.411  -3.129  0.00  0.00    +0.012 C 
ATOM     12  C   UNL     1      -0.005   6.139  -5.611  0.00  0.00    +0.048 C 
ENDROOT
BRANCH   1  13
ATOM     13  O   UNL     1       1.918   5.071  -4.958  0.00  0.00    -0.452 OA
BRANCH  13  14
ATOM     14  C   UNL     1       2.566   4.653  -6.092  0.00  0.00    +0.316 C 
ATOM     15  O   UNL     1       2.155   3.648  -6.645  0.00  0.00    -0.250 OA
BRANCH  14  16
ATOM     16  C   UNL     1       3.243   5.839  -6.964  0.00  0.00    +0.099 C 
ATOM     17  C   UNL     1       4.704   5.606  -6.213  0.00  0.00    +0.012 C 
BRANCH  16  19
ATOM     18  C   UNL     1       5.006   5.148  -8.382  0.00  0.00    +0.001 C 
ATOM     19  C   UNL     1       3.708   4.863  -8.223  0.00  0.00    +0.011 C 
ENDBRANCH  16  19
ENDBRANCH  14  16
ENDBRANCH  13  14
ENDBRANCH   1  13
BRANCH  11  20
ATOM     20  C   UNL     1       2.814   7.196  -1.713  0.00  0.00    +0.004 C 
BRANCH  20  21
ATOM     21  C   UNL     1       3.670   8.419  -1.806  0.00  0.00    +0.044 C 
BRANCH  21  22
ATOM     22  C   UNL     1       4.169   8.540  -0.216  0.00  0.00    +0.171 C 
ATOM     23  O   UNL     1       3.983  10.098  -0.165  0.00  0.00    -0.452 OA
ATOM     24  C   UNL     1       3.656  10.334   1.184  0.00  0.00    +0.319 C 
ATOM     25  O   UNL     1       2.807  11.128   1.595  0.00  0.00    -0.250 OA
ATOM     26  C   UNL     1       4.120   9.259   2.059  0.00  0.00    +0.142 C 
ATOM     27  C   UNL     1       2.952   8.055   1.956  0.00  0.00    +0.167 C 
ATOM     28  O   UNL     1       4.011   6.981   1.621  0.00  0.00    -0.222 OA
ATOM     29  C   UNL     1       2.609   8.319   0.335  0.00  0.00    +0.077 C 
ENDBRANCH  21  22
ENDBRANCH  20  21
ENDBRANCH  11  20
TORSDOF 7
ENDMDL
MODEL 8
REMARK VINA RESULT:      -7.4      1.039      1.758
REMARK  Name = 
REMARK  7 active torsions:
REMARK  status: ('A' for Active; 'I' for Inactive)
REMARK    1  A    between atoms: C_2  and  C_3
REMARK    2  A    between atoms: C_3  and  C_5
REMARK    3  A    between atoms: C_5  and  O_7
REMARK    4  A    between atoms: O_7  and  C_8
REMARK    5  A    between atoms: C_18  and  C_19
REMARK    6  A    between atoms: C_19  and  C_20
REMARK    7  A    between atoms: C_20  and  C_21
REMARK                            x       y       z     vdW  Elec       q    Type
REMARK                         _______ _______ _______ _____ _____    ______ ____
ROOT
ATOM      1  C   UNL     1       2.212   7.127  -6.103  0.00  0.00    +0.173 C 
ATOM      2  C   UNL     1       2.993   6.105  -7.272  0.00  0.00    +0.062 C 
ATOM      3  C   UNL     1       2.333   4.725  -6.834  0.00  0.00    -0.024 C 
ATOM      4  C   UNL     1       2.535   3.792  -7.975  0.00  0.00    -0.009 C 
ATOM      5  C   UNL     1       2.015   4.251  -9.121  0.00  0.00    -0.027 C 
ATOM      6  C   UNL     1       0.887   5.224  -8.482  0.00  0.00    +0.022 C 
ATOM      7  C   UNL     1       0.283   5.638  -9.948  0.00  0.00    +0.005 C 
ATOM      8  C   UNL     1       2.963   4.252  -5.777  0.00  0.00    -0.030 C 
ATOM      9  C   UNL     1       3.947   5.414  -5.190  0.00  0.00    +0.025 C 
ATOM     10  C   UNL     1       3.975   4.666  -3.709  0.00  0.00    +0.005 C 
ATOM     11  C   UNL     1       1.851   6.639  -8.415  0.00  0.00    +0.012 C 
ATOM     12  C   UNL     1       2.626   6.282  -4.751  0.00  0.00    +0.048 C 
ENDROOT
BRANCH   1  13
ATOM     13  O   UNL     1       0.856   6.368  -6.208  0.00  0.00    -0.452 OA
BRANCH  13  14
ATOM     14  C   UNL     1       0.055   6.743  -5.159  0.00  0.00    +0.316 C 
ATOM     15  O   UNL     1      -0.380   7.881  -5.153  0.00  0.00    -0.250 OA
BRANCH  14  16
ATOM     16  C   UNL     1      -0.808   5.541  -4.501  0.00  0.00    +0.099 C 
ATOM     17  C   UNL     1      -0.343   5.995  -2.974  0.00  0.00    +0.012 C 
BRANCH  16  19
ATOM     18  C   UNL     1      -3.001   5.628  -3.618  0.00  0.00    +0.001 C 
ATOM     19  C   UNL     1      -2.211   6.415  -4.358  0.00  0.00    +0.011 C 
ENDBRANCH  16  19
ENDBRANCH  14  16
ENDBRANCH  13  14
ENDBRANCH   1  13
BRANCH  11  20
ATOM     20  C   UNL     1       2.815   6.310  -9.673  0.00  0.00    +0.004 C 
BRANCH  20  21
ATOM     21  C   UNL     1       4.050   7.151  -9.609  0.00  0.00    +0.044 C 
BRANCH  21  22
ATOM     22  C   UNL     1       4.558   7.033 -11.195  0.00  0.00    +0.171 C 
ATOM     23  O   UNL     1       6.082   7.132 -10.827  0.00  0.00    -0.452 OA
ATOM     24  C   UNL     1       6.702   6.375 -11.839  0.00  0.00    +0.319 C 
ATOM     25  O   UNL     1       7.645   5.596 -11.685  0.00  0.00    -0.250 OA
ATOM     26  C   UNL     1       5.872   6.272 -13.037  0.00  0.00    +0.142 C 
ATOM     27  C   UNL     1       4.786   5.028 -12.731  0.00  0.00    +0.167 C 
ATOM     28  O   UNL     1       3.577   5.918 -13.100  0.00  0.00    -0.222 OA
ATOM     29  C   UNL     1       4.625   5.369 -11.097  0.00  0.00    +0.077 C 
ENDBRANCH  21  22
ENDBRANCH  20  21
ENDBRANCH  11  20
TORSDOF 7
ENDMDL
MODEL 9
REMARK VINA RESULT:      -6.9      1.054      1.886
REMARK  Name = 
REMARK  7 active torsions:
REMARK  status: ('A' for Active; 'I' for Inactive)
REMARK    1  A    between atoms: C_2  and  C_3
REMARK    2  A    between atoms: C_3  and  C_5
REMARK    3  A    between atoms: C_5  and  O_7
REMARK    4  A    between atoms: O_7  and  C_8
REMARK    5  A    between atoms: C_18  and  C_19
REMARK    6  A    between atoms: C_19  and  C_20
REMARK    7  A    between atoms: C_20  and  C_21
REMARK                            x       y       z     vdW  Elec       q    Type
REMARK                         _______ _______ _______ _____ _____    ______ ____
ROOT
ATOM      1  C   UNL     1       2.684   7.276  -6.735  0.00  0.00    +0.173 C 
ATOM      2  C   UNL     1       3.403   6.097  -7.791  0.00  0.00    +0.062 C 
ATOM      3  C   UNL     1       2.544   4.838  -7.334  0.00  0.00    -0.024 C 
ATOM      4  C   UNL     1       2.700   3.822  -8.410  0.00  0.00    -0.009 C 
ATOM      5  C   UNL     1       2.321   4.274  -9.613  0.00  0.00    -0.027 C 
ATOM      6  C   UNL     1       1.287   5.416  -9.107  0.00  0.00    +0.022 C 
ATOM      7  C   UNL     1       0.840   5.814 -10.633  0.00  0.00    +0.005 C 
ATOM      8  C   UNL     1       3.037   4.353  -6.211  0.00  0.00    -0.030 C 
ATOM      9  C   UNL     1       4.121   5.417  -5.613  0.00  0.00    +0.025 C 
ATOM     10  C   UNL     1       3.954   4.759  -4.098  0.00  0.00    +0.005 C 
ATOM     11  C   UNL     1       2.418   6.702  -9.040  0.00  0.00    +0.012 C 
ATOM     12  C   UNL     1       2.895   6.466  -5.316  0.00  0.00    +0.048 C 
ENDROOT
BRANCH   1  13
ATOM     13  O   UNL     1       1.252   6.687  -6.902  0.00  0.00    -0.452 OA
BRANCH  13  14
ATOM     14  C   UNL     1       0.463   7.141  -5.876  0.00  0.00    +0.316 C 
ATOM     15  O   UNL     1       0.661   8.271  -5.463  0.00  0.00    -0.250 OA
BRANCH  14  16
ATOM     16  C   UNL     1      -1.030   6.513  -5.837  0.00  0.00    +0.099 C 
ATOM     17  C   UNL     1      -0.421   4.971  -5.892  0.00  0.00    +0.012 C 
BRANCH  16  19
ATOM     18  C   UNL     1      -0.305   5.433  -3.860  0.00  0.00    +0.001 C 
ATOM     19  C   UNL     1      -1.126   6.440  -4.181  0.00  0.00    +0.011 C 
ENDBRANCH  16  19
ENDBRANCH  14  16
ENDBRANCH  13  14
ENDBRANCH   1  13
BRANCH  11  20
ATOM     20  C   UNL     1       3.413   6.181 -10.206  0.00  0.00    +0.004 C 
BRANCH  20  21
ATOM     21  C   UNL     1       4.584   7.104 -10.333  0.00  0.00    +0.044 C 
BRANCH  21  22
ATOM     22  C   UNL     1       4.980   6.843 -11.934  0.00  0.00    +0.171 C 
ATOM     23  O   UNL     1       6.492   6.554 -11.623  0.00  0.00    -0.452 OA
ATOM     24  C   UNL     1       6.858   5.652 -12.640  0.00  0.00    +0.319 C 
ATOM     25  O   UNL     1       7.578   4.659 -12.504  0.00  0.00    -0.250 OA
ATOM     26  C   UNL     1       5.981   5.751 -13.806  0.00  0.00    +0.142 C 
ATOM     27  C   UNL     1       4.627   4.828 -13.434  0.00  0.00    +0.167 C 
ATOM     28  O   UNL     1       3.672   5.993 -13.777  0.00  0.00    -0.222 OA
ATOM     29  C   UNL     1       4.625   5.218 -11.802  0.00  0.00    +0.077 C 
ENDBRANCH  21  22
ENDBRANCH  20  21
ENDBRANCH  11  20
TORSDOF 7
ENDMDL
