MODEL 1
REMARK VINA RESULT:      -8.2      0.000      0.000
REMARK  Name = 
REMARK  7 active torsions:
REMARK  status: ('A' for Active; 'I' for Inactive)
REMARK    1  A    between atoms: C_5  and  S_6
REMARK    2  A    between atoms: S_6  and  C_7
REMARK    3  A    between atoms: C_7  and  C_8
REMARK    4  A    between atoms: CA_9  and  C_10
REMARK    5  A    between atoms: CA_16  and  N_17
REMARK    6  A    between atoms: C_18  and  C_20
REMARK    7  A    between atoms: C_20  and  N_21
REMARK                            x       y       z     vdW  Elec       q    Type
REMARK                         _______ _______ _______ _____ _____    ______ ____
ROOT
ATOM      1  C   UNL     1      -0.177   5.416  -7.727  0.00  0.00    -0.002 C 
ATOM      2  C   UNL     1      -0.425   5.318  -9.202  0.00  0.00    +0.083 C 
ATOM      3  S   UNL     1       1.150   5.775  -9.994  0.00  0.00    -0.114 S 
ATOM      4  C   UNL     1       1.856   7.013  -8.723  0.00  0.00    +0.157 C 
ATOM      5  N   UNL     1       2.218   5.889  -7.763  0.00  0.00    -0.242 N 
ATOM      6  C   UNL     1       3.374   5.430  -8.508  0.00  0.00    +0.253 C 
ATOM      7  O   UNL     1       4.416   4.944  -7.959  0.00  0.00    -0.273 OA
ATOM      8  CA  UNL     1       3.532   6.971  -9.037  0.00  0.00    +0.200 C 
ATOM      9  CA  UNL     1       1.043   5.291  -7.204  0.00  0.00    +0.129 C 
ENDROOT
BRANCH   8  10
ATOM     10  N   UNL     1       3.401   6.599 -10.593  0.00  0.00    -0.193 NA
ATOM     11  C   UNL     1       4.606   6.698 -11.321  0.00  0.00    +0.267 C 
ATOM     12  O   UNL     1       5.428   7.608 -11.033  0.00  0.00    -0.271 OA
BRANCH  11  13
ATOM     13  C   UNL     1       4.472   6.280 -12.753  0.00  0.00    +0.217 C 
BRANCH  13  14
ATOM     14  N   UNL     1       5.606   5.501 -13.196  0.00  0.00    -0.201 N 
ATOM     15  N   UNL     1       6.452   4.784 -12.455  0.00  0.00    -0.042 NA
ATOM     16  N   UNL     1       7.698   4.989 -12.877  0.00  0.00    -0.023 NA
ATOM     17  N   UNL     1       7.679   5.778 -13.943  0.00  0.00    -0.105 NA
ATOM     18  C   UNL     1       6.364   5.905 -14.244  0.00  0.00    +0.222 A 
ENDBRANCH  13  14
ENDBRANCH  11  13
ENDBRANCH   8  10
BRANCH   9  19
ATOM     19  C   UNL     1       1.290   4.437  -6.033  0.00  0.00    +0.401 C 
ATOM     20  OXT UNL     1       1.525   5.073  -4.809  0.00  0.00    -0.239 OA
ATOM     21  O   UNL     1       1.835   3.297  -6.144  0.00  0.00    -0.239 OA
ENDBRANCH   9  19
BRANCH   1  22
ATOM     22  C   UNL     1      -1.307   4.890  -6.894  0.00  0.00    +0.088 C 
BRANCH  22  23
ATOM     23  S   UNL     1      -2.050   6.159  -5.867  0.00  0.00    -0.082 S 
BRANCH  23  27
ATOM     24  C   UNL     1      -1.846   6.185  -0.085  0.00  0.00    +0.061 C 
ATOM     25  C   UNL     1      -2.055   6.027  -1.538  0.00  0.00    +0.112 A 
ATOM     26  S   UNL     1      -1.301   6.794  -2.880  0.00  0.00    -0.044 S 
ATOM     27  C   UNL     1      -1.930   5.775  -4.115  0.00  0.00    +0.159 A 
ATOM     28  N   UNL     1      -2.892   5.153  -3.386  0.00  0.00    -0.135 NA
ATOM     29  N   UNL     1      -2.496   4.907  -2.164  0.00  0.00    -0.145 NA
ENDBRANCH  23  27
ENDBRANCH  22  23
ENDBRANCH   1  22
TORSDOF 7
ENDMDL
MODEL 2
REMARK VINA RESULT:      -7.7      3.493      4.066
REMARK  Name = 
REMARK  7 active torsions:
REMARK  status: ('A' for Active; 'I' for Inactive)
REMARK    1  A    between atoms: C_5  and  S_6
REMARK    2  A    between atoms: S_6  and  C_7
REMARK    3  A    between atoms: C_7  and  C_8
REMARK    4  A    between atoms: CA_9  and  C_10
REMARK    5  A    between atoms: CA_16  and  N_17
REMARK    6  A    between atoms: C_18  and  C_20
REMARK    7  A    between atoms: C_20  and  N_21
REMARK                            x       y       z     vdW  Elec       q    Type
REMARK                         _______ _______ _______ _____ _____    ______ ____
ROOT
ATOM      1  C   UNL     1       2.834   5.177  -5.421  0.00  0.00    -0.002 C 
ATOM      2  C   UNL     1       4.250   5.400  -5.860  0.00  0.00    +0.083 C 
ATOM      3  S   UNL     1       4.201   5.414  -7.681  0.00  0.00    -0.114 S 
ATOM      4  C   UNL     1       2.751   4.218  -8.019  0.00  0.00    +0.157 C 
ATOM      5  N   UNL     1       1.730   5.265  -7.597  0.00  0.00    -0.242 N 
ATOM      6  C   UNL     1       1.836   6.064  -8.804  0.00  0.00    +0.253 C 
ATOM      7  O   UNL     1       0.856   6.699  -9.312  0.00  0.00    -0.273 OA
ATOM      8  CA  UNL     1       2.231   4.676  -9.578  0.00  0.00    +0.200 C 
ATOM      9  CA  UNL     1       1.794   5.509  -6.187  0.00  0.00    +0.129 C 
ENDROOT
BRANCH   8  10
ATOM     10  N   UNL     1       3.661   5.201 -10.083  0.00  0.00    -0.193 NA
ATOM     11  C   UNL     1       3.611   6.022 -11.229  0.00  0.00    +0.267 C 
ATOM     12  O   UNL     1       2.757   5.782 -12.124  0.00  0.00    -0.271 OA
BRANCH  11  13
ATOM     13  C   UNL     1       4.950   6.554 -11.640  0.00  0.00    +0.217 C 
BRANCH  13  14
ATOM     14  N   UNL     1       5.839   5.501 -12.073  0.00  0.00    -0.201 N 
ATOM     15  N   UNL     1       7.030   5.171 -11.572  0.00  0.00    -0.042 NA
ATOM     16  N   UNL     1       7.882   4.932 -12.567  0.00  0.00    -0.023 NA
ATOM     17  N   UNL     1       7.245   5.027 -13.726  0.00  0.00    -0.105 NA
ATOM     18  C   UNL     1       5.941   5.168 -13.383  0.00  0.00    +0.222 A 
ENDBRANCH  13  14
ENDBRANCH  11  13
ENDBRANCH   8  10
BRANCH   9  19
ATOM     19  C   UNL     1       0.644   6.242  -5.641  0.00  0.00    +0.401 C 
ATOM     20  OXT UNL     1      -0.563   5.548  -5.515  0.00  0.00    -0.239 OA
ATOM     21  O   UNL     1       0.514   7.493  -5.806  0.00  0.00    -0.239 OA
ENDBRANCH   9  19
BRANCH   1  22
ATOM     22  C   UNL     1       2.637   5.326  -3.943  0.00  0.00    +0.088 C 
BRANCH  22  23
ATOM     23  S   UNL     1       4.163   5.119  -3.023  0.00  0.00    -0.082 S 
BRANCH  23  27
ATOM     24  C   UNL     1       3.317   8.981   1.201  0.00  0.00    +0.061 C 
ATOM     25  C   UNL     1       3.517   7.844   0.280  0.00  0.00    +0.112 A 
ATOM     26  S   UNL     1       3.775   7.795  -1.419  0.00  0.00    -0.044 S 
ATOM     27  C   UNL     1       4.211   6.136  -1.542  0.00  0.00    +0.159 A 
ATOM     28  N   UNL     1       3.810   5.735  -0.308  0.00  0.00    -0.135 NA
ATOM     29  N   UNL     1       4.054   6.640   0.602  0.00  0.00    -0.145 NA
ENDBRANCH  23  27
ENDBRANCH  22  23
ENDBRANCH   1  22
TORSDOF 7
ENDMDL
MODEL 3
REMARK VINA RESULT:      -7.6      1.894      2.432
REMARK  Name = 
REMARK  7 active torsions:
REMARK  status: ('A' for Active; 'I' for Inactive)
REMARK    1  A    between atoms: C_5  and  S_6
REMARK    2  A    between atoms: S_6  and  C_7
REMARK    3  A    between atoms: C_7  and  C_8
REMARK    4  A    between atoms: CA_9  and  C_10
REMARK    5  A    between atoms: CA_16  and  N_17
REMARK    6  A    between atoms: C_18  and  C_20
REMARK    7  A    between atoms: C_20  and  N_21
REMARK                            x       y       z     vdW  Elec       q    Type
REMARK                         _______ _______ _______ _____ _____    ______ ____
ROOT
ATOM      1  C   UNL     1       0.052   5.396  -7.809  0.00  0.00    -0.002 C 
ATOM      2  C   UNL     1      -0.455   5.250  -9.212  0.00  0.00    +0.083 C 
ATOM      3  S   UNL     1       0.979   5.576 -10.287  0.00  0.00    -0.114 S 
ATOM      4  C   UNL     1       1.961   6.821  -9.223  0.00  0.00    +0.157 C 
ATOM      5  N   UNL     1       2.426   5.720  -8.281  0.00  0.00    -0.242 N 
ATOM      6  C   UNL     1       3.408   5.159  -9.190  0.00  0.00    +0.253 C 
ATOM      7  O   UNL     1       4.502   4.634  -8.803  0.00  0.00    -0.273 OA
ATOM      8  CA  UNL     1       3.552   6.664  -9.818  0.00  0.00    +0.200 C 
ATOM      9  CA  UNL     1       1.337   5.219  -7.498  0.00  0.00    +0.129 C 
ENDROOT
BRANCH   8  10
ATOM     10  N   UNL     1       3.132   6.234 -11.307  0.00  0.00    -0.193 NA
ATOM     11  C   UNL     1       4.216   5.919 -12.153  0.00  0.00    +0.267 C 
ATOM     12  O   UNL     1       5.293   6.564 -12.042  0.00  0.00    -0.271 OA
BRANCH  11  13
ATOM     13  C   UNL     1       3.795   5.456 -13.513  0.00  0.00    +0.217 C 
BRANCH  13  14
ATOM     14  N   UNL     1       2.370   5.589 -13.712  0.00  0.00    -0.201 N 
ATOM     15  N   UNL     1       1.464   4.621 -13.851  0.00  0.00    -0.042 NA
ATOM     16  N   UNL     1       0.619   4.937 -14.830  0.00  0.00    -0.023 NA
ATOM     17  N   UNL     1       0.912   6.145 -15.292  0.00  0.00    -0.105 NA
ATOM     18  C   UNL     1       1.859   6.611 -14.441  0.00  0.00    +0.222 A 
ENDBRANCH  13  14
ENDBRANCH  11  13
ENDBRANCH   8  10
BRANCH   9  19
ATOM     19  C   UNL     1       1.739   4.403  -6.344  0.00  0.00    +0.401 C 
ATOM     20  OXT UNL     1       2.230   5.074  -5.219  0.00  0.00    -0.239 OA
ATOM     21  O   UNL     1       2.185   3.224  -6.486  0.00  0.00    -0.239 OA
ENDBRANCH   9  19
BRANCH   1  22
ATOM     22  C   UNL     1      -0.941   4.976  -6.768  0.00  0.00    +0.088 C 
BRANCH  22  23
ATOM     23  S   UNL     1      -1.475   6.344  -5.738  0.00  0.00    -0.082 S 
BRANCH  23  27
ATOM     24  C   UNL     1      -1.833   6.123   0.032  0.00  0.00    +0.061 C 
ATOM     25  C   UNL     1      -1.929   6.066  -1.440  0.00  0.00    +0.112 A 
ATOM     26  S   UNL     1      -0.898   6.690  -2.667  0.00  0.00    -0.044 S 
ATOM     27  C   UNL     1      -1.613   5.883  -4.007  0.00  0.00    +0.159 A 
ATOM     28  N   UNL     1      -2.755   5.467  -3.400  0.00  0.00    -0.135 NA
ATOM     29  N   UNL     1      -2.544   5.097  -2.164  0.00  0.00    -0.145 NA
ENDBRANCH  23  27
ENDBRANCH  22  23
ENDBRANCH   1  22
TORSDOF 7
ENDMDL
MODEL 4
REMARK VINA RESULT:      -7.5      3.151      5.145
REMARK  Name = 
REMARK  7 active torsions:
REMARK  status: ('A' for Active; 'I' for Inactive)
REMARK    1  A    between atoms: C_5  and  S_6
REMARK    2  A    between atoms: S_6  and  C_7
REMARK    3  A    between atoms: C_7  and  C_8
REMARK    4  A    between atoms: CA_9  and  C_10
REMARK    5  A    between atoms: CA_16  and  N_17
REMARK    6  A    between atoms: C_18  and  C_20
REMARK    7  A    between atoms: C_20  and  N_21
REMARK                            x       y       z     vdW  Elec       q    Type
REMARK                         _______ _______ _______ _____ _____    ______ ____
ROOT
ATOM      1  C   UNL     1       0.653   5.474  -2.507  0.00  0.00    -0.002 C 
ATOM      2  C   UNL     1       1.860   6.188  -3.038  0.00  0.00    +0.083 C 
ATOM      3  S   UNL     1       1.592   6.333  -4.833  0.00  0.00    -0.114 S 
ATOM      4  C   UNL     1       0.570   4.758  -5.182  0.00  0.00    +0.157 C 
ATOM      5  N   UNL     1      -0.674   5.371  -4.554  0.00  0.00    -0.242 N 
ATOM      6  C   UNL     1      -0.973   6.256  -5.664  0.00  0.00    +0.253 C 
ATOM      7  O   UNL     1      -2.158   6.571  -6.009  0.00  0.00    -0.273 OA
ATOM      8  CA  UNL     1      -0.251   5.144  -6.626  0.00  0.00    +0.200 C 
ATOM      9  CA  UNL     1      -0.522   5.505  -3.137  0.00  0.00    +0.129 C 
ENDROOT
BRANCH   8  10
ATOM     10  N   UNL     1       0.865   6.152  -7.189  0.00  0.00    -0.193 NA
ATOM     11  C   UNL     1       1.157   5.995  -8.560  0.00  0.00    +0.267 C 
ATOM     12  O   UNL     1       1.141   4.840  -9.066  0.00  0.00    -0.271 OA
BRANCH  11  13
ATOM     13  C   UNL     1       2.150   6.991  -9.075  0.00  0.00    +0.217 C 
BRANCH  13  14
ATOM     14  N   UNL     1       3.283   6.348  -9.701  0.00  0.00    -0.201 N 
ATOM     15  N   UNL     1       4.467   6.058  -9.160  0.00  0.00    -0.042 NA
ATOM     16  N   UNL     1       5.437   6.364 -10.019  0.00  0.00    -0.023 NA
ATOM     17  N   UNL     1       4.902   6.784 -11.157  0.00  0.00    -0.105 NA
ATOM     18  C   UNL     1       3.574   6.562 -11.007  0.00  0.00    +0.222 A 
ENDBRANCH  13  14
ENDBRANCH  11  13
ENDBRANCH   8  10
BRANCH   9  19
ATOM     19  C   UNL     1      -1.772   5.770  -2.411  0.00  0.00    +0.401 C 
ATOM     20  OXT UNL     1      -2.708   4.734  -2.338  0.00  0.00    -0.239 OA
ATOM     21  O   UNL     1      -2.274   6.934  -2.354  0.00  0.00    -0.239 OA
ENDBRANCH   9  19
BRANCH   1  22
ATOM     22  C   UNL     1       0.597   5.428  -1.010  0.00  0.00    +0.088 C 
BRANCH  22  23
ATOM     23  S   UNL     1       1.170   6.951  -0.255  0.00  0.00    -0.082 S 
BRANCH  23  27
ATOM     24  C   UNL     1      -3.221   9.390   2.615  0.00  0.00    +0.061 C 
ATOM     25  C   UNL     1      -2.005   8.965   1.893  0.00  0.00    +0.112 A 
ATOM     26  S   UNL     1      -1.557   7.442   1.230  0.00  0.00    -0.044 S 
ATOM     27  C   UNL     1      -0.185   7.972   0.337  0.00  0.00    +0.159 A 
ATOM     28  N   UNL     1      -0.047   9.201   0.898  0.00  0.00    -0.135 NA
ATOM     29  N   UNL     1      -1.204   9.759   1.140  0.00  0.00    -0.145 NA
ENDBRANCH  23  27
ENDBRANCH  22  23
ENDBRANCH   1  22
TORSDOF 7
ENDMDL
MODEL 5
REMARK VINA RESULT:      -7.3      3.508      9.669
REMARK  Name = 
REMARK  7 active torsions:
REMARK  status: ('A' for Active; 'I' for Inactive)
REMARK    1  A    between atoms: C_5  and  S_6
REMARK    2  A    between atoms: S_6  and  C_7
REMARK    3  A    between atoms: C_7  and  C_8
REMARK    4  A    between atoms: CA_9  and  C_10
REMARK    5  A    between atoms: CA_16  and  N_17
REMARK    6  A    between atoms: C_18  and  C_20
REMARK    7  A    between atoms: C_20  and  N_21
REMARK                            x       y       z     vdW  Elec       q    Type
REMARK                         _______ _______ _______ _____ _____    ______ ____
ROOT
ATOM      1  C   UNL     1       2.900   6.270  -8.877  0.00  0.00    -0.002 C 
ATOM      2  C   UNL     1       3.786   5.698  -7.811  0.00  0.00    +0.083 C 
ATOM      3  S   UNL     1       2.767   5.652  -6.302  0.00  0.00    -0.114 S 
ATOM      4  C   UNL     1       1.623   7.155  -6.584  0.00  0.00    +0.157 C 
ATOM      5  N   UNL     1       0.809   6.398  -7.623  0.00  0.00    -0.242 N 
ATOM      6  C   UNL     1       0.096   5.568  -6.671  0.00  0.00    +0.253 C 
ATOM      7  O   UNL     1      -1.104   5.177  -6.842  0.00  0.00    -0.273 OA
ATOM      8  CA  UNL     1       0.272   6.799  -5.605  0.00  0.00    +0.200 C 
ATOM      9  CA  UNL     1       1.571   6.182  -8.816  0.00  0.00    +0.129 C 
ENDROOT
BRANCH   8  10
ATOM     10  N   UNL     1       1.076   5.930  -4.521  0.00  0.00    -0.193 NA
ATOM     11  C   UNL     1       0.372   5.693  -3.321  0.00  0.00    +0.267 C 
ATOM     12  O   UNL     1      -0.389   6.590  -2.866  0.00  0.00    -0.271 OA
BRANCH  11  13
ATOM     13  C   UNL     1       1.115   4.824  -2.355  0.00  0.00    +0.217 C 
BRANCH  13  14
ATOM     14  N   UNL     1       2.372   5.414  -1.955  0.00  0.00    -0.201 N 
ATOM     15  N   UNL     1       3.582   4.855  -1.957  0.00  0.00    -0.042 NA
ATOM     16  N   UNL     1       4.222   5.170  -0.832  0.00  0.00    -0.023 NA
ATOM     17  N   UNL     1       3.473   5.999  -0.117  0.00  0.00    -0.105 NA
ATOM     18  C   UNL     1       2.432   6.300  -0.931  0.00  0.00    +0.222 A 
ENDBRANCH  13  14
ENDBRANCH  11  13
ENDBRANCH   8  10
BRANCH   9  19
ATOM     19  C   UNL     1       0.777   5.763  -9.980  0.00  0.00    +0.401 C 
ATOM     20  OXT UNL     1      -0.065   6.715 -10.563  0.00  0.00    -0.239 OA
ATOM     21  O   UNL     1       0.392   4.563 -10.125  0.00  0.00    -0.239 OA
ENDBRANCH   9  19
BRANCH   1  22
ATOM     22  C   UNL     1       3.502   6.210 -10.249  0.00  0.00    +0.088 C 
BRANCH  22  23
ATOM     23  S   UNL     1       5.153   5.508 -10.243  0.00  0.00    -0.082 S 
BRANCH  23  27
ATOM     24  C   UNL     1       7.149   6.217 -15.627  0.00  0.00    +0.061 C 
ATOM     25  C   UNL     1       6.831   5.938 -14.212  0.00  0.00    +0.112 A 
ATOM     26  S   UNL     1       5.431   6.288 -13.276  0.00  0.00    -0.044 S 
ATOM     27  C   UNL     1       5.826   5.334 -11.900  0.00  0.00    +0.159 A 
ATOM     28  N   UNL     1       7.132   5.101 -12.190  0.00  0.00    -0.135 NA
ATOM     29  N   UNL     1       7.322   4.914 -13.470  0.00  0.00    -0.145 NA
ENDBRANCH  23  27
ENDBRANCH  22  23
ENDBRANCH   1  22
TORSDOF 7
ENDMDL
MODEL 6
REMARK VINA RESULT:      -7.2      3.166      9.588
REMARK  Name = 
REMARK  7 active torsions:
REMARK  status: ('A' for Active; 'I' for Inactive)
REMARK    1  A    between atoms: C_5  and  S_6
REMARK    2  A    between atoms: S_6  and  C_7
REMARK    3  A    between atoms: C_7  and  C_8
REMARK    4  A    between atoms: CA_9  and  C_10
REMARK    5  A    between atoms: CA_16  and  N_17
REMARK    6  A    between atoms: C_18  and  C_20
REMARK    7  A    between atoms: C_20  and  N_21
REMARK                            x       y       z     vdW  Elec       q    Type
REMARK                         _______ _______ _______ _____ _____    ______ ____
ROOT
ATOM      1  C   UNL     1       1.548   5.487 -10.552  0.00  0.00    -0.002 C 
ATOM      2  C   UNL     1       0.226   5.858  -9.949  0.00  0.00    +0.083 C 
ATOM      3  S   UNL     1       0.434   5.653  -8.151  0.00  0.00    -0.114 S 
ATOM      4  C   UNL     1       1.708   4.233  -8.088  0.00  0.00    +0.157 C 
ATOM      5  N   UNL     1       2.837   5.165  -8.504  0.00  0.00    -0.242 N 
ATOM      6  C   UNL     1       2.959   5.826  -7.218  0.00  0.00    +0.253 C 
ATOM      7  O   UNL     1       4.064   6.252  -6.751  0.00  0.00    -0.273 OA
ATOM      8  CA  UNL     1       2.425   4.428  -6.552  0.00  0.00    +0.200 C 
ATOM      9  CA  UNL     1       2.688   5.576  -9.868  0.00  0.00    +0.129 C 
ENDROOT
BRANCH   8  10
ATOM     10  N   UNL     1       1.141   5.090  -5.851  0.00  0.00    -0.193 NA
ATOM     11  C   UNL     1       1.414   5.751  -4.635  0.00  0.00    +0.267 C 
ATOM     12  O   UNL     1       2.292   5.283  -3.862  0.00  0.00    -0.271 OA
BRANCH  11  13
ATOM     13  C   UNL     1       0.213   6.417  -4.037  0.00  0.00    +0.217 C 
BRANCH  13  14
ATOM     14  N   UNL     1      -0.706   5.461  -3.466  0.00  0.00    -0.201 N 
ATOM     15  N   UNL     1      -1.951   5.181  -3.854  0.00  0.00    -0.042 NA
ATOM     16  N   UNL     1      -2.738   5.071  -2.785  0.00  0.00    -0.023 NA
ATOM     17  N   UNL     1      -2.008   5.199  -1.686  0.00  0.00    -0.105 NA
ATOM     18  C   UNL     1      -0.728   5.225  -2.131  0.00  0.00    +0.222 A 
ENDBRANCH  13  14
ENDBRANCH  11  13
ENDBRANCH   8  10
BRANCH   9  19
ATOM     19  C   UNL     1       3.886   6.197 -10.452  0.00  0.00    +0.401 C 
ATOM     20  OXT UNL     1       4.899   5.345 -10.903  0.00  0.00    -0.239 OA
ATOM     21  O   UNL     1       4.289   7.342 -10.083  0.00  0.00    -0.239 OA
ENDBRANCH   9  19
BRANCH   1  22
ATOM     22  C   UNL     1       1.636   5.777 -12.020  0.00  0.00    +0.088 C 
BRANCH  22  23
ATOM     23  S   UNL     1       0.472   7.037 -12.542  0.00  0.00    -0.082 S 
BRANCH  23  27
ATOM     24  C   UNL     1       1.503   8.638 -18.005  0.00  0.00    +0.061 C 
ATOM     25  C   UNL     1       1.263   8.024 -16.684  0.00  0.00    +0.112 A 
ATOM     26  S   UNL     1       0.927   8.730 -15.152  0.00  0.00    -0.044 S 
ATOM     27  C   UNL     1       0.490   7.288 -14.322  0.00  0.00    +0.159 A 
ATOM     28  N   UNL     1       0.949   6.390 -15.231  0.00  0.00    -0.135 NA
ATOM     29  N   UNL     1       0.745   6.791 -16.458  0.00  0.00    -0.145 NA
ENDBRANCH  23  27
ENDBRANCH  22  23
ENDBRANCH   1  22
TORSDOF 7
ENDMDL
MODEL 7
REMARK VINA RESULT:      -7.2      3.809      5.641
REMARK  Name = 
REMARK  7 active torsions:
REMARK  status: ('A' for Active; 'I' for Inactive)
REMARK    1  A    between atoms: C_5  and  S_6
REMARK    2  A    between atoms: S_6  and  C_7
REMARK    3  A    between atoms: C_7  and  C_8
REMARK    4  A    between atoms: CA_9  and  C_10
REMARK    5  A    between atoms: CA_16  and  N_17
REMARK    6  A    between atoms: C_18  and  C_20
REMARK    7  A    between atoms: C_20  and  N_21
REMARK                            x       y       z     vdW  Elec       q    Type
REMARK                         _______ _______ _______ _____ _____    ______ ____
ROOT
ATOM      1  C   UNL     1       0.682   5.603  -3.214  0.00  0.00    -0.002 C 
ATOM      2  C   UNL     1       1.763   6.331  -3.953  0.00  0.00    +0.083 C 
ATOM      3  S   UNL     1       1.250   6.325  -5.701  0.00  0.00    -0.114 S 
ATOM      4  C   UNL     1       0.285   4.680  -5.796  0.00  0.00    +0.157 C 
ATOM      5  N   UNL     1      -0.897   5.278  -5.048  0.00  0.00    -0.242 N 
ATOM      6  C   UNL     1      -1.394   6.059  -6.165  0.00  0.00    +0.253 C 
ATOM      7  O   UNL     1      -2.630   6.290  -6.365  0.00  0.00    -0.273 OA
ATOM      8  CA  UNL     1      -0.742   4.914  -7.137  0.00  0.00    +0.200 C 
ATOM      9  CA  UNL     1      -0.566   5.528  -3.677  0.00  0.00    +0.129 C 
ENDROOT
BRANCH   8  10
ATOM     10  N   UNL     1       0.228   5.928  -7.916  0.00  0.00    -0.193 NA
ATOM     11  C   UNL     1       0.195   5.807  -9.321  0.00  0.00    +0.267 C 
ATOM     12  O   UNL     1       0.047   4.667  -9.839  0.00  0.00    -0.271 OA
BRANCH  11  13
ATOM     13  C   UNL     1       1.056   6.809 -10.026  0.00  0.00    +0.217 C 
BRANCH  13  14
ATOM     14  N   UNL     1       2.457   6.463  -9.953  0.00  0.00    -0.201 N 
ATOM     15  N   UNL     1       3.044   5.324 -10.323  0.00  0.00    -0.042 NA
ATOM     16  N   UNL     1       3.934   4.962  -9.402  0.00  0.00    -0.023 NA
ATOM     17  N   UNL     1       3.997   5.892  -8.459  0.00  0.00    -0.105 NA
ATOM     18  C   UNL     1       3.233   6.906  -8.935  0.00  0.00    +0.222 A 
ENDBRANCH  13  14
ENDBRANCH  11  13
ENDBRANCH   8  10
BRANCH   9  19
ATOM     19  C   UNL     1      -1.723   5.787  -2.807  0.00  0.00    +0.401 C 
ATOM     20  OXT UNL     1      -2.573   4.713  -2.528  0.00  0.00    -0.239 OA
ATOM     21  O   UNL     1      -2.284   6.924  -2.769  0.00  0.00    -0.239 OA
ENDBRANCH   9  19
BRANCH   1  22
ATOM     22  C   UNL     1       0.828   5.669  -1.724  0.00  0.00    +0.088 C 
BRANCH  22  23
ATOM     23  S   UNL     1       2.530   5.471  -1.193  0.00  0.00    -0.082 S 
BRANCH  23  27
ATOM     24  C   UNL     1       3.987  10.735   0.712  0.00  0.00    +0.061 C 
ATOM     25  C   UNL     1       3.517   9.367   0.420  0.00  0.00    +0.112 A 
ATOM     26  S   UNL     1       3.710   8.377  -0.973  0.00  0.00    -0.044 S 
ATOM     27  C   UNL     1       3.136   6.904  -0.294  0.00  0.00    +0.159 A 
ATOM     28  N   UNL     1       2.573   7.412   0.833  0.00  0.00    -0.135 NA
ATOM     29  N   UNL     1       3.281   8.391   1.333  0.00  0.00    -0.145 NA
ENDBRANCH  23  27
ENDBRANCH  22  23
ENDBRANCH   1  22
TORSDOF 7
ENDMDL
MODEL 8
REMARK VINA RESULT:      -6.9      3.571      9.754
REMARK  Name = 
REMARK  7 active torsions:
REMARK  status: ('A' for Active; 'I' for Inactive)
REMARK    1  A    between atoms: C_5  and  S_6
REMARK    2  A    between atoms: S_6  and  C_7
REMARK    3  A    between atoms: C_7  and  C_8
REMARK    4  A    between atoms: CA_9  and  C_10
REMARK    5  A    between atoms: CA_16  and  N_17
REMARK    6  A    between atoms: C_18  and  C_20
REMARK    7  A    between atoms: C_20  and  N_21
REMARK                            x       y       z     vdW  Elec       q    Type
REMARK                         _______ _______ _______ _____ _____    ______ ____
ROOT
ATOM      1  C   UNL     1       1.303   4.999  -8.077  0.00  0.00    -0.002 C 
ATOM      2  C   UNL     1      -0.095   5.398  -7.707  0.00  0.00    +0.083 C 
ATOM      3  S   UNL     1      -0.027   5.833  -5.940  0.00  0.00    -0.114 S 
ATOM      4  C   UNL     1       1.358   4.670  -5.327  0.00  0.00    +0.157 C 
ATOM      5  N   UNL     1       2.431   5.530  -5.978  0.00  0.00    -0.242 N 
ATOM      6  C   UNL     1       2.382   6.593  -4.992  0.00  0.00    +0.253 C 
ATOM      7  O   UNL     1       3.400   7.274  -4.642  0.00  0.00    -0.273 OA
ATOM      8  CA  UNL     1       1.918   5.449  -3.917  0.00  0.00    +0.200 C 
ATOM      9  CA  UNL     1       2.367   5.441  -7.406  0.00  0.00    +0.129 C 
ENDROOT
BRANCH   8  10
ATOM     10  N   UNL     1       0.524   6.157  -3.552  0.00  0.00    -0.193 NA
ATOM     11  C   UNL     1       0.016   5.827  -2.278  0.00  0.00    +0.267 C 
ATOM     12  O   UNL     1       0.183   4.661  -1.829  0.00  0.00    -0.271 OA
BRANCH  11  13
ATOM     13  C   UNL     1      -1.249   6.553  -1.935  0.00  0.00    +0.217 C 
BRANCH  13  14
ATOM     14  N   UNL     1      -1.223   7.075  -0.588  0.00  0.00    -0.201 N 
ATOM     15  N   UNL     1      -2.200   7.696   0.073  0.00  0.00    -0.042 NA
ATOM     16  N   UNL     1      -1.701   8.743   0.727  0.00  0.00    -0.023 NA
ATOM     17  N   UNL     1      -0.385   8.777   0.566  0.00  0.00    -0.105 NA
ATOM     18  C   UNL     1      -0.093   7.617  -0.071  0.00  0.00    +0.222 A 
ENDBRANCH  13  14
ENDBRANCH  11  13
ENDBRANCH   8  10
BRANCH   9  19
ATOM     19  C   UNL     1       3.551   5.961  -8.105  0.00  0.00    +0.401 C 
ATOM     20  OXT UNL     1       4.805   5.553  -7.640  0.00  0.00    -0.239 OA
ATOM     21  O   UNL     1       3.544   7.098  -8.668  0.00  0.00    -0.239 OA
ENDBRANCH   9  19
BRANCH   1  22
ATOM     22  C   UNL     1       1.493   4.788  -9.549  0.00  0.00    +0.088 C 
BRANCH  22  23
ATOM     23  S   UNL     1       0.079   5.331 -10.508  0.00  0.00    -0.082 S 
BRANCH  23  27
ATOM     24  C   UNL     1       1.063   7.477 -15.790  0.00  0.00    +0.061 C 
ATOM     25  C   UNL     1       0.718   7.123 -14.399  0.00  0.00    +0.112 A 
ATOM     26  S   UNL     1       0.986   5.682 -13.498  0.00  0.00    -0.044 S 
ATOM     27  C   UNL     1       0.559   6.294 -11.948  0.00  0.00    +0.159 A 
ATOM     28  N   UNL     1      -0.036   7.447 -12.348  0.00  0.00    -0.135 NA
ATOM     29  N   UNL     1       0.583   7.989 -13.363  0.00  0.00    -0.145 NA
ENDBRANCH  23  27
ENDBRANCH  22  23
ENDBRANCH   1  22
TORSDOF 7
ENDMDL
MODEL 9
REMARK VINA RESULT:      -6.8      4.156      9.396
REMARK  Name = 
REMARK  7 active torsions:
REMARK  status: ('A' for Active; 'I' for Inactive)
REMARK    1  A    between atoms: C_5  and  S_6
REMARK    2  A    between atoms: S_6  and  C_7
REMARK    3  A    between atoms: C_7  and  C_8
REMARK    4  A    between atoms: CA_9  and  C_10
REMARK    5  A    between atoms: CA_16  and  N_17
REMARK    6  A    between atoms: C_18  and  C_20
REMARK    7  A    between atoms: C_20  and  N_21
REMARK                            x       y       z     vdW  Elec       q    Type
REMARK                         _______ _______ _______ _____ _____    ______ ____
ROOT
ATOM      1  C   UNL     1       2.038   5.692 -11.595  0.00  0.00    -0.002 C 
ATOM      2  C   UNL     1       1.282   6.554 -10.628  0.00  0.00    +0.083 C 
ATOM      3  S   UNL     1       2.252   6.524  -9.086  0.00  0.00    -0.114 S 
ATOM      4  C   UNL     1       3.028   4.782  -9.173  0.00  0.00    +0.157 C 
ATOM      5  N   UNL     1       4.016   5.226 -10.242  0.00  0.00    -0.242 N 
ATOM      6  C   UNL     1       4.879   5.967  -9.341  0.00  0.00    +0.253 C 
ATOM      7  O   UNL     1       6.140   6.059  -9.495  0.00  0.00    -0.273 OA
ATOM      8  CA  UNL     1       4.403   4.924  -8.173  0.00  0.00    +0.200 C 
ATOM      9  CA  UNL     1       3.350   5.484 -11.483  0.00  0.00    +0.129 C 
ENDROOT
BRANCH   8  10
ATOM     10  N   UNL     1       3.795   6.058  -7.213  0.00  0.00    -0.193 NA
ATOM     11  C   UNL     1       4.373   6.108  -5.927  0.00  0.00    +0.267 C 
ATOM     12  O   UNL     1       4.728   5.035  -5.368  0.00  0.00    -0.271 OA
BRANCH  11  13
ATOM     13  C   UNL     1       3.837   7.217  -5.075  0.00  0.00    +0.217 C 
BRANCH  13  14
ATOM     14  N   UNL     1       3.883   6.888  -3.669  0.00  0.00    -0.201 N 
ATOM     15  N   UNL     1       2.877   6.512  -2.878  0.00  0.00    -0.042 NA
ATOM     16  N   UNL     1       2.969   7.144  -1.709  0.00  0.00    -0.023 NA
ATOM     17  N   UNL     1       4.072   7.879  -1.691  0.00  0.00    -0.105 NA
ATOM     18  C   UNL     1       4.725   7.536  -2.828  0.00  0.00    +0.222 A 
ENDBRANCH  13  14
ENDBRANCH  11  13
ENDBRANCH   8  10
BRANCH   9  19
ATOM     19  C   UNL     1       4.244   5.592 -12.645  0.00  0.00    +0.401 C 
ATOM     20  OXT UNL     1       4.580   4.409 -13.312  0.00  0.00    -0.239 OA
ATOM     21  O   UNL     1       5.117   6.508 -12.729  0.00  0.00    -0.239 OA
ENDBRANCH   9  19
BRANCH   1  22
ATOM     22  C   UNL     1       1.496   5.744 -12.991  0.00  0.00    +0.088 C 
BRANCH  22  23
ATOM     23  S   UNL     1       0.622   7.273 -13.330  0.00  0.00    -0.082 S 
BRANCH  23  27
ATOM     24  C   UNL     1       1.268   9.192 -18.750  0.00  0.00    +0.061 C 
ATOM     25  C   UNL     1       1.123   8.502 -17.453  0.00  0.00    +0.112 A 
ATOM     26  S   UNL     1       0.884   9.116 -15.864  0.00  0.00    -0.044 S 
ATOM     27  C   UNL     1       0.518   7.624 -15.090  0.00  0.00    +0.159 A 
ATOM     28  N   UNL     1       0.924   6.785 -16.077  0.00  0.00    -0.135 NA
ATOM     29  N   UNL     1       0.634   7.251 -17.264  0.00  0.00    -0.145 NA
ENDBRANCH  23  27
ENDBRANCH  22  23
ENDBRANCH   1  22
TORSDOF 7
ENDMDL
