MODEL 1
REMARK VINA RESULT:      -7.9      0.000      0.000
REMARK  Name = 
REMARK  5 active torsions:
REMARK  status: ('A' for Active; 'I' for Inactive)
REMARK    1  A    between atoms: C_2  and  C_3
REMARK    2  A    between atoms: C_2  and  C_11
REMARK    3  A    between atoms: C_2  and  C_17
REMARK    4  A    between atoms: C_3  and  C_4
REMARK    5  A    between atoms: C_4  and  N_5
REMARK                            x       y       z     vdW  Elec       q    Type
REMARK                         _______ _______ _______ _____ _____    ______ ____
ROOT
ATOM      1  O   UNL     1       2.165   7.846  -7.049  0.00  0.00    -0.221 OA
ATOM      2  C   UNL     1       1.833   6.599  -6.563  0.00  0.00    +0.147 C 
ENDROOT
BRANCH   2   3
ATOM      3  C   UNL     1       0.375   6.507  -6.351  0.00  0.00    +0.032 C 
ATOM      4  C   UNL     1      -0.293   5.262  -6.801  0.00  0.00    +0.003 C 
ATOM      5  C   UNL     1      -1.796   5.503  -6.744  0.00  0.00    +0.000 C 
ATOM      6  C   UNL     1      -2.227   5.802  -5.333  0.00  0.00    +0.000 C 
ATOM      7  C   UNL     1      -1.074   6.130  -4.425  0.00  0.00    +0.000 C 
ATOM      8  C   UNL     1      -0.159   7.127  -5.111  0.00  0.00    +0.003 C 
ENDBRANCH   2   3
BRANCH   2   9
ATOM      9  C   UNL     1       2.669   6.318  -5.382  0.00  0.00    +0.005 A 
ATOM     10  C   UNL     1       3.670   7.206  -5.008  0.00  0.00    -0.002 A 
ATOM     11  C   UNL     1       4.918   6.778  -4.580  0.00  0.00    -0.000 A 
ATOM     12  C   UNL     1       5.060   5.440  -4.234  0.00  0.00    -0.000 A 
ATOM     13  C   UNL     1       3.964   4.587  -4.276  0.00  0.00    -0.000 A 
ATOM     14  C   UNL     1       2.920   4.982  -5.094  0.00  0.00    -0.002 A 
ENDBRANCH   2   9
BRANCH   2  15
ATOM     15  C   UNL     1       2.213   5.574  -7.624  0.00  0.00    +0.052 C 
BRANCH  15  16
ATOM     16  C   UNL     1       2.698   6.370  -8.823  0.00  0.00    +0.075 C 
BRANCH  16  17
ATOM     17  N   UNL     1       1.873   5.944  -9.939  0.00  0.00    -0.273 NA
ATOM     18  C   UNL     1       1.529   4.556  -9.800  0.00  0.00    +0.072 C 
ATOM     19  C   UNL     1       0.292   4.298 -10.614  0.00  0.00    +0.017 C 
ATOM     20  C   UNL     1       0.243   5.166 -11.854  0.00  0.00    +0.003 C 
ATOM     21  C   UNL     1       0.206   6.629 -11.493  0.00  0.00    +0.017 C 
ATOM     22  C   UNL     1       0.736   6.815 -10.092  0.00  0.00    +0.072 C 
ENDBRANCH  16  17
ENDBRANCH  15  16
ENDBRANCH   2  15
TORSDOF 5
ENDMDL
MODEL 2
REMARK VINA RESULT:      -7.9      2.196      4.926
REMARK  Name = 
REMARK  5 active torsions:
REMARK  status: ('A' for Active; 'I' for Inactive)
REMARK    1  A    between atoms: C_2  and  C_3
REMARK    2  A    between atoms: C_2  and  C_11
REMARK    3  A    between atoms: C_2  and  C_17
REMARK    4  A    between atoms: C_3  and  C_4
REMARK    5  A    between atoms: C_4  and  N_5
REMARK                            x       y       z     vdW  Elec       q    Type
REMARK                         _______ _______ _______ _____ _____    ______ ____
ROOT
ATOM      1  O   UNL     1       2.890   4.195  -7.185  0.00  0.00    -0.221 OA
ATOM      2  C   UNL     1       3.099   5.555  -7.106  0.00  0.00    +0.147 C 
ENDROOT
BRANCH   2   3
ATOM      3  C   UNL     1       4.089   5.977  -8.117  0.00  0.00    +0.032 C 
ATOM      4  C   UNL     1       5.172   5.017  -8.440  0.00  0.00    +0.003 C 
ATOM      5  C   UNL     1       6.209   5.759  -9.272  0.00  0.00    +0.000 C 
ATOM      6  C   UNL     1       5.597   6.252 -10.557  0.00  0.00    +0.000 C 
ATOM      7  C   UNL     1       4.094   6.207 -10.545  0.00  0.00    +0.000 C 
ATOM      8  C   UNL     1       3.582   6.798  -9.246  0.00  0.00    +0.003 C 
ENDBRANCH   2   3
BRANCH   2   9
ATOM      9  C   UNL     1       3.426   5.900  -5.711  0.00  0.00    +0.005 A 
ATOM     10  C   UNL     1       3.697   7.218  -5.363  0.00  0.00    -0.002 A 
ATOM     11  C   UNL     1       4.720   7.559  -4.491  0.00  0.00    -0.000 A 
ATOM     12  C   UNL     1       5.282   6.546  -3.725  0.00  0.00    -0.000 A 
ATOM     13  C   UNL     1       4.788   5.250  -3.809  0.00  0.00    -0.000 A 
ATOM     14  C   UNL     1       4.099   4.939  -4.967  0.00  0.00    -0.002 A 
ENDBRANCH   2   9
BRANCH   2  15
ATOM     15  C   UNL     1       1.781   6.245  -7.432  0.00  0.00    +0.052 C 
BRANCH  15  16
ATOM     16  C   UNL     1       0.691   5.229  -7.141  0.00  0.00    +0.075 C 
BRANCH  16  17
ATOM     17  N   UNL     1      -0.398   5.978  -6.543  0.00  0.00    -0.273 NA
ATOM     18  C   UNL     1      -1.635   5.264  -6.698  0.00  0.00    +0.072 C 
ATOM     19  C   UNL     1      -2.592   5.756  -5.648  0.00  0.00    +0.017 C 
ATOM     20  C   UNL     1      -2.378   7.221  -5.332  0.00  0.00    +0.003 C 
ATOM     21  C   UNL     1      -0.996   7.463  -4.782  0.00  0.00    +0.017 C 
ATOM     22  C   UNL     1      -0.089   6.323  -5.179  0.00  0.00    +0.072 C 
ENDBRANCH  16  17
ENDBRANCH  15  16
ENDBRANCH   2  15
TORSDOF 5
ENDMDL
MODEL 3
REMARK VINA RESULT:      -7.8      2.236      4.968
REMARK  Name = 
REMARK  5 active torsions:
REMARK  status: ('A' for Active; 'I' for Inactive)
REMARK    1  A    between atoms: C_2  and  C_3
REMARK    2  A    between atoms: C_2  and  C_11
REMARK    3  A    between atoms: C_2  and  C_17
REMARK    4  A    between atoms: C_3  and  C_4
REMARK    5  A    between atoms: C_4  and  N_5
REMARK                            x       y       z     vdW  Elec       q    Type
REMARK                         _______ _______ _______ _____ _____    ______ ____
ROOT
ATOM      1  O   UNL     1       2.736   4.158  -6.665  0.00  0.00    -0.221 OA
ATOM      2  C   UNL     1       3.196   5.433  -6.913  0.00  0.00    +0.147 C 
ENDROOT
BRANCH   2   3
ATOM      3  C   UNL     1       3.781   5.509  -8.267  0.00  0.00    +0.032 C 
ATOM      4  C   UNL     1       3.590   6.776  -9.013  0.00  0.00    +0.003 C 
ATOM      5  C   UNL     1       4.016   6.528 -10.454  0.00  0.00    +0.000 C 
ATOM      6  C   UNL     1       5.471   6.144 -10.512  0.00  0.00    +0.000 C 
ATOM      7  C   UNL     1       6.032   5.765  -9.169  0.00  0.00    +0.000 C 
ATOM      8  C   UNL     1       5.078   4.814  -8.474  0.00  0.00    +0.003 C 
ENDBRANCH   2   3
BRANCH   2   9
ATOM      9  C   UNL     1       4.089   5.833  -5.811  0.00  0.00    +0.005 A 
ATOM     10  C   UNL     1       4.446   4.912  -4.833  0.00  0.00    -0.002 A 
ATOM     11  C   UNL     1       4.505   5.246  -3.487  0.00  0.00    -0.000 A 
ATOM     12  C   UNL     1       4.499   6.594  -3.154  0.00  0.00    -0.000 A 
ATOM     13  C   UNL     1       4.484   7.561  -4.151  0.00  0.00    -0.000 A 
ATOM     14  C   UNL     1       4.006   7.153  -5.384  0.00  0.00    -0.002 A 
ENDBRANCH   2   9
BRANCH   2  15
ATOM     15  C   UNL     1       1.999   6.372  -6.873  0.00  0.00    +0.052 C 
BRANCH  15  16
ATOM     16  C   UNL     1       0.791   5.531  -7.246  0.00  0.00    +0.075 C 
BRANCH  16  17
ATOM     17  N   UNL     1      -0.341   6.145  -6.575  0.00  0.00    -0.273 NA
ATOM     18  C   UNL     1      -1.490   5.287  -6.658  0.00  0.00    +0.072 C 
ATOM     19  C   UNL     1      -2.431   5.661  -5.546  0.00  0.00    +0.017 C 
ATOM     20  C   UNL     1      -2.375   7.142  -5.234  0.00  0.00    +0.003 C 
ATOM     21  C   UNL     1      -1.000   7.547  -4.769  0.00  0.00    +0.017 C 
ATOM     22  C   UNL     1       0.010   6.524  -5.231  0.00  0.00    +0.072 C 
ENDBRANCH  16  17
ENDBRANCH  15  16
ENDBRANCH   2  15
TORSDOF 5
ENDMDL
MODEL 4
REMARK VINA RESULT:      -7.7      2.755      6.024
REMARK  Name = 
REMARK  5 active torsions:
REMARK  status: ('A' for Active; 'I' for Inactive)
REMARK    1  A    between atoms: C_2  and  C_3
REMARK    2  A    between atoms: C_2  and  C_11
REMARK    3  A    between atoms: C_2  and  C_17
REMARK    4  A    between atoms: C_3  and  C_4
REMARK    5  A    between atoms: C_4  and  N_5
REMARK                            x       y       z     vdW  Elec       q    Type
REMARK                         _______ _______ _______ _____ _____    ______ ____
ROOT
ATOM      1  O   UNL     1       3.654   4.387  -9.467  0.00  0.00    -0.221 OA
ATOM      2  C   UNL     1       3.765   5.754  -9.608  0.00  0.00    +0.147 C 
ENDROOT
BRANCH   2   3
ATOM      3  C   UNL     1       2.549   6.300 -10.244  0.00  0.00    +0.032 C 
ATOM      4  C   UNL     1       2.140   5.702 -11.537  0.00  0.00    +0.003 C 
ATOM      5  C   UNL     1       1.054   6.592 -12.130  0.00  0.00    +0.000 C 
ATOM      6  C   UNL     1      -0.142   6.640 -11.217  0.00  0.00    +0.000 C 
ATOM      7  C   UNL     1       0.151   6.113  -9.838  0.00  0.00    +0.000 C 
ATOM      8  C   UNL     1       1.449   6.713  -9.334  0.00  0.00    +0.003 C 
ENDBRANCH   2   3
BRANCH   2   9
ATOM      9  C   UNL     1       5.033   6.054 -10.296  0.00  0.00    +0.005 A 
ATOM     10  C   UNL     1       6.223   5.499  -9.840  0.00  0.00    -0.002 A 
ATOM     11  C   UNL     1       7.402   6.227  -9.774  0.00  0.00    -0.000 A 
ATOM     12  C   UNL     1       7.457   7.435 -10.459  0.00  0.00    -0.000 A 
ATOM     13  C   UNL     1       6.372   7.858 -11.217  0.00  0.00    -0.000 A 
ATOM     14  C   UNL     1       5.148   7.309 -10.882  0.00  0.00    -0.002 A 
ENDBRANCH   2   9
BRANCH   2  15
ATOM     15  C   UNL     1       3.868   6.355  -8.213  0.00  0.00    +0.052 C 
BRANCH  15  16
ATOM     16  C   UNL     1       3.734   5.194  -7.243  0.00  0.00    +0.075 C 
BRANCH  16  17
ATOM     17  N   UNL     1       4.186   5.697  -5.959  0.00  0.00    -0.273 NA
ATOM     18  C   UNL     1       3.708   7.037  -5.756  0.00  0.00    +0.072 C 
ATOM     19  C   UNL     1       3.712   7.315  -4.279  0.00  0.00    +0.017 C 
ATOM     20  C   UNL     1       4.844   6.595  -3.574  0.00  0.00    +0.003 C 
ATOM     21  C   UNL     1       4.710   5.101  -3.716  0.00  0.00    +0.017 C 
ATOM     22  C   UNL     1       3.832   4.785  -4.903  0.00  0.00    +0.072 C 
ENDBRANCH  16  17
ENDBRANCH  15  16
ENDBRANCH   2  15
TORSDOF 5
ENDMDL
MODEL 5
REMARK VINA RESULT:      -7.6      2.680      5.659
REMARK  Name = 
REMARK  5 active torsions:
REMARK  status: ('A' for Active; 'I' for Inactive)
REMARK    1  A    between atoms: C_2  and  C_3
REMARK    2  A    between atoms: C_2  and  C_11
REMARK    3  A    between atoms: C_2  and  C_17
REMARK    4  A    between atoms: C_3  and  C_4
REMARK    5  A    between atoms: C_4  and  N_5
REMARK                            x       y       z     vdW  Elec       q    Type
REMARK                         _______ _______ _______ _____ _____    ______ ____
ROOT
ATOM      1  O   UNL     1       1.995   4.337  -9.389  0.00  0.00    -0.221 OA
ATOM      2  C   UNL     1       1.767   5.692  -9.503  0.00  0.00    +0.147 C 
ENDROOT
BRANCH   2   3
ATOM      3  C   UNL     1       1.160   6.212  -8.261  0.00  0.00    +0.032 C 
ATOM      4  C   UNL     1       0.437   5.240  -7.407  0.00  0.00    +0.003 C 
ATOM      5  C   UNL     1      -0.330   6.034  -6.357  0.00  0.00    +0.000 C 
ATOM      6  C   UNL     1       0.622   6.823  -5.497  0.00  0.00    +0.000 C 
ATOM      7  C   UNL     1       2.005   6.913  -6.083  0.00  0.00    +0.000 C 
ATOM      8  C   UNL     1       1.908   7.282  -7.551  0.00  0.00    +0.003 C 
ENDBRANCH   2   3
BRANCH   2   9
ATOM      9  C   UNL     1       1.002   5.938 -10.738  0.00  0.00    +0.005 A 
ATOM     10  C   UNL     1       1.603   5.762 -11.978  0.00  0.00    -0.002 A 
ATOM     11  C   UNL     1       1.404   6.644 -13.030  0.00  0.00    -0.000 A 
ATOM     12  C   UNL     1       0.350   7.544 -12.930  0.00  0.00    -0.000 A 
ATOM     13  C   UNL     1      -0.493   7.512 -11.825  0.00  0.00    -0.000 A 
ATOM     14  C   UNL     1       0.024   6.923 -10.685  0.00  0.00    -0.002 A 
ENDBRANCH   2   9
BRANCH   2  15
ATOM     15  C   UNL     1       3.118   6.374  -9.679  0.00  0.00    +0.052 C 
BRANCH  15  16
ATOM     16  C   UNL     1       4.154   5.264  -9.669  0.00  0.00    +0.075 C 
BRANCH  16  17
ATOM     17  N   UNL     1       5.303   5.790 -10.384  0.00  0.00    -0.273 NA
ATOM     18  C   UNL     1       4.988   7.070 -10.954  0.00  0.00    +0.072 C 
ATOM     19  C   UNL     1       6.278   7.804 -11.194  0.00  0.00    +0.017 C 
ATOM     20  C   UNL     1       7.406   6.859 -11.552  0.00  0.00    +0.003 C 
ATOM     21  C   UNL     1       7.680   5.889 -10.431  0.00  0.00    +0.017 C 
ATOM     22  C   UNL     1       6.468   5.798  -9.537  0.00  0.00    +0.072 C 
ENDBRANCH  16  17
ENDBRANCH  15  16
ENDBRANCH   2  15
TORSDOF 5
ENDMDL
MODEL 6
REMARK VINA RESULT:      -7.6      1.972      4.860
REMARK  Name = 
REMARK  5 active torsions:
REMARK  status: ('A' for Active; 'I' for Inactive)
REMARK    1  A    between atoms: C_2  and  C_3
REMARK    2  A    between atoms: C_2  and  C_11
REMARK    3  A    between atoms: C_2  and  C_17
REMARK    4  A    between atoms: C_3  and  C_4
REMARK    5  A    between atoms: C_4  and  N_5
REMARK                            x       y       z     vdW  Elec       q    Type
REMARK                         _______ _______ _______ _____ _____    ______ ____
ROOT
ATOM      1  O   UNL     1       1.587   3.874  -6.141  0.00  0.00    -0.221 OA
ATOM      2  C   UNL     1       1.676   5.250  -6.121  0.00  0.00    +0.147 C 
ENDROOT
BRANCH   2   3
ATOM      3  C   UNL     1       2.646   5.682  -5.095  0.00  0.00    +0.032 C 
ATOM      4  C   UNL     1       3.597   4.661  -4.596  0.00  0.00    +0.003 C 
ATOM      5  C   UNL     1       4.293   5.242  -3.372  0.00  0.00    +0.000 C 
ATOM      6  C   UNL     1       5.062   6.482  -3.745  0.00  0.00    +0.000 C 
ATOM      7  C   UNL     1       4.683   7.023  -5.096  0.00  0.00    +0.000 C 
ATOM      8  C   UNL     1       3.172   7.066  -5.217  0.00  0.00    +0.003 C 
ENDBRANCH   2   3
BRANCH   2   9
ATOM      9  C   UNL     1       0.317   5.805  -5.987  0.00  0.00    +0.005 A 
ATOM     10  C   UNL     1      -0.201   6.088  -4.729  0.00  0.00    -0.002 A 
ATOM     11  C   UNL     1      -1.514   5.800  -4.386  0.00  0.00    -0.000 A 
ATOM     12  C   UNL     1      -2.401   5.503  -5.413  0.00  0.00    -0.000 A 
ATOM     13  C   UNL     1      -1.978   5.546  -6.736  0.00  0.00    -0.000 A 
ATOM     14  C   UNL     1      -0.616   5.418  -6.942  0.00  0.00    -0.002 A 
ENDBRANCH   2   9
BRANCH   2  15
ATOM     15  C   UNL     1       2.203   5.699  -7.477  0.00  0.00    +0.052 C 
BRANCH  15  16
ATOM     16  C   UNL     1       2.841   4.473  -8.107  0.00  0.00    +0.075 C 
BRANCH  16  17
ATOM     17  N   UNL     1       3.900   4.975  -8.964  0.00  0.00    -0.273 NA
ATOM     18  C   UNL     1       3.398   6.020  -9.812  0.00  0.00    +0.072 C 
ATOM     19  C   UNL     1       4.563   6.856 -10.261  0.00  0.00    +0.017 C 
ATOM     20  C   UNL     1       5.822   6.029 -10.421  0.00  0.00    +0.003 C 
ATOM     21  C   UNL     1       6.235   5.408  -9.112  0.00  0.00    +0.017 C 
ATOM     22  C   UNL     1       5.047   5.358  -8.182  0.00  0.00    +0.072 C 
ENDBRANCH  16  17
ENDBRANCH  15  16
ENDBRANCH   2  15
TORSDOF 5
ENDMDL
MODEL 7
REMARK VINA RESULT:      -7.6      1.586      5.451
REMARK  Name = 
REMARK  5 active torsions:
REMARK  status: ('A' for Active; 'I' for Inactive)
REMARK    1  A    between atoms: C_2  and  C_3
REMARK    2  A    between atoms: C_2  and  C_11
REMARK    3  A    between atoms: C_2  and  C_17
REMARK    4  A    between atoms: C_3  and  C_4
REMARK    5  A    between atoms: C_4  and  N_5
REMARK                            x       y       z     vdW  Elec       q    Type
REMARK                         _______ _______ _______ _____ _____    ______ ____
ROOT
ATOM      1  O   UNL     1       1.612   4.217  -7.283  0.00  0.00    -0.221 OA
ATOM      2  C   UNL     1       1.337   5.523  -7.626  0.00  0.00    +0.147 C 
ENDROOT
BRANCH   2   3
ATOM      3  C   UNL     1       0.129   5.992  -6.916  0.00  0.00    +0.032 C 
ATOM      4  C   UNL     1      -1.045   5.087  -6.917  0.00  0.00    +0.003 C 
ATOM      5  C   UNL     1      -2.234   5.879  -6.387  0.00  0.00    +0.000 C 
ATOM      6  C   UNL     1      -1.973   6.336  -4.976  0.00  0.00    +0.000 C 
ATOM      7  C   UNL     1      -0.527   6.215  -4.578  0.00  0.00    +0.000 C 
ATOM      8  C   UNL     1       0.348   6.783  -5.678  0.00  0.00    +0.003 C 
ENDBRANCH   2   3
BRANCH   2   9
ATOM      9  C   UNL     1       1.292   5.623  -9.095  0.00  0.00    +0.005 A 
ATOM     10  C   UNL     1       0.974   6.832  -9.703  0.00  0.00    -0.002 A 
ATOM     11  C   UNL     1       0.138   6.909 -10.808  0.00  0.00    -0.000 A 
ATOM     12  C   UNL     1      -0.138   5.733 -11.494  0.00  0.00    -0.000 A 
ATOM     13  C   UNL     1       0.452   4.539 -11.099  0.00  0.00    -0.000 A 
ATOM     14  C   UNL     1       0.898   4.487  -9.790  0.00  0.00    -0.002 A 
ENDBRANCH   2   9
BRANCH   2  15
ATOM     15  C   UNL     1       2.508   6.379  -7.162  0.00  0.00    +0.052 C 
BRANCH  15  16
ATOM     16  C   UNL     1       3.629   5.411  -6.825  0.00  0.00    +0.075 C 
BRANCH  16  17
ATOM     17  N   UNL     1       4.086   5.783  -5.499  0.00  0.00    -0.273 NA
ATOM     18  C   UNL     1       3.936   7.198  -5.301  0.00  0.00    +0.072 C 
ATOM     19  C   UNL     1       3.890   7.460  -3.822  0.00  0.00    +0.017 C 
ATOM     20  C   UNL     1       4.750   6.481  -3.049  0.00  0.00    +0.003 C 
ATOM     21  C   UNL     1       4.267   5.067  -3.237  0.00  0.00    +0.017 C 
ATOM     22  C   UNL     1       3.436   4.981  -4.494  0.00  0.00    +0.072 C 
ENDBRANCH  16  17
ENDBRANCH  15  16
ENDBRANCH   2  15
TORSDOF 5
ENDMDL
MODEL 8
REMARK VINA RESULT:      -7.6      2.211      4.877
REMARK  Name = 
REMARK  5 active torsions:
REMARK  status: ('A' for Active; 'I' for Inactive)
REMARK    1  A    between atoms: C_2  and  C_3
REMARK    2  A    between atoms: C_2  and  C_11
REMARK    3  A    between atoms: C_2  and  C_17
REMARK    4  A    between atoms: C_3  and  C_4
REMARK    5  A    between atoms: C_4  and  N_5
REMARK                            x       y       z     vdW  Elec       q    Type
REMARK                         _______ _______ _______ _____ _____    ______ ____
ROOT
ATOM      1  O   UNL     1       1.646   4.016  -8.180  0.00  0.00    -0.221 OA
ATOM      2  C   UNL     1       1.117   5.289  -8.162  0.00  0.00    +0.147 C 
ENDROOT
BRANCH   2   3
ATOM      3  C   UNL     1       0.317   5.490  -6.937  0.00  0.00    +0.032 C 
ATOM      4  C   UNL     1       0.529   6.756  -6.196  0.00  0.00    +0.003 C 
ATOM      5  C   UNL     1      -0.173   6.622  -4.850  0.00  0.00    +0.000 C 
ATOM      6  C   UNL     1      -1.651   6.416  -5.047  0.00  0.00    +0.000 C 
ATOM      7  C   UNL     1      -2.009   6.050  -6.461  0.00  0.00    +0.000 C 
ATOM      8  C   UNL     1      -1.072   4.964  -6.954  0.00  0.00    +0.003 C 
ENDBRANCH   2   3
BRANCH   2   9
ATOM      9  C   UNL     1       0.407   5.521  -9.432  0.00  0.00    +0.005 A 
ATOM     10  C   UNL     1       0.312   4.504 -10.374  0.00  0.00    -0.002 A 
ATOM     11  C   UNL     1       0.469   4.736 -11.733  0.00  0.00    -0.000 A 
ATOM     12  C   UNL     1       0.419   6.052 -12.176  0.00  0.00    -0.000 A 
ATOM     13  C   UNL     1       0.172   7.082 -11.277  0.00  0.00    -0.000 A 
ATOM     14  C   UNL     1       0.453   6.810  -9.950  0.00  0.00    -0.002 A 
ENDBRANCH   2   9
BRANCH   2  15
ATOM     15  C   UNL     1       2.280   6.271  -8.122  0.00  0.00    +0.052 C 
BRANCH  15  16
ATOM     16  C   UNL     1       3.543   5.427  -8.093  0.00  0.00    +0.075 C 
BRANCH  16  17
ATOM     17  N   UNL     1       4.444   6.032  -9.057  0.00  0.00    -0.273 NA
ATOM     18  C   UNL     1       5.796   5.623  -8.795  0.00  0.00    +0.072 C 
ATOM     19  C   UNL     1       6.589   5.797 -10.061  0.00  0.00    +0.017 C 
ATOM     20  C   UNL     1       6.096   6.974 -10.877  0.00  0.00    +0.003 C 
ATOM     21  C   UNL     1       4.665   6.778 -11.305  0.00  0.00    +0.017 C 
ATOM     22  C   UNL     1       4.003   5.767 -10.402  0.00  0.00    +0.072 C 
ENDBRANCH  16  17
ENDBRANCH  15  16
ENDBRANCH   2  15
TORSDOF 5
ENDMDL
MODEL 9
REMARK VINA RESULT:      -7.3      2.951      5.907
REMARK  Name = 
REMARK  5 active torsions:
REMARK  status: ('A' for Active; 'I' for Inactive)
REMARK    1  A    between atoms: C_2  and  C_3
REMARK    2  A    between atoms: C_2  and  C_11
REMARK    3  A    between atoms: C_2  and  C_17
REMARK    4  A    between atoms: C_3  and  C_4
REMARK    5  A    between atoms: C_4  and  N_5
REMARK                            x       y       z     vdW  Elec       q    Type
REMARK                         _______ _______ _______ _____ _____    ______ ____
ROOT
ATOM      1  O   UNL     1       3.781   4.541  -9.858  0.00  0.00    -0.221 OA
ATOM      2  C   UNL     1       3.673   5.878 -10.177  0.00  0.00    +0.147 C 
ENDROOT
BRANCH   2   3
ATOM      3  C   UNL     1       3.069   6.035 -11.515  0.00  0.00    +0.032 C 
ATOM      4  C   UNL     1       3.686   5.271 -12.625  0.00  0.00    +0.003 C 
ATOM      5  C   UNL     1       3.095   5.797 -13.927  0.00  0.00    +0.000 C 
ATOM      6  C   UNL     1       1.606   5.577 -13.954  0.00  0.00    +0.000 C 
ATOM      7  C   UNL     1       1.039   5.235 -12.604  0.00  0.00    +0.000 C 
ATOM      8  C   UNL     1       1.593   6.193 -11.567  0.00  0.00    +0.003 C 
ENDBRANCH   2   3
BRANCH   2   9
ATOM      9  C   UNL     1       4.990   6.512  -9.993  0.00  0.00    +0.005 A 
ATOM     10  C   UNL     1       5.360   7.594 -10.783  0.00  0.00    -0.002 A 
ATOM     11  C   UNL     1       6.638   7.725 -11.309  0.00  0.00    -0.000 A 
ATOM     12  C   UNL     1       7.639   6.916 -10.786  0.00  0.00    -0.000 A 
ATOM     13  C   UNL     1       7.360   6.047  -9.739  0.00  0.00    -0.000 A 
ATOM     14  C   UNL     1       6.033   5.688  -9.587  0.00  0.00    -0.002 A 
ENDBRANCH   2   9
BRANCH   2  15
ATOM     15  C   UNL     1       2.732   6.518  -9.165  0.00  0.00    +0.052 C 
BRANCH  15  16
ATOM     16  C   UNL     1       2.844   5.687  -7.900  0.00  0.00    +0.075 C 
BRANCH  16  17
ATOM     17  N   UNL     1       1.560   5.806  -7.233  0.00  0.00    -0.273 NA
ATOM     18  C   UNL     1       0.494   5.733  -8.194  0.00  0.00    +0.072 C 
ATOM     19  C   UNL     1      -0.757   5.319  -7.471  0.00  0.00    +0.017 C 
ATOM     20  C   UNL     1      -0.793   5.856  -6.055  0.00  0.00    +0.003 C 
ATOM     21  C   UNL     1       0.355   5.320  -5.240  0.00  0.00    +0.017 C 
ATOM     22  C   UNL     1       1.451   4.847  -6.164  0.00  0.00    +0.072 C 
ENDBRANCH  16  17
ENDBRANCH  15  16
ENDBRANCH   2  15
TORSDOF 5
ENDMDL
