MODEL 1
REMARK VINA RESULT:      -8.2      0.000      0.000
REMARK  Name = 
REMARK  2 active torsions:
REMARK  status: ('A' for Active; 'I' for Inactive)
REMARK    1  A    between atoms: C_6  and  C_7
REMARK    2  A    between atoms: C_6  and  C_13
REMARK                            x       y       z     vdW  Elec       q    Type
REMARK                         _______ _______ _______ _____ _____    ______ ____
ROOT
ATOM      1  O   UNL     1       1.625   4.630 -10.322  0.00  0.00    -0.249 OA
ATOM      2  C   UNL     1       1.389   5.410  -9.350  0.00  0.00    +0.347 C 
ATOM      3  N   UNL     1       1.335   4.949  -7.996  0.00  0.00    -0.173 NA
ATOM      4  C   UNL     1       1.433   6.098  -7.104  0.00  0.00    +0.188 C 
ATOM      5  C   UNL     1       1.537   7.290  -7.962  0.00  0.00    +0.275 C 
ATOM      6  O   UNL     1       2.103   8.384  -7.658  0.00  0.00    -0.270 OA
ATOM      7  N   UNL     1       1.402   6.821  -9.305  0.00  0.00    -0.124 NA
ENDROOT
BRANCH   4   8
ATOM      8  C   UNL     1       2.636   5.931  -6.247  0.00  0.00    +0.008 A 
ATOM      9  C   UNL     1       2.832   4.751  -5.543  0.00  0.00    -0.002 A 
ATOM     10  C   UNL     1       3.826   4.694  -4.595  0.00  0.00    -0.000 A 
ATOM     11  C   UNL     1       4.323   5.866  -4.044  0.00  0.00    -0.000 A 
ATOM     12  C   UNL     1       4.312   6.987  -4.865  0.00  0.00    -0.000 A 
ATOM     13  C   UNL     1       3.532   6.967  -6.015  0.00  0.00    -0.002 A 
ENDBRANCH   4   8
BRANCH   4  14
ATOM     14  C   UNL     1       0.180   6.099  -6.291  0.00  0.00    +0.008 A 
ATOM     15  C   UNL     1       0.064   7.024  -5.273  0.00  0.00    -0.002 A 
ATOM     16  C   UNL     1      -1.217   7.346  -4.840  0.00  0.00    -0.000 A 
ATOM     17  C   UNL     1      -2.327   6.908  -5.553  0.00  0.00    -0.000 A 
ATOM     18  C   UNL     1      -2.132   5.723  -6.255  0.00  0.00    -0.000 A 
ATOM     19  C   UNL     1      -0.855   5.228  -6.492  0.00  0.00    -0.002 A 
ENDBRANCH   4  14
TORSDOF 2
ENDMDL
MODEL 2
REMARK VINA RESULT:      -8.0      2.979      5.931
REMARK  Name = 
REMARK  2 active torsions:
REMARK  status: ('A' for Active; 'I' for Inactive)
REMARK    1  A    between atoms: C_6  and  C_7
REMARK    2  A    between atoms: C_6  and  C_13
REMARK                            x       y       z     vdW  Elec       q    Type
REMARK                         _______ _______ _______ _____ _____    ______ ____
ROOT
ATOM      1  O   UNL     1       2.906   4.675  -5.205  0.00  0.00    -0.249 OA
ATOM      2  C   UNL     1       3.087   5.424  -6.213  0.00  0.00    +0.347 C 
ATOM      3  N   UNL     1       3.102   4.915  -7.551  0.00  0.00    -0.173 NA
ATOM      4  C   UNL     1       2.945   6.028  -8.479  0.00  0.00    +0.188 C 
ATOM      5  C   UNL     1       2.844   7.248  -7.660  0.00  0.00    +0.275 C 
ATOM      6  O   UNL     1       2.241   8.318  -7.982  0.00  0.00    -0.270 OA
ATOM      7  N   UNL     1       3.039   6.832  -6.308  0.00  0.00    -0.124 NA
ENDROOT
BRANCH   4   8
ATOM      8  C   UNL     1       1.715   5.803  -9.283  0.00  0.00    +0.008 A 
ATOM      9  C   UNL     1       1.407   4.530  -9.745  0.00  0.00    -0.002 A 
ATOM     10  C   UNL     1       0.394   4.377 -10.660  0.00  0.00    -0.000 A 
ATOM     11  C   UNL     1      -0.015   5.459 -11.427  0.00  0.00    -0.000 A 
ATOM     12  C   UNL     1       0.107   6.711 -10.839  0.00  0.00    -0.000 A 
ATOM     13  C   UNL     1       0.905   6.848  -9.709  0.00  0.00    -0.002 A 
ENDBRANCH   4   8
BRANCH   4  14
ATOM     14  C   UNL     1       4.167   6.028  -9.337  0.00  0.00    +0.008 A 
ATOM     15  C   UNL     1       4.198   6.873 -10.428  0.00  0.00    -0.002 A 
ATOM     16  C   UNL     1       5.443   7.224 -10.934  0.00  0.00    -0.000 A 
ATOM     17  C   UNL     1       6.599   6.900 -10.233  0.00  0.00    -0.000 A 
ATOM     18  C   UNL     1       6.492   5.767  -9.434  0.00  0.00    -0.000 A 
ATOM     19  C   UNL     1       5.253   5.228  -9.111  0.00  0.00    -0.002 A 
ENDBRANCH   4  14
TORSDOF 2
ENDMDL
MODEL 3
REMARK VINA RESULT:      -8.0      2.220      4.312
REMARK  Name = 
REMARK  2 active torsions:
REMARK  status: ('A' for Active; 'I' for Inactive)
REMARK    1  A    between atoms: C_6  and  C_7
REMARK    2  A    between atoms: C_6  and  C_13
REMARK                            x       y       z     vdW  Elec       q    Type
REMARK                         _______ _______ _______ _____ _____    ______ ____
ROOT
ATOM      1  O   UNL     1       4.936   4.626  -8.603  0.00  0.00    -0.249 OA
ATOM      2  C   UNL     1       3.884   5.309  -8.793  0.00  0.00    +0.347 C 
ATOM      3  N   UNL     1       2.591   4.705  -8.914  0.00  0.00    -0.173 NA
ATOM      4  C   UNL     1       1.573   5.735  -8.739  0.00  0.00    +0.188 C 
ATOM      5  C   UNL     1       2.290   7.002  -8.517  0.00  0.00    +0.275 C 
ATOM      6  O   UNL     1       1.857   8.003  -7.869  0.00  0.00    -0.270 OA
ATOM      7  N   UNL     1       3.679   6.700  -8.664  0.00  0.00    -0.124 NA
ENDROOT
BRANCH   4   8
ATOM      8  C   UNL     1       0.728   5.371  -7.571  0.00  0.00    +0.008 A 
ATOM      9  C   UNL     1      -0.644   5.582  -7.612  0.00  0.00    -0.002 A 
ATOM     10  C   UNL     1      -1.376   5.444  -6.457  0.00  0.00    -0.000 A 
ATOM     11  C   UNL     1      -0.745   5.529  -5.224  0.00  0.00    -0.000 A 
ATOM     12  C   UNL     1       0.575   5.098  -5.177  0.00  0.00    -0.000 A 
ATOM     13  C   UNL     1       1.270   4.936  -6.369  0.00  0.00    -0.002 A 
ENDBRANCH   4   8
BRANCH   4  14
ATOM     14  C   UNL     1       0.780   5.751 -10.004  0.00  0.00    +0.008 A 
ATOM     15  C   UNL     1       0.381   6.973 -10.507  0.00  0.00    -0.002 A 
ATOM     16  C   UNL     1       0.076   7.043 -11.861  0.00  0.00    -0.000 A 
ATOM     17  C   UNL     1       0.367   5.972 -12.699  0.00  0.00    -0.000 A 
ATOM     18  C   UNL     1       0.369   4.731 -12.072  0.00  0.00    -0.000 A 
ATOM     19  C   UNL     1       0.417   4.624 -10.687  0.00  0.00    -0.002 A 
ENDBRANCH   4  14
TORSDOF 2
ENDMDL
MODEL 4
REMARK VINA RESULT:      -7.9      3.113      5.303
REMARK  Name = 
REMARK  2 active torsions:
REMARK  status: ('A' for Active; 'I' for Inactive)
REMARK    1  A    between atoms: C_6  and  C_7
REMARK    2  A    between atoms: C_6  and  C_13
REMARK                            x       y       z     vdW  Elec       q    Type
REMARK                         _______ _______ _______ _____ _____    ______ ____
ROOT
ATOM      1  O   UNL     1       0.391   6.970 -10.538  0.00  0.00    -0.249 OA
ATOM      2  C   UNL     1       1.465   6.360 -10.253  0.00  0.00    +0.347 C 
ATOM      3  N   UNL     1       2.601   7.030  -9.695  0.00  0.00    -0.173 NA
ATOM      4  C   UNL     1       3.506   6.033  -9.134  0.00  0.00    +0.188 C 
ATOM      5  C   UNL     1       2.888   4.719  -9.379  0.00  0.00    +0.275 C 
ATOM      6  O   UNL     1       3.054   3.673  -8.680  0.00  0.00    -0.270 OA
ATOM      7  N   UNL     1       1.711   4.973 -10.147  0.00  0.00    -0.124 NA
ENDROOT
BRANCH   4   8
ATOM      8  C   UNL     1       3.664   6.303  -7.681  0.00  0.00    +0.008 A 
ATOM      9  C   UNL     1       4.602   5.598  -6.939  0.00  0.00    -0.002 A 
ATOM     10  C   UNL     1       4.587   5.702  -5.569  0.00  0.00    -0.000 A 
ATOM     11  C   UNL     1       3.436   6.126  -4.920  0.00  0.00    -0.000 A 
ATOM     12  C   UNL     1       2.626   7.013  -5.619  0.00  0.00    -0.000 A 
ATOM     13  C   UNL     1       2.816   7.158  -6.988  0.00  0.00    -0.002 A 
ENDBRANCH   4   8
BRANCH   4  14
ATOM     14  C   UNL     1       4.799   6.191  -9.864  0.00  0.00    +0.008 A 
ATOM     15  C   UNL     1       4.913   7.224 -10.773  0.00  0.00    -0.002 A 
ATOM     16  C   UNL     1       6.192   7.663 -11.091  0.00  0.00    -0.000 A 
ATOM     17  C   UNL     1       7.287   7.214 -10.360  0.00  0.00    -0.000 A 
ATOM     18  C   UNL     1       7.128   5.952  -9.797  0.00  0.00    -0.000 A 
ATOM     19  C   UNL     1       5.874   5.363  -9.691  0.00  0.00    -0.002 A 
ENDBRANCH   4  14
TORSDOF 2
ENDMDL
MODEL 5
REMARK VINA RESULT:      -7.9      1.927      4.050
REMARK  Name = 
REMARK  2 active torsions:
REMARK  status: ('A' for Active; 'I' for Inactive)
REMARK    1  A    between atoms: C_6  and  C_7
REMARK    2  A    between atoms: C_6  and  C_13
REMARK                            x       y       z     vdW  Elec       q    Type
REMARK                         _______ _______ _______ _____ _____    ______ ____
ROOT
ATOM      1  O   UNL     1       4.199   7.256  -4.863  0.00  0.00    -0.249 OA
ATOM      2  C   UNL     1       3.181   6.544  -5.120  0.00  0.00    +0.347 C 
ATOM      3  N   UNL     1       2.064   7.046  -5.861  0.00  0.00    -0.173 NA
ATOM      4  C   UNL     1       1.257   5.919  -6.315  0.00  0.00    +0.188 C 
ATOM      5  C   UNL     1       1.914   4.701  -5.813  0.00  0.00    +0.275 C 
ATOM      6  O   UNL     1       1.856   3.548  -6.340  0.00  0.00    -0.270 OA
ATOM      7  N   UNL     1       3.011   5.146  -5.014  0.00  0.00    -0.124 NA
ENDROOT
BRANCH   4   8
ATOM      8  C   UNL     1       1.205   5.943  -7.800  0.00  0.00    +0.008 A 
ATOM      9  C   UNL     1       2.153   6.657  -8.520  0.00  0.00    -0.002 A 
ATOM     10  C   UNL     1       1.967   6.846  -9.868  0.00  0.00    -0.000 A 
ATOM     11  C   UNL     1       0.698   6.726 -10.415  0.00  0.00    -0.000 A 
ATOM     12  C   UNL     1      -0.159   5.829  -9.790  0.00  0.00    -0.000 A 
ATOM     13  C   UNL     1       0.158   5.375  -8.515  0.00  0.00    -0.002 A 
ENDBRANCH   4   8
BRANCH   4  14
ATOM     14  C   UNL     1      -0.098   6.114  -5.717  0.00  0.00    +0.008 A 
ATOM     15  C   UNL     1      -0.326   7.258  -4.979  0.00  0.00    -0.002 A 
ATOM     16  C   UNL     1      -1.643   7.672  -4.826  0.00  0.00    -0.000 A 
ATOM     17  C   UNL     1      -2.656   7.071  -5.566  0.00  0.00    -0.000 A 
ATOM     18  C   UNL     1      -2.402   5.751  -5.925  0.00  0.00    -0.000 A 
ATOM     19  C   UNL     1      -1.122   5.217  -5.849  0.00  0.00    -0.002 A 
ENDBRANCH   4  14
TORSDOF 2
ENDMDL
MODEL 6
REMARK VINA RESULT:      -7.8      1.510      2.093
REMARK  Name = 
REMARK  2 active torsions:
REMARK  status: ('A' for Active; 'I' for Inactive)
REMARK    1  A    between atoms: C_6  and  C_7
REMARK    2  A    between atoms: C_6  and  C_13
REMARK                            x       y       z     vdW  Elec       q    Type
REMARK                         _______ _______ _______ _____ _____    ______ ____
ROOT
ATOM      1  O   UNL     1       2.728   3.529  -8.673  0.00  0.00    -0.249 OA
ATOM      2  C   UNL     1       2.354   4.523  -7.980  0.00  0.00    +0.347 C 
ATOM      3  N   UNL     1       1.525   4.379  -6.821  0.00  0.00    -0.173 NA
ATOM      4  C   UNL     1       1.587   5.611  -6.043  0.00  0.00    +0.188 C 
ATOM      5  C   UNL     1       2.478   6.527  -6.775  0.00  0.00    +0.275 C 
ATOM      6  O   UNL     1       3.175   7.458  -6.268  0.00  0.00    -0.270 OA
ATOM      7  N   UNL     1       2.827   5.853  -7.986  0.00  0.00    -0.124 NA
ENDROOT
BRANCH   4   8
ATOM      8  C   UNL     1       2.119   5.291  -4.692  0.00  0.00    +0.008 A 
ATOM      9  C   UNL     1       1.370   5.588  -3.561  0.00  0.00    -0.002 A 
ATOM     10  C   UNL     1       1.960   5.488  -2.324  0.00  0.00    -0.000 A 
ATOM     11  C   UNL     1       3.342   5.522  -2.211  0.00  0.00    -0.000 A 
ATOM     12  C   UNL     1       4.060   5.009  -3.285  0.00  0.00    -0.000 A 
ATOM     13  C   UNL     1       3.407   4.813  -4.495  0.00  0.00    -0.002 A 
ENDBRANCH   4   8
BRANCH   4  14
ATOM     14  C   UNL     1       0.187   6.126  -5.973  0.00  0.00    +0.008 A 
ATOM     15  C   UNL     1      -0.826   5.331  -6.470  0.00  0.00    -0.002 A 
ATOM     16  C   UNL     1      -2.113   5.564  -6.005  0.00  0.00    -0.000 A 
ATOM     17  C   UNL     1      -2.324   6.421  -4.930  0.00  0.00    -0.000 A 
ATOM     18  C   UNL     1      -1.367   7.420  -4.791  0.00  0.00    -0.000 A 
ATOM     19  C   UNL     1      -0.147   7.346  -5.453  0.00  0.00    -0.002 A 
ENDBRANCH   4  14
TORSDOF 2
ENDMDL
MODEL 7
REMARK VINA RESULT:      -7.8      1.746      4.441
REMARK  Name = 
REMARK  2 active torsions:
REMARK  status: ('A' for Active; 'I' for Inactive)
REMARK    1  A    between atoms: C_6  and  C_7
REMARK    2  A    between atoms: C_6  and  C_13
REMARK                            x       y       z     vdW  Elec       q    Type
REMARK                         _______ _______ _______ _____ _____    ______ ____
ROOT
ATOM      1  O   UNL     1       1.369   7.212  -9.196  0.00  0.00    -0.249 OA
ATOM      2  C   UNL     1       1.738   6.505  -8.209  0.00  0.00    +0.347 C 
ATOM      3  N   UNL     1       1.895   7.050  -6.895  0.00  0.00    -0.173 NA
ATOM      4  C   UNL     1       1.945   5.953  -5.934  0.00  0.00    +0.188 C 
ATOM      5  C   UNL     1       1.825   4.707  -6.711  0.00  0.00    +0.275 C 
ATOM      6  O   UNL     1       1.351   3.607  -6.292  0.00  0.00    -0.270 OA
ATOM      7  N   UNL     1       1.806   5.100  -8.085  0.00  0.00    -0.124 NA
ENDROOT
BRANCH   4   8
ATOM      8  C   UNL     1       0.821   6.112  -4.975  0.00  0.00    +0.008 A 
ATOM      9  C   UNL     1       0.934   5.621  -3.681  0.00  0.00    -0.002 A 
ATOM     10  C   UNL     1      -0.182   5.583  -2.880  0.00  0.00    -0.000 A 
ATOM     11  C   UNL     1      -1.445   5.611  -3.453  0.00  0.00    -0.000 A 
ATOM     12  C   UNL     1      -1.563   6.306  -4.650  0.00  0.00    -0.000 A 
ATOM     13  C   UNL     1      -0.410   6.631  -5.354  0.00  0.00    -0.002 A 
ENDBRANCH   4   8
BRANCH   4  14
ATOM     14  C   UNL     1       3.268   6.062  -5.250  0.00  0.00    +0.008 A 
ATOM     15  C   UNL     1       3.831   7.316  -5.116  0.00  0.00    -0.002 A 
ATOM     16  C   UNL     1       4.776   7.492  -4.113  0.00  0.00    -0.000 A 
ATOM     17  C   UNL     1       4.980   6.498  -3.162  0.00  0.00    -0.000 A 
ATOM     18  C   UNL     1       4.699   5.209  -3.603  0.00  0.00    -0.000 A 
ATOM     19  C   UNL     1       3.960   4.989  -4.760  0.00  0.00    -0.002 A 
ENDBRANCH   4  14
TORSDOF 2
ENDMDL
MODEL 8
REMARK VINA RESULT:      -7.6      1.819      4.455
REMARK  Name = 
REMARK  2 active torsions:
REMARK  status: ('A' for Active; 'I' for Inactive)
REMARK    1  A    between atoms: C_6  and  C_7
REMARK    2  A    between atoms: C_6  and  C_13
REMARK                            x       y       z     vdW  Elec       q    Type
REMARK                         _______ _______ _______ _____ _____    ______ ____
ROOT
ATOM      1  O   UNL     1       4.205   4.851  -5.815  0.00  0.00    -0.249 OA
ATOM      2  C   UNL     1       3.482   5.512  -6.622  0.00  0.00    +0.347 C 
ATOM      3  N   UNL     1       2.228   5.018  -7.103  0.00  0.00    -0.173 NA
ATOM      4  C   UNL     1       1.477   6.127  -7.682  0.00  0.00    +0.188 C 
ATOM      5  C   UNL     1       2.326   7.324  -7.549  0.00  0.00    +0.275 C 
ATOM      6  O   UNL     1       1.920   8.523  -7.463  0.00  0.00    -0.270 OA
ATOM      7  N   UNL     1       3.562   6.871  -6.996  0.00  0.00    -0.124 NA
ENDROOT
BRANCH   4   8
ATOM      8  C   UNL     1       0.200   6.274  -6.936  0.00  0.00    +0.008 A 
ATOM      9  C   UNL     1       0.184   6.902  -5.697  0.00  0.00    -0.002 A 
ATOM     10  C   UNL     1      -0.954   6.838  -4.930  0.00  0.00    -0.000 A 
ATOM     11  C   UNL     1      -1.888   5.838  -5.159  0.00  0.00    -0.000 A 
ATOM     12  C   UNL     1      -1.996   5.386  -6.468  0.00  0.00    -0.000 A 
ATOM     13  C   UNL     1      -0.984   5.693  -7.370  0.00  0.00    -0.002 A 
ENDBRANCH   4   8
BRANCH   4  14
ATOM     14  C   UNL     1       1.238   5.764  -9.111  0.00  0.00    +0.008 A 
ATOM     15  C   UNL     1       1.345   4.436  -9.472  0.00  0.00    -0.002 A 
ATOM     16  C   UNL     1       0.691   4.030 -10.628  0.00  0.00    -0.000 A 
ATOM     17  C   UNL     1      -0.200   4.887 -11.265  0.00  0.00    -0.000 A 
ATOM     18  C   UNL     1       0.069   6.240 -11.084  0.00  0.00    -0.000 A 
ATOM     19  C   UNL     1       0.931   6.674 -10.084  0.00  0.00    -0.002 A 
ENDBRANCH   4  14
TORSDOF 2
ENDMDL
MODEL 9
REMARK VINA RESULT:      -7.3      2.819      5.032
REMARK  Name = 
REMARK  2 active torsions:
REMARK  status: ('A' for Active; 'I' for Inactive)
REMARK    1  A    between atoms: C_6  and  C_7
REMARK    2  A    between atoms: C_6  and  C_13
REMARK                            x       y       z     vdW  Elec       q    Type
REMARK                         _______ _______ _______ _____ _____    ______ ____
ROOT
ATOM      1  O   UNL     1       2.550   7.389  -5.952  0.00  0.00    -0.249 OA
ATOM      2  C   UNL     1       2.299   6.552  -6.872  0.00  0.00    +0.347 C 
ATOM      3  N   UNL     1       2.440   6.877  -8.260  0.00  0.00    -0.173 NA
ATOM      4  C   UNL     1       2.457   5.639  -9.032  0.00  0.00    +0.188 C 
ATOM      5  C   UNL     1       2.308   4.538  -8.066  0.00  0.00    +0.275 C 
ATOM      6  O   UNL     1       2.738   3.353  -8.210  0.00  0.00    -0.270 OA
ATOM      7  N   UNL     1       2.114   5.155  -6.792  0.00  0.00    -0.124 NA
ENDROOT
BRANCH   4   8
ATOM      8  C   UNL     1       3.748   5.557  -9.764  0.00  0.00    +0.008 A 
ATOM      9  C   UNL     1       4.949   5.645  -9.072  0.00  0.00    -0.002 A 
ATOM     10  C   UNL     1       6.119   5.784  -9.779  0.00  0.00    -0.000 A 
ATOM     11  C   UNL     1       6.088   6.258 -11.083  0.00  0.00    -0.000 A 
ATOM     12  C   UNL     1       4.949   5.957 -11.820  0.00  0.00    -0.000 A 
ATOM     13  C   UNL     1       3.814   5.518 -11.151  0.00  0.00    -0.002 A 
ENDBRANCH   4   8
BRANCH   4  14
ATOM     14  C   UNL     1       1.299   5.723  -9.972  0.00  0.00    +0.008 A 
ATOM     15  C   UNL     1       0.792   6.971 -10.272  0.00  0.00    -0.002 A 
ATOM     16  C   UNL     1       0.068   7.105 -11.450  0.00  0.00    -0.000 A 
ATOM     17  C   UNL     1       0.045   6.069 -12.378  0.00  0.00    -0.000 A 
ATOM     18  C   UNL     1       0.216   4.801 -11.832  0.00  0.00    -0.000 A 
ATOM     19  C   UNL     1       0.705   4.631 -10.543  0.00  0.00    -0.002 A 
ENDBRANCH   4  14
TORSDOF 2
ENDMDL
