MODEL 1
REMARK VINA RESULT:      -6.9      0.000      0.000
REMARK  Name = 
REMARK  5 active torsions:
REMARK  status: ('A' for Active; 'I' for Inactive)
REMARK    1  A    between atoms: N_2  and  C_4
REMARK    2  A    between atoms: C_4  and  C_5
REMARK    3  A    between atoms: C_5  and  C_6
REMARK    4  A    between atoms: C_6  and  C_7
REMARK    5  A    between atoms: C_6  and  C_14
REMARK                            x       y       z     vdW  Elec       q    Type
REMARK                         _______ _______ _______ _____ _____    ______ ____
ROOT
ATOM      1  C   UNL     1       3.672   5.312 -10.095  0.00  0.00    +0.064 C 
ENDROOT
BRANCH   1   2
ATOM      2  C   UNL     1       4.947   6.336 -10.009  0.00  0.00    -0.017 A 
ATOM      3  C   UNL     1       5.981   5.602  -9.424  0.00  0.00    -0.003 A 
ATOM      4  C   UNL     1       7.296   5.750  -9.825  0.00  0.00    +0.011 A 
ATOM      5  C   UNL     1       7.594   6.418 -10.995  0.00  0.00    +0.058 A 
ATOM      6 CL   UNL     1       8.995   6.017 -11.983  0.00  0.00    -0.082 Cl
ATOM      7  C   UNL     1       6.612   7.281 -11.457  0.00  0.00    +0.011 A 
ATOM      8  C   UNL     1       5.295   6.934 -11.188  0.00  0.00    -0.003 A 
ENDBRANCH   1   2
BRANCH   1   9
ATOM      9  C   UNL     1       3.125   5.798  -8.627  0.00  0.00    +0.063 A 
ATOM     10  N   UNL     1       2.260   4.918  -8.102  0.00  0.00    -0.248 NA
ATOM     11  C   UNL     1       1.316   5.362  -7.257  0.00  0.00    +0.098 A 
ATOM     12  C   UNL     1       1.309   6.691  -6.875  0.00  0.00    +0.021 A 
ATOM     13  C   UNL     1       2.085   7.628  -7.545  0.00  0.00    +0.003 A 
ATOM     14  C   UNL     1       2.826   7.144  -8.592  0.00  0.00    +0.015 A 
ENDBRANCH   1   9
BRANCH   1  15
ATOM     15  C   UNL     1       2.694   6.428 -10.862  0.00  0.00    +0.028 C 
BRANCH  15  16
ATOM     16  C   UNL     1       1.905   5.475 -11.751  0.00  0.00    +0.073 C 
BRANCH  16  18
ATOM     17  C   UNL     1       0.180   4.819 -11.005  0.00  0.00    +0.090 C 
ATOM     18  N   UNL     1       0.503   5.491 -11.358  0.00  0.00    -0.270 NA
ATOM     19  C   UNL     1       0.189   6.875 -11.004  0.00  0.00    +0.090 C 
ENDBRANCH  16  18
ENDBRANCH  15  16
ENDBRANCH   1  15
TORSDOF 5
ENDMDL
MODEL 2
REMARK VINA RESULT:      -6.3      4.317      7.432
REMARK  Name = 
REMARK  5 active torsions:
REMARK  status: ('A' for Active; 'I' for Inactive)
REMARK    1  A    between atoms: N_2  and  C_4
REMARK    2  A    between atoms: C_4  and  C_5
REMARK    3  A    between atoms: C_5  and  C_6
REMARK    4  A    between atoms: C_6  and  C_7
REMARK    5  A    between atoms: C_6  and  C_14
REMARK                            x       y       z     vdW  Elec       q    Type
REMARK                         _______ _______ _______ _____ _____    ______ ____
ROOT
ATOM      1  C   UNL     1       1.512   4.735  -6.344  0.00  0.00    +0.064 C 
ENDROOT
BRANCH   1   2
ATOM      2  C   UNL     1       0.385   5.922  -6.399  0.00  0.00    -0.017 A 
ATOM      3  C   UNL     1      -0.831   5.276  -6.632  0.00  0.00    -0.003 A 
ATOM      4  C   UNL     1      -2.006   5.698  -6.038  0.00  0.00    +0.011 A 
ATOM      5  C   UNL     1      -1.970   6.592  -4.988  0.00  0.00    +0.058 A 
ATOM      6 CL   UNL     1      -3.176   6.594  -3.705  0.00  0.00    -0.082 Cl
ATOM      7  C   UNL     1      -0.814   7.352  -4.889  0.00  0.00    +0.011 A 
ATOM      8  C   UNL     1       0.365   6.757  -5.318  0.00  0.00    -0.003 A 
ENDBRANCH   1   2
BRANCH   1   9
ATOM      9  C   UNL     1       2.067   5.132  -7.835  0.00  0.00    +0.063 A 
ATOM     10  N   UNL     1       2.814   4.152  -8.366  0.00  0.00    -0.248 NA
ATOM     11  C   UNL     1       3.777   4.474  -9.245  0.00  0.00    +0.098 A 
ATOM     12  C   UNL     1       3.920   5.787  -9.653  0.00  0.00    +0.021 A 
ATOM     13  C   UNL     1       3.271   6.816  -8.983  0.00  0.00    +0.003 A 
ATOM     14  C   UNL     1       2.512   6.436  -7.906  0.00  0.00    +0.015 A 
ENDBRANCH   1   9
BRANCH   1  15
ATOM     15  C   UNL     1       2.659   5.714  -5.625  0.00  0.00    +0.028 C 
BRANCH  15  16
ATOM     16  C   UNL     1       3.399   4.653  -4.820  0.00  0.00    +0.073 C 
BRANCH  16  18
ATOM     17  C   UNL     1       4.793   5.970  -4.283  0.00  0.00    +0.090 C 
ATOM     18  N   UNL     1       4.419   5.291  -3.999  0.00  0.00    -0.270 NA
ATOM     19  C   UNL     1       4.046   5.042  -2.607  0.00  0.00    +0.090 C 
ENDBRANCH  16  18
ENDBRANCH  15  16
ENDBRANCH   1  15
TORSDOF 5
ENDMDL
MODEL 3
REMARK VINA RESULT:      -6.3      3.592      6.026
REMARK  Name = 
REMARK  5 active torsions:
REMARK  status: ('A' for Active; 'I' for Inactive)
REMARK    1  A    between atoms: N_2  and  C_4
REMARK    2  A    between atoms: C_4  and  C_5
REMARK    3  A    between atoms: C_5  and  C_6
REMARK    4  A    between atoms: C_6  and  C_7
REMARK    5  A    between atoms: C_6  and  C_14
REMARK                            x       y       z     vdW  Elec       q    Type
REMARK                         _______ _______ _______ _____ _____    ______ ____
ROOT
ATOM      1  C   UNL     1       0.875   6.450  -8.957  0.00  0.00    +0.064 C 
ENDROOT
BRANCH   1   2
ATOM      2  C   UNL     1       0.430   5.772  -7.534  0.00  0.00    -0.017 A 
ATOM      3  C   UNL     1       0.806   6.686  -6.547  0.00  0.00    -0.003 A 
ATOM      4  C   UNL     1       0.029   6.907  -5.425  0.00  0.00    +0.011 A 
ATOM      5  C   UNL     1      -1.269   6.442  -5.376  0.00  0.00    +0.058 A 
ATOM      6 CL   UNL     1      -2.537   7.265  -4.474  0.00  0.00    -0.082 Cl
ATOM      7  C   UNL     1      -1.565   5.405  -6.249  0.00  0.00    +0.011 A 
ATOM      8  C   UNL     1      -0.880   5.388  -7.456  0.00  0.00    -0.003 A 
ENDBRANCH   1   2
BRANCH   1   9
ATOM      9  C   UNL     1       2.441   6.025  -8.718  0.00  0.00    +0.063 A 
ATOM     10  N   UNL     1       3.286   6.898  -9.290  0.00  0.00    -0.248 NA
ATOM     11  C   UNL     1       4.490   6.463  -9.697  0.00  0.00    +0.098 A 
ATOM     12  C   UNL     1       4.870   5.160  -9.440  0.00  0.00    +0.021 A 
ATOM     13  C   UNL     1       3.942   4.218  -9.010  0.00  0.00    +0.003 A 
ATOM     14  C   UNL     1       2.655   4.673  -8.880  0.00  0.00    +0.015 A 
ENDBRANCH   1   9
BRANCH   1  15
ATOM     15  C   UNL     1       0.598   5.053  -9.829  0.00  0.00    +0.028 C 
BRANCH  15  16
ATOM     16  C   UNL     1       0.085   5.681 -11.118  0.00  0.00    +0.073 C 
BRANCH  16  18
ATOM     17  C   UNL     1       0.596   4.709 -12.779  0.00  0.00    +0.090 C 
ATOM     18  N   UNL     1       0.912   5.243 -12.234  0.00  0.00    -0.270 NA
ATOM     19  C   UNL     1       1.804   6.357 -12.552  0.00  0.00    +0.090 C 
ENDBRANCH  16  18
ENDBRANCH  15  16
ENDBRANCH   1  15
TORSDOF 5
ENDMDL
MODEL 4
REMARK VINA RESULT:      -6.3      4.482      7.159
REMARK  Name = 
REMARK  5 active torsions:
REMARK  status: ('A' for Active; 'I' for Inactive)
REMARK    1  A    between atoms: N_2  and  C_4
REMARK    2  A    between atoms: C_4  and  C_5
REMARK    3  A    between atoms: C_5  and  C_6
REMARK    4  A    between atoms: C_6  and  C_7
REMARK    5  A    between atoms: C_6  and  C_14
REMARK                            x       y       z     vdW  Elec       q    Type
REMARK                         _______ _______ _______ _____ _____    ______ ____
ROOT
ATOM      1  C   UNL     1       0.796   5.095  -7.697  0.00  0.00    +0.064 C 
ENDROOT
BRANCH   1   2
ATOM      2  C   UNL     1      -0.313   6.052  -6.965  0.00  0.00    -0.017 A 
ATOM      3  C   UNL     1      -1.529   5.375  -7.079  0.00  0.00    -0.003 A 
ATOM      4  C   UNL     1      -2.466   5.385  -6.063  0.00  0.00    +0.011 A 
ATOM      5  C   UNL     1      -2.121   5.829  -4.804  0.00  0.00    +0.058 A 
ATOM      6 CL   UNL     1      -2.864   5.195  -3.339  0.00  0.00    -0.082 Cl
ATOM      7  C   UNL     1      -1.006   6.652  -4.746  0.00  0.00    +0.011 A 
ATOM      8  C   UNL     1      -0.009   6.424  -5.686  0.00  0.00    -0.003 A 
ENDBRANCH   1   2
BRANCH   1   9
ATOM      9  C   UNL     1       0.182   5.442  -9.178  0.00  0.00    +0.063 A 
ATOM     10  N   UNL     1       0.288   4.399 -10.017  0.00  0.00    -0.248 NA
ATOM     11  C   UNL     1       0.387   4.635 -11.335  0.00  0.00    +0.098 A 
ATOM     12  C   UNL     1       0.288   5.930 -11.808  0.00  0.00    +0.021 A 
ATOM     13  C   UNL     1       0.354   7.013 -10.940  0.00  0.00    +0.003 A 
ATOM     14  C   UNL     1       0.534   6.701  -9.617  0.00  0.00    +0.015 A 
ENDBRANCH   1   9
BRANCH   1  15
ATOM     15  C   UNL     1       1.916   6.326  -7.841  0.00  0.00    +0.028 C 
BRANCH  15  16
ATOM     16  C   UNL     1       3.157   5.565  -7.393  0.00  0.00    +0.073 C 
BRANCH  16  18
ATOM     17  C   UNL     1       3.555   6.962  -6.031  0.00  0.00    +0.090 C 
ATOM     18  N   UNL     1       3.672   6.156  -6.165  0.00  0.00    -0.270 NA
ATOM     19  C   UNL     1       3.623   5.107  -5.148  0.00  0.00    +0.090 C 
ENDBRANCH  16  18
ENDBRANCH  15  16
ENDBRANCH   1  15
TORSDOF 5
ENDMDL
MODEL 5
REMARK VINA RESULT:      -6.2      3.665      6.667
REMARK  Name = 
REMARK  5 active torsions:
REMARK  status: ('A' for Active; 'I' for Inactive)
REMARK    1  A    between atoms: N_2  and  C_4
REMARK    2  A    between atoms: C_4  and  C_5
REMARK    3  A    between atoms: C_5  and  C_6
REMARK    4  A    between atoms: C_6  and  C_7
REMARK    5  A    between atoms: C_6  and  C_14
REMARK                            x       y       z     vdW  Elec       q    Type
REMARK                         _______ _______ _______ _____ _____    ______ ____
ROOT
ATOM      1  C   UNL     1       0.953   4.916  -8.122  0.00  0.00    +0.064 C 
ENDROOT
BRANCH   1   2
ATOM      2  C   UNL     1      -0.007   5.973  -7.320  0.00  0.00    -0.017 A 
ATOM      3  C   UNL     1      -1.247   5.340  -7.200  0.00  0.00    -0.003 A 
ATOM      4  C   UNL     1      -2.023   5.469  -6.064  0.00  0.00    +0.011 A 
ATOM      5  C   UNL     1      -1.483   5.995  -4.909  0.00  0.00    +0.058 A 
ATOM      6 CL   UNL     1      -2.022   5.509  -3.305  0.00  0.00    -0.082 Cl
ATOM      7  C   UNL     1      -0.348   6.772  -5.082  0.00  0.00    +0.011 A 
ATOM      8  C   UNL     1       0.492   6.430  -6.133  0.00  0.00    -0.003 A 
ENDBRANCH   1   2
BRANCH   1   9
ATOM      9  C   UNL     1       0.267   5.314  -9.557  0.00  0.00    +0.063 A 
ATOM     10  N   UNL     1       0.472   4.367 -10.486  0.00  0.00    -0.248 NA
ATOM     11  C   UNL     1       0.511   4.725 -11.779  0.00  0.00    +0.098 A 
ATOM     12  C   UNL     1       0.251   6.035 -12.135  0.00  0.00    +0.021 A 
ATOM     13  C   UNL     1       0.211   7.040 -11.176  0.00  0.00    +0.003 A 
ATOM     14  C   UNL     1       0.459   6.639  -9.888  0.00  0.00    +0.015 A 
ENDBRANCH   1   9
BRANCH   1  15
ATOM     15  C   UNL     1       2.168   6.038  -8.358  0.00  0.00    +0.028 C 
BRANCH  15  16
ATOM     16  C   UNL     1       3.369   5.142  -8.087  0.00  0.00    +0.073 C 
BRANCH  16  18
ATOM     17  C   UNL     1       3.984   5.480  -9.950  0.00  0.00    +0.090 C 
ATOM     18  N   UNL     1       4.258   5.159  -9.241  0.00  0.00    -0.270 NA
ATOM     19  C   UNL     1       5.616   5.287  -8.716  0.00  0.00    +0.090 C 
ENDBRANCH  16  18
ENDBRANCH  15  16
ENDBRANCH   1  15
TORSDOF 5
ENDMDL
MODEL 6
REMARK VINA RESULT:      -6.2      2.885      4.193
REMARK  Name = 
REMARK  5 active torsions:
REMARK  status: ('A' for Active; 'I' for Inactive)
REMARK    1  A    between atoms: N_2  and  C_4
REMARK    2  A    between atoms: C_4  and  C_5
REMARK    3  A    between atoms: C_5  and  C_6
REMARK    4  A    between atoms: C_6  and  C_7
REMARK    5  A    between atoms: C_6  and  C_14
REMARK                            x       y       z     vdW  Elec       q    Type
REMARK                         _______ _______ _______ _____ _____    ______ ____
ROOT
ATOM      1  C   UNL     1       3.240   5.036  -6.846  0.00  0.00    +0.064 C 
ENDROOT
BRANCH   1   2
ATOM      2  C   UNL     1       4.026   6.035  -7.879  0.00  0.00    -0.017 A 
ATOM      3  C   UNL     1       5.213   5.377  -8.209  0.00  0.00    -0.003 A 
ATOM      4  C   UNL     1       5.747   5.434  -9.482  0.00  0.00    +0.011 A 
ATOM      5  C   UNL     1       4.990   5.909 -10.533  0.00  0.00    +0.058 A 
ATOM      6 CL   UNL     1       5.194   5.334 -12.184  0.00  0.00    -0.082 Cl
ATOM      7  C   UNL     1       3.916   6.713 -10.179  0.00  0.00    +0.011 A 
ATOM      8  C   UNL     1       3.301   6.438  -8.965  0.00  0.00    -0.003 A 
ENDBRANCH   1   2
BRANCH   1   9
ATOM      9  C   UNL     1       4.128   5.576  -5.578  0.00  0.00    +0.063 A 
ATOM     10  N   UNL     1       4.108   4.711  -4.552  0.00  0.00    -0.248 NA
ATOM     11  C   UNL     1       4.259   5.183  -3.304  0.00  0.00    +0.098 A 
ATOM     12  C   UNL     1       4.522   6.525  -3.106  0.00  0.00    +0.021 A 
ATOM     13  C   UNL     1       4.372   7.441  -4.140  0.00  0.00    +0.003 A 
ATOM     14  C   UNL     1       3.940   6.920  -5.333  0.00  0.00    +0.015 A 
ENDBRANCH   1   9
BRANCH   1  15
ATOM     15  C   UNL     1       2.039   6.150  -6.518  0.00  0.00    +0.028 C 
BRANCH  15  16
ATOM     16  C   UNL     1       0.863   5.191  -6.378  0.00  0.00    +0.073 C 
BRANCH  16  18
ATOM     17  C   UNL     1      -0.858   5.695  -5.514  0.00  0.00    +0.090 C 
ATOM     18  N   UNL     1      -0.048   5.687  -5.356  0.00  0.00    -0.270 NA
ATOM     19  C   UNL     1       0.566   5.374  -4.067  0.00  0.00    +0.090 C 
ENDBRANCH  16  18
ENDBRANCH  15  16
ENDBRANCH   1  15
TORSDOF 5
ENDMDL
MODEL 7
REMARK VINA RESULT:      -6.1      3.395      5.929
REMARK  Name = 
REMARK  5 active torsions:
REMARK  status: ('A' for Active; 'I' for Inactive)
REMARK    1  A    between atoms: N_2  and  C_4
REMARK    2  A    between atoms: C_4  and  C_5
REMARK    3  A    between atoms: C_5  and  C_6
REMARK    4  A    between atoms: C_6  and  C_7
REMARK    5  A    between atoms: C_6  and  C_14
REMARK                            x       y       z     vdW  Elec       q    Type
REMARK                         _______ _______ _______ _____ _____    ______ ____
ROOT
ATOM      1  C   UNL     1       1.566   6.686  -5.507  0.00  0.00    +0.064 C 
ENDROOT
BRANCH   1   2
ATOM      2  C   UNL     1       1.844   6.000  -6.967  0.00  0.00    -0.017 A 
ATOM      3  C   UNL     1       2.231   7.046  -7.808  0.00  0.00    -0.003 A 
ATOM      4  C   UNL     1       3.208   6.882  -8.772  0.00  0.00    +0.011 A 
ATOM      5  C   UNL     1       4.023   5.770  -8.753  0.00  0.00    +0.058 A 
ATOM      6 CL   UNL     1       5.684   5.802  -9.336  0.00  0.00    -0.082 Cl
ATOM      7  C   UNL     1       3.527   4.678  -8.056  0.00  0.00    +0.011 A 
ATOM      8  C   UNL     1       2.718   4.949  -6.961  0.00  0.00    -0.003 A 
ENDBRANCH   1   2
BRANCH   1   9
ATOM      9  C   UNL     1      -0.025   6.882  -5.853  0.00  0.00    +0.063 A 
ATOM     10  N   UNL     1      -0.628   7.700  -4.976  0.00  0.00    -0.248 NA
ATOM     11  C   UNL     1      -1.940   7.540  -4.737  0.00  0.00    +0.098 A 
ATOM     12  C   UNL     1      -2.658   6.606  -5.458  0.00  0.00    +0.021 A 
ATOM     13  C   UNL     1      -2.010   5.650  -6.232  0.00  0.00    +0.003 A 
ATOM     14  C   UNL     1      -0.640   5.700  -6.209  0.00  0.00    +0.015 A 
ENDBRANCH   1   9
BRANCH   1  15
ATOM     15  C   UNL     1       1.254   5.224  -4.762  0.00  0.00    +0.028 C 
BRANCH  15  16
ATOM     16  C   UNL     1       1.848   5.527  -3.393  0.00  0.00    +0.073 C 
BRANCH  16  18
ATOM     17  C   UNL     1       0.068   5.115  -2.600  0.00  0.00    +0.090 C 
ATOM     18  N   UNL     1       0.824   5.356  -2.371  0.00  0.00    -0.270 NA
ATOM     19  C   UNL     1       1.519   4.941  -1.154  0.00  0.00    +0.090 C 
ENDBRANCH  16  18
ENDBRANCH  15  16
ENDBRANCH   1  15
TORSDOF 5
ENDMDL
MODEL 8
REMARK VINA RESULT:      -6.1      2.621      4.733
REMARK  Name = 
REMARK  5 active torsions:
REMARK  status: ('A' for Active; 'I' for Inactive)
REMARK    1  A    between atoms: N_2  and  C_4
REMARK    2  A    between atoms: C_4  and  C_5
REMARK    3  A    between atoms: C_5  and  C_6
REMARK    4  A    between atoms: C_6  and  C_7
REMARK    5  A    between atoms: C_6  and  C_14
REMARK                            x       y       z     vdW  Elec       q    Type
REMARK                         _______ _______ _______ _____ _____    ______ ____
ROOT
ATOM      1  C   UNL     1       3.710   6.725  -6.731  0.00  0.00    +0.064 C 
ENDROOT
BRANCH   1   2
ATOM      2  C   UNL     1       4.076   5.931  -8.116  0.00  0.00    -0.017 A 
ATOM      3  C   UNL     1       3.683   6.780  -9.152  0.00  0.00    -0.003 A 
ATOM      4  C   UNL     1       4.417   6.894 -10.318  0.00  0.00    +0.011 A 
ATOM      5  C   UNL     1       5.698   6.387 -10.385  0.00  0.00    +0.058 A 
ATOM      6 CL   UNL     1       6.948   7.103 -11.397  0.00  0.00    -0.082 Cl
ATOM      7  C   UNL     1       6.002   5.410  -9.450  0.00  0.00    +0.011 A 
ATOM      8  C   UNL     1       5.370   5.502  -8.218  0.00  0.00    -0.003 A 
ENDBRANCH   1   2
BRANCH   1   9
ATOM      9  C   UNL     1       2.183   6.128  -6.740  0.00  0.00    +0.063 A 
ATOM     10  N   UNL     1       1.317   6.965  -6.148  0.00  0.00    -0.248 NA
ATOM     11  C   UNL     1       0.221   6.458  -5.563  0.00  0.00    +0.098 A 
ATOM     12  C   UNL     1      -0.042   5.104  -5.658  0.00  0.00    +0.021 A 
ATOM     13  C   UNL     1       0.929   4.220  -6.113  0.00  0.00    +0.003 A 
ATOM     14  C   UNL     1       2.137   4.783  -6.437  0.00  0.00    +0.015 A 
ENDBRANCH   1   9
BRANCH   1  15
ATOM     15  C   UNL     1       4.226   5.472  -5.754  0.00  0.00    +0.028 C 
BRANCH  15  16
ATOM     16  C   UNL     1       4.717   6.290  -4.566  0.00  0.00    +0.073 C 
BRANCH  16  18
ATOM     17  C   UNL     1       3.604   5.623  -3.055  0.00  0.00    +0.090 C 
ATOM     18  N   UNL     1       3.697   6.295  -3.525  0.00  0.00    -0.270 NA
ATOM     19  C   UNL     1       3.579   7.678  -3.068  0.00  0.00    +0.090 C 
ENDBRANCH  16  18
ENDBRANCH  15  16
ENDBRANCH   1  15
TORSDOF 5
ENDMDL
MODEL 9
REMARK VINA RESULT:      -6.0      3.912      5.759
REMARK  Name = 
REMARK  5 active torsions:
REMARK  status: ('A' for Active; 'I' for Inactive)
REMARK    1  A    between atoms: N_2  and  C_4
REMARK    2  A    between atoms: C_4  and  C_5
REMARK    3  A    between atoms: C_5  and  C_6
REMARK    4  A    between atoms: C_6  and  C_7
REMARK    5  A    between atoms: C_6  and  C_14
REMARK                            x       y       z     vdW  Elec       q    Type
REMARK                         _______ _______ _______ _____ _____    ______ ____
ROOT
ATOM      1  C   UNL     1       2.653   6.907  -6.290  0.00  0.00    +0.064 C 
ENDROOT
BRANCH   1   2
ATOM      2  C   UNL     1       3.786   6.290  -5.281  0.00  0.00    -0.017 A 
ATOM      3  C   UNL     1       4.614   7.363  -4.943  0.00  0.00    -0.003 A 
ATOM      4  C   UNL     1       5.142   7.503  -3.673  0.00  0.00    +0.011 A 
ATOM      5  C   UNL     1       4.651   6.747  -2.629  0.00  0.00    +0.058 A 
ATOM      6 CL   UNL     1       4.627   7.328  -0.967  0.00  0.00    -0.082 Cl
ATOM      7  C   UNL     1       3.985   5.586  -2.995  0.00  0.00    +0.011 A 
ATOM      8  C   UNL     1       3.297   5.611  -4.200  0.00  0.00    -0.003 A 
ENDBRANCH   1   2
BRANCH   1   9
ATOM      9  C   UNL     1       3.484   6.393  -7.608  0.00  0.00    +0.063 A 
ATOM     10  N   UNL     1       3.160   7.095  -8.705  0.00  0.00    -0.248 NA
ATOM     11  C   UNL     1       3.264   6.505  -9.906  0.00  0.00    +0.098 A 
ATOM     12  C   UNL     1       3.784   5.228  -9.999  0.00  0.00    +0.021 A 
ATOM     13  C   UNL     1       3.954   4.444  -8.865  0.00  0.00    +0.003 A 
ATOM     14  C   UNL     1       3.561   5.018  -7.683  0.00  0.00    +0.015 A 
ENDBRANCH   1   9
BRANCH   1  15
ATOM     15  C   UNL     1       1.738   5.509  -6.285  0.00  0.00    +0.028 C 
BRANCH  15  16
ATOM     16  C   UNL     1       0.351   6.138  -6.302  0.00  0.00    +0.073 C 
BRANCH  16  18
ATOM     17  C   UNL     1      -1.324   5.231  -6.884  0.00  0.00    +0.090 C 
ATOM     18  N   UNL     1      -0.539   5.328  -7.122  0.00  0.00    -0.270 NA
ATOM     19  C   UNL     1      -0.080   5.476  -8.503  0.00  0.00    +0.090 C 
ENDBRANCH  16  18
ENDBRANCH  15  16
ENDBRANCH   1  15
TORSDOF 5
ENDMDL
