MODEL 1
REMARK VINA RESULT:      -4.8      0.000      0.000
REMARK  Name = 
REMARK  5 active torsions:
REMARK  status: ('A' for Active; 'I' for Inactive)
REMARK    1  A    between atoms: C_2  and  C_3
REMARK    2  A    between atoms: C_3  and  C_5
REMARK    3  A    between atoms: C_5  and  C_7
REMARK    4  A    between atoms: C_7  and  C_9
REMARK    5  A    between atoms: C_9  and  C_11
REMARK                            x       y       z     vdW  Elec       q    Type
REMARK                         _______ _______ _______ _____ _____    ______ ____
ROOT
ATOM      1  C   UNL     1       1.740   6.243  -2.498  0.00  0.00    +0.217 C 
ATOM      2  O   UNL     1       2.759   5.651  -3.429  0.00  0.00    -0.217 OA
ENDROOT
BRANCH   1   3
ATOM      3  C   UNL     1       2.337   5.300  -1.195  0.00  0.00    +0.217 C 
ATOM      4  O   UNL     1       1.557   5.929  -0.072  0.00  0.00    -0.217 OA
BRANCH   3   6
ATOM      5  O   UNL     1       4.329   5.815   0.010  0.00  0.00    -0.217 OA
ATOM      6  C   UNL     1       3.602   6.340  -1.016  0.00  0.00    +0.217 C 
ENDBRANCH   3   6
ENDBRANCH   1   3
BRANCH   1   7
ATOM      7  C   UNL     1       0.559   5.170  -3.087  0.00  0.00    +0.217 C 
ATOM      8  O   UNL     1       0.664   5.833  -4.426  0.00  0.00    -0.217 OA
BRANCH   7   9
ATOM      9  C   UNL     1      -0.765   6.094  -2.488  0.00  0.00    +0.217 C 
ATOM     10  O   UNL     1      -1.042   4.995  -1.481  0.00  0.00    -0.217 OA
BRANCH   9  11
ATOM     11  C   UNL     1      -1.900   5.497  -3.514  0.00  0.00    +0.217 C 
ATOM     12  O   UNL     1      -2.775   4.753  -2.728  0.00  0.00    -0.217 OA
ENDBRANCH   9  11
ENDBRANCH   7   9
ENDBRANCH   1   7
TORSDOF 5
ENDMDL
MODEL 2
REMARK VINA RESULT:      -4.8      0.645      4.560
REMARK  Name = 
REMARK  5 active torsions:
REMARK  status: ('A' for Active; 'I' for Inactive)
REMARK    1  A    between atoms: C_2  and  C_3
REMARK    2  A    between atoms: C_3  and  C_5
REMARK    3  A    between atoms: C_5  and  C_7
REMARK    4  A    between atoms: C_7  and  C_9
REMARK    5  A    between atoms: C_9  and  C_11
REMARK                            x       y       z     vdW  Elec       q    Type
REMARK                         _______ _______ _______ _____ _____    ______ ____
ROOT
ATOM      1  C   UNL     1       0.560   5.464  -3.157  0.00  0.00    +0.217 C 
ATOM      2  O   UNL     1       0.480   6.501  -4.240  0.00  0.00    -0.217 OA
ENDROOT
BRANCH   1   3
ATOM      3  C   UNL     1      -0.770   6.175  -2.337  0.00  0.00    +0.217 C 
ATOM      4  O   UNL     1      -0.968   5.137  -1.265  0.00  0.00    -0.217 OA
BRANCH   3   6
ATOM      5  O   UNL     1      -2.697   4.788  -2.558  0.00  0.00    -0.217 OA
ATOM      6  C   UNL     1      -1.811   5.429  -3.372  0.00  0.00    +0.217 C 
ENDBRANCH   3   6
ENDBRANCH   1   3
BRANCH   1   7
ATOM      7  C   UNL     1       1.825   6.322  -2.410  0.00  0.00    +0.217 C 
ATOM      8  O   UNL     1       2.696   6.005  -3.586  0.00  0.00    -0.217 OA
BRANCH   7   9
ATOM      9  C   UNL     1       2.308   5.001  -1.417  0.00  0.00    +0.217 C 
ATOM     10  O   UNL     1       1.991   5.838  -0.194  0.00  0.00    -0.217 OA
BRANCH   9  11
ATOM     11  C   UNL     1       3.900   5.396  -1.327  0.00  0.00    +0.217 C 
ATOM     12  O   UNL     1       4.518   4.350  -0.650  0.00  0.00    -0.217 OA
ENDBRANCH   9  11
ENDBRANCH   7   9
ENDBRANCH   1   7
TORSDOF 5
ENDMDL
MODEL 3
REMARK VINA RESULT:      -4.7      2.810      3.501
REMARK  Name = 
REMARK  5 active torsions:
REMARK  status: ('A' for Active; 'I' for Inactive)
REMARK    1  A    between atoms: C_2  and  C_3
REMARK    2  A    between atoms: C_3  and  C_5
REMARK    3  A    between atoms: C_5  and  C_7
REMARK    4  A    between atoms: C_7  and  C_9
REMARK    5  A    between atoms: C_9  and  C_11
REMARK                            x       y       z     vdW  Elec       q    Type
REMARK                         _______ _______ _______ _____ _____    ______ ____
ROOT
ATOM      1  C   UNL     1       0.255   6.664  -5.600  0.00  0.00    +0.217 C 
ATOM      2  O   UNL     1       0.287   6.097  -6.990  0.00  0.00    -0.217 OA
ENDROOT
BRANCH   1   3
ATOM      3  C   UNL     1       1.787   5.974  -5.251  0.00  0.00    +0.217 C 
ATOM      4  O   UNL     1       2.124   6.762  -4.013  0.00  0.00    -0.217 OA
BRANCH   3   6
ATOM      5  O   UNL     1       3.642   7.435  -5.583  0.00  0.00    -0.217 OA
ATOM      6  C   UNL     1       2.511   7.067  -6.249  0.00  0.00    +0.217 C 
ENDBRANCH   3   6
ENDBRANCH   1   3
BRANCH   1   7
ATOM      7  C   UNL     1      -0.740   5.384  -5.086  0.00  0.00    +0.217 C 
ATOM      8  O   UNL     1      -1.849   5.949  -5.918  0.00  0.00    -0.217 OA
BRANCH   7   9
ATOM      9  C   UNL     1      -1.171   6.144  -3.602  0.00  0.00    +0.217 C 
ATOM     10  O   UNL     1      -0.461   5.030  -2.856  0.00  0.00    -0.217 OA
BRANCH   9  11
ATOM     11  C   UNL     1      -2.623   5.399  -3.416  0.00  0.00    +0.217 C 
ATOM     12  O   UNL     1      -2.622   4.872  -2.128  0.00  0.00    -0.217 OA
ENDBRANCH   9  11
ENDBRANCH   7   9
ENDBRANCH   1   7
TORSDOF 5
ENDMDL
MODEL 4
REMARK VINA RESULT:      -4.7      3.059      5.050
REMARK  Name = 
REMARK  5 active torsions:
REMARK  status: ('A' for Active; 'I' for Inactive)
REMARK    1  A    between atoms: C_2  and  C_3
REMARK    2  A    between atoms: C_3  and  C_5
REMARK    3  A    between atoms: C_5  and  C_7
REMARK    4  A    between atoms: C_7  and  C_9
REMARK    5  A    between atoms: C_9  and  C_11
REMARK                            x       y       z     vdW  Elec       q    Type
REMARK                         _______ _______ _______ _____ _____    ______ ____
ROOT
ATOM      1  C   UNL     1      -1.280   5.364  -5.106  0.00  0.00    +0.217 C 
ATOM      2  O   UNL     1      -2.075   6.500  -5.683  0.00  0.00    -0.217 OA
ENDROOT
BRANCH   1   3
ATOM      3  C   UNL     1      -1.336   6.077  -3.546  0.00  0.00    +0.217 C 
ATOM      4  O   UNL     1      -0.632   4.997  -2.768  0.00  0.00    -0.217 OA
BRANCH   3   6
ATOM      5  O   UNL     1      -2.745   4.884  -2.037  0.00  0.00    -0.217 OA
ATOM      6  C   UNL     1      -2.822   5.413  -3.291  0.00  0.00    +0.217 C 
ENDBRANCH   3   6
ENDBRANCH   1   3
BRANCH   1   7
ATOM      7  C   UNL     1       0.162   6.067  -5.671  0.00  0.00    +0.217 C 
ATOM      8  O   UNL     1      -0.322   5.865  -7.074  0.00  0.00    -0.217 OA
BRANCH   7   9
ATOM      9  C   UNL     1       1.074   4.612  -5.542  0.00  0.00    +0.217 C 
ATOM     10  O   UNL     1       1.955   5.287  -4.509  0.00  0.00    -0.217 OA
BRANCH   9  11
ATOM     11  C   UNL     1       2.147   4.948  -6.739  0.00  0.00    +0.217 C 
ATOM     12  O   UNL     1       2.361   3.749  -7.411  0.00  0.00    -0.217 OA
ENDBRANCH   9  11
ENDBRANCH   7   9
ENDBRANCH   1   7
TORSDOF 5
ENDMDL
MODEL 5
REMARK VINA RESULT:      -4.6      4.559      6.940
REMARK  Name = 
REMARK  5 active torsions:
REMARK  status: ('A' for Active; 'I' for Inactive)
REMARK    1  A    between atoms: C_2  and  C_3
REMARK    2  A    between atoms: C_3  and  C_5
REMARK    3  A    between atoms: C_5  and  C_7
REMARK    4  A    between atoms: C_7  and  C_9
REMARK    5  A    between atoms: C_9  and  C_11
REMARK                            x       y       z     vdW  Elec       q    Type
REMARK                         _______ _______ _______ _____ _____    ______ ____
ROOT
ATOM      1  C   UNL     1       2.618   6.719  -7.857  0.00  0.00    +0.217 C 
ATOM      2  O   UNL     1       2.169   8.150  -7.782  0.00  0.00    -0.217 OA
ENDROOT
BRANCH   1   3
ATOM      3  C   UNL     1       1.087   6.239  -8.468  0.00  0.00    +0.217 C 
ATOM      4  O   UNL     1       1.391   4.793  -8.756  0.00  0.00    -0.217 OA
BRANCH   3   6
ATOM      5  O   UNL     1       0.388   7.215 -10.528  0.00  0.00    -0.217 OA
ATOM      6  C   UNL     1       1.534   6.724  -9.977  0.00  0.00    +0.217 C 
ENDBRANCH   3   6
ENDBRANCH   1   3
BRANCH   1   7
ATOM      7  C   UNL     1       2.316   6.523  -6.193  0.00  0.00    +0.217 C 
ATOM      8  O   UNL     1       3.446   7.463  -5.906  0.00  0.00    -0.217 OA
BRANCH   7   9
ATOM      9  C   UNL     1       3.213   5.058  -6.071  0.00  0.00    +0.217 C 
ATOM     10  O   UNL     1       1.929   4.332  -5.718  0.00  0.00    -0.217 OA
BRANCH   9  11
ATOM     11  C   UNL     1       3.614   5.207  -4.486  0.00  0.00    +0.217 C 
ATOM     12  O   UNL     1       4.916   4.728  -4.373  0.00  0.00    -0.217 OA
ENDBRANCH   9  11
ENDBRANCH   7   9
ENDBRANCH   1   7
TORSDOF 5
ENDMDL
MODEL 6
REMARK VINA RESULT:      -4.6     10.169     11.537
REMARK  Name = 
REMARK  5 active torsions:
REMARK  status: ('A' for Active; 'I' for Inactive)
REMARK    1  A    between atoms: C_2  and  C_3
REMARK    2  A    between atoms: C_3  and  C_5
REMARK    3  A    between atoms: C_5  and  C_7
REMARK    4  A    between atoms: C_7  and  C_9
REMARK    5  A    between atoms: C_9  and  C_11
REMARK                            x       y       z     vdW  Elec       q    Type
REMARK                         _______ _______ _______ _____ _____    ______ ____
ROOT
ATOM      1  C   UNL     1       4.574   5.311 -11.997  0.00  0.00    +0.217 C 
ATOM      2  O   UNL     1       4.713   6.261 -10.842  0.00  0.00    -0.217 OA
ENDROOT
BRANCH   1   3
ATOM      3  C   UNL     1       5.858   6.087 -12.830  0.00  0.00    +0.217 C 
ATOM      4  O   UNL     1       6.066   5.083 -13.932  0.00  0.00    -0.217 OA
BRANCH   3   6
ATOM      5  O   UNL     1       7.783   4.687 -12.686  0.00  0.00    -0.217 OA
ATOM      6  C   UNL     1       6.950   5.354 -11.838  0.00  0.00    +0.217 C 
ENDBRANCH   3   6
ENDBRANCH   1   3
BRANCH   1   7
ATOM      7  C   UNL     1       3.271   6.220 -12.606  0.00  0.00    +0.217 C 
ATOM      8  O   UNL     1       2.423   5.702 -11.485  0.00  0.00    -0.217 OA
BRANCH   7   9
ATOM      9  C   UNL     1       2.828   5.039 -13.779  0.00  0.00    +0.217 C 
ATOM     10  O   UNL     1       3.083   6.064 -14.867  0.00  0.00    -0.217 OA
BRANCH   9  11
ATOM     11  C   UNL     1       1.219   5.368 -13.788  0.00  0.00    +0.217 C 
ATOM     12  O   UNL     1       0.878   5.580 -15.121  0.00  0.00    -0.217 OA
ENDBRANCH   9  11
ENDBRANCH   7   9
ENDBRANCH   1   7
TORSDOF 5
ENDMDL
MODEL 7
REMARK VINA RESULT:      -4.6      8.775     10.154
REMARK  Name = 
REMARK  5 active torsions:
REMARK  status: ('A' for Active; 'I' for Inactive)
REMARK    1  A    between atoms: C_2  and  C_3
REMARK    2  A    between atoms: C_3  and  C_5
REMARK    3  A    between atoms: C_5  and  C_7
REMARK    4  A    between atoms: C_7  and  C_9
REMARK    5  A    between atoms: C_9  and  C_11
REMARK                            x       y       z     vdW  Elec       q    Type
REMARK                         _______ _______ _______ _____ _____    ______ ____
ROOT
ATOM      1  C   UNL     1       5.319   5.544 -10.834  0.00  0.00    +0.217 C 
ATOM      2  O   UNL     1       6.285   6.476 -10.160  0.00  0.00    -0.217 OA
ENDROOT
BRANCH   1   3
ATOM      3  C   UNL     1       5.918   5.990 -12.379  0.00  0.00    +0.217 C 
ATOM      4  O   UNL     1       5.380   4.836 -13.183  0.00  0.00    -0.217 OA
BRANCH   3   6
ATOM      5  O   UNL     1       7.711   4.683 -13.253  0.00  0.00    -0.217 OA
ATOM      6  C   UNL     1       7.336   5.217 -12.056  0.00  0.00    +0.217 C 
ENDBRANCH   3   6
ENDBRANCH   1   3
BRANCH   1   7
ATOM      7  C   UNL     1       4.078   6.698 -10.683  0.00  0.00    +0.217 C 
ATOM      8  O   UNL     1       4.116   6.504  -9.199  0.00  0.00    -0.217 OA
BRANCH   7   9
ATOM      9  C   UNL     1       2.816   5.576 -11.019  0.00  0.00    +0.217 C 
ATOM     10  O   UNL     1       2.527   6.326 -12.305  0.00  0.00    -0.217 OA
BRANCH   9  11
ATOM     11  C   UNL     1       1.623   6.382 -10.230  0.00  0.00    +0.217 C 
ATOM     12  O   UNL     1       0.855   5.409  -9.598  0.00  0.00    -0.217 OA
ENDBRANCH   9  11
ENDBRANCH   7   9
ENDBRANCH   1   7
TORSDOF 5
ENDMDL
MODEL 8
REMARK VINA RESULT:      -4.6      8.302      9.664
REMARK  Name = 
REMARK  5 active torsions:
REMARK  status: ('A' for Active; 'I' for Inactive)
REMARK    1  A    between atoms: C_2  and  C_3
REMARK    2  A    between atoms: C_3  and  C_5
REMARK    3  A    between atoms: C_5  and  C_7
REMARK    4  A    between atoms: C_7  and  C_9
REMARK    5  A    between atoms: C_9  and  C_11
REMARK                            x       y       z     vdW  Elec       q    Type
REMARK                         _______ _______ _______ _____ _____    ______ ____
ROOT
ATOM      1  C   UNL     1       4.710   6.312 -11.634  0.00  0.00    +0.217 C 
ATOM      2  O   UNL     1       4.325   5.246 -12.619  0.00  0.00    -0.217 OA
ENDROOT
BRANCH   1   3
ATOM      3  C   UNL     1       6.080   5.405 -11.141  0.00  0.00    +0.217 C 
ATOM      4  O   UNL     1       6.829   6.488 -10.411  0.00  0.00    -0.217 OA
BRANCH   3   6
ATOM      5  O   UNL     1       7.656   4.680 -12.777  0.00  0.00    -0.217 OA
ATOM      6  C   UNL     1       6.821   5.738 -12.574  0.00  0.00    +0.217 C 
ENDBRANCH   3   6
ENDBRANCH   1   3
BRANCH   1   7
ATOM      7  C   UNL     1       3.574   5.711 -10.519  0.00  0.00    +0.217 C 
ATOM      8  O   UNL     1       2.485   6.341 -11.332  0.00  0.00    -0.217 OA
BRANCH   7   9
ATOM      9  C   UNL     1       3.791   7.005  -9.404  0.00  0.00    +0.217 C 
ATOM     10  O   UNL     1       4.278   6.003  -8.376  0.00  0.00    -0.217 OA
BRANCH   9  11
ATOM     11  C   UNL     1       2.274   6.977  -8.775  0.00  0.00    +0.217 C 
ATOM     12  O   UNL     1       2.145   8.146  -8.032  0.00  0.00    -0.217 OA
ENDBRANCH   9  11
ENDBRANCH   7   9
ENDBRANCH   1   7
TORSDOF 5
ENDMDL
MODEL 9
REMARK VINA RESULT:      -4.6      2.685      5.157
REMARK  Name = 
REMARK  5 active torsions:
REMARK  status: ('A' for Active; 'I' for Inactive)
REMARK    1  A    between atoms: C_2  and  C_3
REMARK    2  A    between atoms: C_3  and  C_5
REMARK    3  A    between atoms: C_5  and  C_7
REMARK    4  A    between atoms: C_7  and  C_9
REMARK    5  A    between atoms: C_9  and  C_11
REMARK                            x       y       z     vdW  Elec       q    Type
REMARK                         _______ _______ _______ _____ _____    ______ ____
ROOT
ATOM      1  C   UNL     1       0.101   6.500  -3.969  0.00  0.00    +0.217 C 
ATOM      2  O   UNL     1       0.649   5.558  -2.936  0.00  0.00    -0.217 OA
ENDROOT
BRANCH   1   3
ATOM      3  C   UNL     1      -1.202   5.432  -4.296  0.00  0.00    +0.217 C 
ATOM      4  O   UNL     1      -2.103   6.380  -5.041  0.00  0.00    -0.217 OA
BRANCH   3   6
ATOM      5  O   UNL     1      -2.693   4.744  -2.568  0.00  0.00    -0.217 OA
ATOM      6  C   UNL     1      -1.875   5.800  -2.838  0.00  0.00    +0.217 C 
ENDBRANCH   3   6
ENDBRANCH   1   3
BRANCH   1   7
ATOM      7  C   UNL     1       1.219   5.919  -5.112  0.00  0.00    +0.217 C 
ATOM      8  O   UNL     1       2.280   6.744  -4.452  0.00  0.00    -0.217 OA
BRANCH   7   9
ATOM      9  C   UNL     1       0.773   7.062  -6.321  0.00  0.00    +0.217 C 
ATOM     10  O   UNL     1       0.383   5.911  -7.228  0.00  0.00    -0.217 OA
BRANCH   9  11
ATOM     11  C   UNL     1       2.248   7.179  -7.032  0.00  0.00    +0.217 C 
ATOM     12  O   UNL     1       2.194   8.308  -7.844  0.00  0.00    -0.217 OA
ENDBRANCH   9  11
ENDBRANCH   7   9
ENDBRANCH   1   7
TORSDOF 5
ENDMDL
