MODEL 1
REMARK VINA RESULT:      -7.4      0.000      0.000
REMARK  Name = 
REMARK  6 active torsions:
REMARK  status: ('A' for Active; 'I' for Inactive)
REMARK    1  A    between atoms: N_2  and  C_4
REMARK    2  A    between atoms: C_4  and  C_5
REMARK    3  A    between atoms: C_5  and  C_6
REMARK    4  A    between atoms: C_6  and  C_7
REMARK    5  A    between atoms: C_7  and  C_8
REMARK    6  A    between atoms: C_19  and  C_20
REMARK                            x       y       z     vdW  Elec       q    Type
REMARK                         _______ _______ _______ _____ _____    ______ ____
ROOT
ATOM      1  C   UNL     1       0.873   5.857  -7.899  0.00  0.00    +0.130 C 
ATOM      2  C   UNL     1      -0.226   5.962  -6.887  0.00  0.00    +0.004 A 
ATOM      3  C   UNL     1       0.403   5.603  -5.700  0.00  0.00    +0.006 A 
ATOM      4  C   UNL     1      -0.407   5.537  -4.589  0.00  0.00    +0.008 A 
ATOM      5  C   UNL     1      -1.783   5.394  -4.715  0.00  0.00    +0.068 A 
ATOM      6  C   UNL     1      -2.388   5.371  -5.966  0.00  0.00    +0.010 A 
ATOM      7  C   UNL     1       1.721   5.016  -6.101  0.00  0.00    +0.169 C 
ATOM      8  C   UNL     1      -1.608   5.860  -7.008  0.00  0.00    -0.001 A 
ATOM      9  O   UNL     1       1.527   4.724  -7.461  0.00  0.00    -0.346 OA
ENDROOT
BRANCH   1  10
ATOM     10  C   UNL     1       0.284   5.725  -9.247  0.00  0.00    +0.006 A 
ATOM     11  C   UNL     1       0.115   6.820 -10.076  0.00  0.00    +0.001 A 
ATOM     12  C   UNL     1       0.417   6.773 -11.432  0.00  0.00    +0.029 A 
ATOM     13  C   UNL     1       0.599   5.539 -12.041  0.00  0.00    +0.140 A 
ATOM     14  F   UNL     1       0.312   5.405 -13.349  0.00  0.00    -0.204 F 
ATOM     15  C   UNL     1       0.543   4.393 -11.262  0.00  0.00    +0.029 A 
ATOM     16  C   UNL     1       0.490   4.512  -9.892  0.00  0.00    +0.001 A 
ENDBRANCH   1  10
BRANCH   5  17
ATOM     17  C   UNL     1      -2.590   5.404  -3.517  0.00  0.00    +0.100 C 
ATOM     18  N   UNL     1      -3.160   5.300  -2.508  0.00  0.00    -0.191 NA
ENDBRANCH   5  17
BRANCH   1  19
ATOM     19  C   UNL     1       1.794   7.038  -7.803  0.00  0.00    +0.037 C 
BRANCH  19  20
ATOM     20  C   UNL     1       3.201   6.599  -8.094  0.00  0.00    +0.020 C 
BRANCH  20  21
ATOM     21  C   UNL     1       3.653   6.965  -9.489  0.00  0.00    +0.072 C 
BRANCH  21  23
ATOM     22  C   UNL     1       4.266   4.701  -9.696  0.00  0.00    +0.090 C 
ATOM     23  N   UNL     1       3.789   5.809 -10.343  0.00  0.00    -0.270 NA
ATOM     24  C   UNL     1       4.566   6.134 -11.538  0.00  0.00    +0.090 C 
ENDBRANCH  21  23
ENDBRANCH  20  21
ENDBRANCH  19  20
ENDBRANCH   1  19
TORSDOF 6
ENDMDL
MODEL 2
REMARK VINA RESULT:      -7.1      3.430      7.625
REMARK  Name = 
REMARK  6 active torsions:
REMARK  status: ('A' for Active; 'I' for Inactive)
REMARK    1  A    between atoms: N_2  and  C_4
REMARK    2  A    between atoms: C_4  and  C_5
REMARK    3  A    between atoms: C_5  and  C_6
REMARK    4  A    between atoms: C_6  and  C_7
REMARK    5  A    between atoms: C_7  and  C_8
REMARK    6  A    between atoms: C_19  and  C_20
REMARK                            x       y       z     vdW  Elec       q    Type
REMARK                         _______ _______ _______ _____ _____    ______ ____
ROOT
ATOM      1  C   UNL     1       3.126   5.643  -7.012  0.00  0.00    +0.130 C 
ATOM      2  C   UNL     1       3.963   5.846  -8.238  0.00  0.00    +0.004 A 
ATOM      3  C   UNL     1       3.256   5.159  -9.220  0.00  0.00    +0.006 A 
ATOM      4  C   UNL     1       3.847   5.113 -10.462  0.00  0.00    +0.008 A 
ATOM      5  C   UNL     1       5.210   5.331 -10.613  0.00  0.00    +0.068 A 
ATOM      6  C   UNL     1       6.008   5.657  -9.523  0.00  0.00    +0.010 A 
ATOM      7  C   UNL     1       2.236   4.343  -8.488  0.00  0.00    +0.169 C 
ATOM      8  C   UNL     1       5.319   6.103  -8.401  0.00  0.00    -0.001 A 
ATOM      9  O   UNL     1       2.735   4.330  -7.176  0.00  0.00    -0.346 OA
ENDROOT
BRANCH   1  10
ATOM     10  C   UNL     1       3.955   5.876  -5.813  0.00  0.00    +0.006 A 
ATOM     11  C   UNL     1       4.096   7.138  -5.262  0.00  0.00    +0.001 A 
ATOM     12  C   UNL     1       4.046   7.354  -3.889  0.00  0.00    +0.029 A 
ATOM     13  C   UNL     1       4.166   6.270  -3.030  0.00  0.00    +0.140 A 
ATOM     14  F   UNL     1       4.694   6.459  -1.807  0.00  0.00    -0.204 F 
ATOM     15  C   UNL     1       4.260   4.995  -3.569  0.00  0.00    +0.029 A 
ATOM     16  C   UNL     1       4.054   4.819  -4.918  0.00  0.00    +0.001 A 
ENDBRANCH   1  10
BRANCH   5  17
ATOM     17  C   UNL     1       5.762   5.342 -11.948  0.00  0.00    +0.100 C 
ATOM     18  N   UNL     1       6.251   5.218 -12.996  0.00  0.00    -0.191 NA
ENDBRANCH   5  17
BRANCH   1  19
ATOM     19  C   UNL     1       1.919   6.534  -7.042  0.00  0.00    +0.037 C 
BRANCH  19  20
ATOM     20  C   UNL     1       0.844   5.947  -6.173  0.00  0.00    +0.020 C 
BRANCH  20  21
ATOM     21  C   UNL     1       0.363   6.904  -5.107  0.00  0.00    +0.072 C 
BRANCH  21  23
ATOM     22  C   UNL     1      -1.704   5.966  -5.732  0.00  0.00    +0.090 C 
ATOM     23  N   UNL     1      -1.044   6.750  -4.824  0.00  0.00    -0.270 NA
ATOM     24  C   UNL     1      -1.684   8.051  -4.642  0.00  0.00    +0.090 C 
ENDBRANCH  21  23
ENDBRANCH  20  21
ENDBRANCH  19  20
ENDBRANCH   1  19
TORSDOF 6
ENDMDL
MODEL 3
REMARK VINA RESULT:      -7.0      3.430      6.445
REMARK  Name = 
REMARK  6 active torsions:
REMARK  status: ('A' for Active; 'I' for Inactive)
REMARK    1  A    between atoms: N_2  and  C_4
REMARK    2  A    between atoms: C_4  and  C_5
REMARK    3  A    between atoms: C_5  and  C_6
REMARK    4  A    between atoms: C_6  and  C_7
REMARK    5  A    between atoms: C_7  and  C_8
REMARK    6  A    between atoms: C_19  and  C_20
REMARK                            x       y       z     vdW  Elec       q    Type
REMARK                         _______ _______ _______ _____ _____    ______ ____
ROOT
ATOM      1  C   UNL     1       0.763   6.240  -5.937  0.00  0.00    +0.130 C 
ATOM      2  C   UNL     1       0.790   5.835  -7.379  0.00  0.00    +0.004 A 
ATOM      3  C   UNL     1       2.080   6.173  -7.777  0.00  0.00    +0.006 A 
ATOM      4  C   UNL     1       2.366   5.977  -9.109  0.00  0.00    +0.008 A 
ATOM      5  C   UNL     1       1.350   5.886 -10.052  0.00  0.00    +0.068 A 
ATOM      6  C   UNL     1       0.014   5.933  -9.672  0.00  0.00    +0.010 A 
ATOM      7  C   UNL     1       2.634   7.023  -6.676  0.00  0.00    +0.169 C 
ATOM      8  C   UNL     1      -0.223   5.703  -8.321  0.00  0.00    -0.001 A 
ATOM      9  O   UNL     1       1.480   7.417  -5.980  0.00  0.00    -0.346 OA
ENDROOT
BRANCH   1  10
ATOM     10  C   UNL     1      -0.638   6.406  -5.503  0.00  0.00    +0.006 A 
ATOM     11  C   UNL     1      -1.380   5.343  -5.017  0.00  0.00    +0.001 A 
ATOM     12  C   UNL     1      -2.201   5.465  -3.902  0.00  0.00    +0.029 A 
ATOM     13  C   UNL     1      -2.534   6.732  -3.444  0.00  0.00    +0.140 A 
ATOM     14  F   UNL     1      -3.707   6.913  -2.809  0.00  0.00    -0.204 F 
ATOM     15  C   UNL     1      -1.978   7.839  -4.070  0.00  0.00    +0.029 A 
ATOM     16  C   UNL     1      -0.983   7.655  -5.001  0.00  0.00    +0.001 A 
ENDBRANCH   1  10
BRANCH   5  17
ATOM     17  C   UNL     1       1.707   5.608 -11.424  0.00  0.00    +0.100 C 
ATOM     18  N   UNL     1       1.905   5.490 -12.564  0.00  0.00    -0.191 NA
ENDBRANCH   5  17
BRANCH   1  19
ATOM     19  C   UNL     1       1.495   5.237  -5.093  0.00  0.00    +0.037 C 
BRANCH  19  20
ATOM     20  C   UNL     1       1.798   5.840  -3.751  0.00  0.00    +0.020 C 
BRANCH  20  21
ATOM     21  C   UNL     1       3.123   5.382  -3.188  0.00  0.00    +0.072 C 
BRANCH  21  23
ATOM     22  C   UNL     1       3.465   7.705  -3.007  0.00  0.00    +0.090 C 
ATOM     23  N   UNL     1       4.058   6.471  -3.027  0.00  0.00    -0.270 NA
ATOM     24  C   UNL     1       5.132   6.385  -4.014  0.00  0.00    +0.090 C 
ENDBRANCH  21  23
ENDBRANCH  20  21
ENDBRANCH  19  20
ENDBRANCH   1  19
TORSDOF 6
ENDMDL
MODEL 4
REMARK VINA RESULT:      -6.9      3.037      4.625
REMARK  Name = 
REMARK  6 active torsions:
REMARK  status: ('A' for Active; 'I' for Inactive)
REMARK    1  A    between atoms: N_2  and  C_4
REMARK    2  A    between atoms: C_4  and  C_5
REMARK    3  A    between atoms: C_5  and  C_6
REMARK    4  A    between atoms: C_6  and  C_7
REMARK    5  A    between atoms: C_7  and  C_8
REMARK    6  A    between atoms: C_19  and  C_20
REMARK                            x       y       z     vdW  Elec       q    Type
REMARK                         _______ _______ _______ _____ _____    ______ ____
ROOT
ATOM      1  C   UNL     1       2.065   5.288  -6.663  0.00  0.00    +0.130 C 
ATOM      2  C   UNL     1       1.018   5.202  -5.595  0.00  0.00    +0.004 A 
ATOM      3  C   UNL     1      -0.171   5.238  -6.317  0.00  0.00    +0.006 A 
ATOM      4  C   UNL     1      -1.326   5.251  -5.568  0.00  0.00    +0.008 A 
ATOM      5  C   UNL     1      -1.311   5.647  -4.237  0.00  0.00    +0.068 A 
ATOM      6  C   UNL     1      -0.120   5.988  -3.606  0.00  0.00    +0.010 A 
ATOM      7  C   UNL     1       0.209   5.649  -7.705  0.00  0.00    +0.169 C 
ATOM      8  C   UNL     1       1.034   5.559  -4.252  0.00  0.00    -0.001 A 
ATOM      9  O   UNL     1       1.489   6.199  -7.524  0.00  0.00    -0.346 OA
ENDROOT
BRANCH   1  10
ATOM     10  C   UNL     1       3.334   5.748  -6.064  0.00  0.00    +0.006 A 
ATOM     11  C   UNL     1       3.583   7.090  -5.831  0.00  0.00    +0.001 A 
ATOM     12  C   UNL     1       4.169   7.538  -4.653  0.00  0.00    +0.029 A 
ATOM     13  C   UNL     1       4.800   6.623  -3.821  0.00  0.00    +0.140 A 
ATOM     14  F   UNL     1       5.823   7.034  -3.050  0.00  0.00    -0.204 F 
ATOM     15  C   UNL     1       4.763   5.277  -4.157  0.00  0.00    +0.029 A 
ATOM     16  C   UNL     1       3.961   4.864  -5.195  0.00  0.00    +0.001 A 
ENDBRANCH   1  10
BRANCH   5  17
ATOM     17  C   UNL     1      -2.539   5.570  -3.481  0.00  0.00    +0.100 C 
ATOM     18  N   UNL     1      -3.582   5.438  -2.984  0.00  0.00    -0.191 NA
ENDBRANCH   5  17
BRANCH   1  19
ATOM     19  C   UNL     1       2.221   3.968  -7.359  0.00  0.00    +0.037 C 
BRANCH  19  20
ATOM     20  C   UNL     1       2.573   4.201  -8.800  0.00  0.00    +0.020 C 
BRANCH  20  21
ATOM     21  C   UNL     1       4.064   4.280  -9.035  0.00  0.00    +0.072 C 
BRANCH  21  23
ATOM     22  C   UNL     1       5.571   5.766 -10.066  0.00  0.00    +0.090 C 
ATOM     23  N   UNL     1       4.396   5.074 -10.194  0.00  0.00    -0.270 NA
ATOM     24  C   UNL     1       3.280   5.937 -10.572  0.00  0.00    +0.090 C 
ENDBRANCH  21  23
ENDBRANCH  20  21
ENDBRANCH  19  20
ENDBRANCH   1  19
TORSDOF 6
ENDMDL
MODEL 5
REMARK VINA RESULT:      -6.8      3.712      7.439
REMARK  Name = 
REMARK  6 active torsions:
REMARK  status: ('A' for Active; 'I' for Inactive)
REMARK    1  A    between atoms: N_2  and  C_4
REMARK    2  A    between atoms: C_4  and  C_5
REMARK    3  A    between atoms: C_5  and  C_6
REMARK    4  A    between atoms: C_6  and  C_7
REMARK    5  A    between atoms: C_7  and  C_8
REMARK    6  A    between atoms: C_19  and  C_20
REMARK                            x       y       z     vdW  Elec       q    Type
REMARK                         _______ _______ _______ _____ _____    ______ ____
ROOT
ATOM      1  C   UNL     1       3.673   5.701  -9.139  0.00  0.00    +0.130 C 
ATOM      2  C   UNL     1       5.083   5.955  -9.576  0.00  0.00    +0.004 A 
ATOM      3  C   UNL     1       5.021   5.788 -10.955  0.00  0.00    +0.006 A 
ATOM      4  C   UNL     1       6.219   5.889 -11.626  0.00  0.00    +0.008 A 
ATOM      5  C   UNL     1       7.427   5.721 -10.961  0.00  0.00    +0.068 A 
ATOM      6  C   UNL     1       7.463   5.501  -9.589  0.00  0.00    +0.010 A 
ATOM      7  C   UNL     1       3.692   5.154 -11.227  0.00  0.00    +0.169 C 
ATOM      8  C   UNL     1       6.296   5.827  -8.908  0.00  0.00    -0.001 A 
ATOM      9  O   UNL     1       3.325   4.654  -9.967  0.00  0.00    -0.346 OA
ENDROOT
BRANCH   1  10
ATOM     10  C   UNL     1       3.662   5.359  -7.703  0.00  0.00    +0.006 A 
ATOM     11  C   UNL     1       3.865   6.318  -6.726  0.00  0.00    +0.001 A 
ATOM     12  C   UNL     1       3.098   6.367  -5.568  0.00  0.00    +0.029 A 
ATOM     13  C   UNL     1       2.321   5.268  -5.225  0.00  0.00    +0.140 A 
ATOM     14  F   UNL     1       2.059   5.030  -3.927  0.00  0.00    -0.204 F 
ATOM     15  C   UNL     1       2.280   4.182  -6.088  0.00  0.00    +0.029 A 
ATOM     16  C   UNL     1       2.858   4.289  -7.332  0.00  0.00    +0.001 A 
ENDBRANCH   1  10
BRANCH   5  17
ATOM     17  C   UNL     1       8.653   5.911 -11.700  0.00  0.00    +0.100 C 
ATOM     18  N   UNL     1       9.637   5.923 -12.320  0.00  0.00    -0.191 NA
ENDBRANCH   5  17
BRANCH   1  19
ATOM     19  C   UNL     1       2.805   6.889  -9.439  0.00  0.00    +0.037 C 
BRANCH  19  20
ATOM     20  C   UNL     1       1.365   6.521  -9.227  0.00  0.00    +0.020 C 
BRANCH  20  21
ATOM     21  C   UNL     1       0.470   6.973 -10.357  0.00  0.00    +0.072 C 
BRANCH  21  23
ATOM     22  C   UNL     1       0.443   6.907 -12.711  0.00  0.00    +0.090 C 
ATOM     23  N   UNL     1       0.672   6.200 -11.560  0.00  0.00    -0.270 NA
ATOM     24  C   UNL     1      -0.087   4.953 -11.511  0.00  0.00    +0.090 C 
ENDBRANCH  21  23
ENDBRANCH  20  21
ENDBRANCH  19  20
ENDBRANCH   1  19
TORSDOF 6
ENDMDL
MODEL 6
REMARK VINA RESULT:      -6.7      3.785      7.902
REMARK  Name = 
REMARK  6 active torsions:
REMARK  status: ('A' for Active; 'I' for Inactive)
REMARK    1  A    between atoms: N_2  and  C_4
REMARK    2  A    between atoms: C_4  and  C_5
REMARK    3  A    between atoms: C_5  and  C_6
REMARK    4  A    between atoms: C_6  and  C_7
REMARK    5  A    between atoms: C_7  and  C_8
REMARK    6  A    between atoms: C_19  and  C_20
REMARK                            x       y       z     vdW  Elec       q    Type
REMARK                         _______ _______ _______ _____ _____    ______ ____
ROOT
ATOM      1  C   UNL     1       2.740   5.318  -5.558  0.00  0.00    +0.130 C 
ATOM      2  C   UNL     1       3.335   5.584  -6.906  0.00  0.00    +0.004 A 
ATOM      3  C   UNL     1       2.641   4.709  -7.735  0.00  0.00    +0.006 A 
ATOM      4  C   UNL     1       3.045   4.684  -9.051  0.00  0.00    +0.008 A 
ATOM      5  C   UNL     1       4.304   5.138  -9.421  0.00  0.00    +0.068 A 
ATOM      6  C   UNL     1       5.172   5.684  -8.482  0.00  0.00    +0.010 A 
ATOM      7  C   UNL     1       1.914   3.773  -6.820  0.00  0.00    +0.169 C 
ATOM      8  C   UNL     1       4.579   6.075  -7.288  0.00  0.00    -0.001 A 
ATOM      9  O   UNL     1       2.590   3.948  -5.602  0.00  0.00    -0.346 OA
ENDROOT
BRANCH   1  10
ATOM     10  C   UNL     1       3.671   5.787  -4.512  0.00  0.00    +0.006 A 
ATOM     11  C   UNL     1       3.671   7.100  -4.075  0.00  0.00    +0.001 A 
ATOM     12  C   UNL     1       3.771   7.429  -2.728  0.00  0.00    +0.029 A 
ATOM     13  C   UNL     1       4.185   6.460  -1.824  0.00  0.00    +0.140 A 
ATOM     14  F   UNL     1       4.835   6.839  -0.708  0.00  0.00    -0.204 F 
ATOM     15  C   UNL     1       4.419   5.172  -2.284  0.00  0.00    +0.029 A 
ATOM     16  C   UNL     1       4.066   4.843  -3.572  0.00  0.00    +0.001 A 
ENDBRANCH   1  10
BRANCH   5  17
ATOM     17  C   UNL     1       4.646   5.155 -10.824  0.00  0.00    +0.100 C 
ATOM     18  N   UNL     1       4.981   5.297 -11.930  0.00  0.00    -0.191 NA
ENDBRANCH   5  17
BRANCH   1  19
ATOM     19  C   UNL     1       1.391   5.967  -5.438  0.00  0.00    +0.037 C 
BRANCH  19  20
ATOM     20  C   UNL     1       0.546   5.187  -4.472  0.00  0.00    +0.020 C 
BRANCH  20  21
ATOM     21  C   UNL     1       0.139   5.997  -3.263  0.00  0.00    +0.072 C 
BRANCH  21  23
ATOM     22  C   UNL     1      -1.296   5.680  -1.423  0.00  0.00    +0.090 C 
ATOM     23  N   UNL     1      -0.258   5.164  -2.152  0.00  0.00    -0.270 NA
ATOM     24  C   UNL     1       0.894   4.826  -1.319  0.00  0.00    +0.090 C 
ENDBRANCH  21  23
ENDBRANCH  20  21
ENDBRANCH  19  20
ENDBRANCH   1  19
TORSDOF 6
ENDMDL
MODEL 7
REMARK VINA RESULT:      -6.7      2.136      2.976
REMARK  Name = 
REMARK  6 active torsions:
REMARK  status: ('A' for Active; 'I' for Inactive)
REMARK    1  A    between atoms: N_2  and  C_4
REMARK    2  A    between atoms: C_4  and  C_5
REMARK    3  A    between atoms: C_5  and  C_6
REMARK    4  A    between atoms: C_6  and  C_7
REMARK    5  A    between atoms: C_7  and  C_8
REMARK    6  A    between atoms: C_19  and  C_20
REMARK                            x       y       z     vdW  Elec       q    Type
REMARK                         _______ _______ _______ _____ _____    ______ ____
ROOT
ATOM      1  C   UNL     1       1.846   5.418  -7.529  0.00  0.00    +0.130 C 
ATOM      2  C   UNL     1       0.872   5.734  -6.436  0.00  0.00    +0.004 A 
ATOM      3  C   UNL     1       1.203   4.816  -5.444  0.00  0.00    +0.006 A 
ATOM      4  C   UNL     1       0.400   4.828  -4.326  0.00  0.00    +0.008 A 
ATOM      5  C   UNL     1      -0.876   5.373  -4.368  0.00  0.00    +0.068 A 
ATOM      6  C   UNL     1      -1.360   5.973  -5.524  0.00  0.00    +0.010 A 
ATOM      7  C   UNL     1       2.117   3.826  -6.096  0.00  0.00    +0.169 C 
ATOM      8  C   UNL     1      -0.391   6.314  -6.461  0.00  0.00    -0.001 A 
ATOM      9  O   UNL     1       1.878   4.041  -7.463  0.00  0.00    -0.346 OA
ENDROOT
BRANCH   1  10
ATOM     10  C   UNL     1       1.331   5.946  -8.808  0.00  0.00    +0.006 A 
ATOM     11  C   UNL     1       2.148   6.625  -9.696  0.00  0.00    +0.001 A 
ATOM     12  C   UNL     1       2.101   6.394 -11.066  0.00  0.00    +0.029 A 
ATOM     13  C   UNL     1       1.019   5.707 -11.599  0.00  0.00    +0.140 A 
ATOM     14  F   UNL     1       0.639   5.962 -12.865  0.00  0.00    -0.204 F 
ATOM     15  C   UNL     1       0.052   5.209 -10.738  0.00  0.00    +0.029 A 
ATOM     16  C   UNL     1       0.275   5.248  -9.381  0.00  0.00    +0.001 A 
ENDBRANCH   1  10
BRANCH   5  17
ATOM     17  C   UNL     1      -1.645   5.423  -3.146  0.00  0.00    +0.100 C 
ATOM     18  N   UNL     1      -2.226   5.326  -2.143  0.00  0.00    -0.191 NA
ENDBRANCH   5  17
BRANCH   1  19
ATOM     19  C   UNL     1       3.204   5.968  -7.202  0.00  0.00    +0.037 C 
BRANCH  19  20
ATOM     20  C   UNL     1       3.055   7.166  -6.309  0.00  0.00    +0.020 C 
BRANCH  20  21
ATOM     21  C   UNL     1       4.109   7.227  -5.228  0.00  0.00    +0.072 C 
BRANCH  21  23
ATOM     22  C   UNL     1       3.600   7.745  -2.988  0.00  0.00    +0.090 C 
ATOM     23  N   UNL     1       3.614   6.771  -3.951  0.00  0.00    -0.270 NA
ATOM     24  C   UNL     1       4.322   5.569  -3.517  0.00  0.00    +0.090 C 
ENDBRANCH  21  23
ENDBRANCH  20  21
ENDBRANCH  19  20
ENDBRANCH   1  19
TORSDOF 6
ENDMDL
MODEL 8
REMARK VINA RESULT:      -6.7      2.755      4.466
REMARK  Name = 
REMARK  6 active torsions:
REMARK  status: ('A' for Active; 'I' for Inactive)
REMARK    1  A    between atoms: N_2  and  C_4
REMARK    2  A    between atoms: C_4  and  C_5
REMARK    3  A    between atoms: C_5  and  C_6
REMARK    4  A    between atoms: C_6  and  C_7
REMARK    5  A    between atoms: C_7  and  C_8
REMARK    6  A    between atoms: C_19  and  C_20
REMARK                            x       y       z     vdW  Elec       q    Type
REMARK                         _______ _______ _______ _____ _____    ______ ____
ROOT
ATOM      1  C   UNL     1       2.349   5.868  -6.925  0.00  0.00    +0.130 C 
ATOM      2  C   UNL     1       2.958   5.418  -5.633  0.00  0.00    +0.004 A 
ATOM      3  C   UNL     1       2.019   5.816  -4.687  0.00  0.00    +0.006 A 
ATOM      4  C   UNL     1       2.363   5.593  -3.372  0.00  0.00    +0.008 A 
ATOM      5  C   UNL     1       3.688   5.412  -3.000  0.00  0.00    +0.068 A 
ATOM      6  C   UNL     1       4.702   5.396  -3.951  0.00  0.00    +0.010 A 
ATOM      7  C   UNL     1       1.080   6.732  -5.408  0.00  0.00    +0.169 C 
ATOM      8  C   UNL     1       4.280   5.197  -5.261  0.00  0.00    -0.001 A 
ATOM      9  O   UNL     1       1.811   7.082  -6.554  0.00  0.00    -0.346 OA
ENDROOT
BRANCH   1  10
ATOM     10  C   UNL     1       3.404   5.968  -7.953  0.00  0.00    +0.006 A 
ATOM     11  C   UNL     1       3.947   4.843  -8.550  0.00  0.00    +0.001 A 
ATOM     12  C   UNL     1       4.190   4.778  -9.917  0.00  0.00    +0.029 A 
ATOM     13  C   UNL     1       4.184   5.949 -10.661  0.00  0.00    +0.140 A 
ATOM     14  F   UNL     1       4.946   6.027 -11.768  0.00  0.00    -0.204 F 
ATOM     15  C   UNL     1       3.865   7.143 -10.029  0.00  0.00    +0.029 A 
ATOM     16  C   UNL     1       3.391   7.114  -8.738  0.00  0.00    +0.001 A 
ENDBRANCH   1  10
BRANCH   5  17
ATOM     17  C   UNL     1       3.982   5.109  -1.619  0.00  0.00    +0.100 C 
ATOM     18  N   UNL     1       4.212   5.007  -0.483  0.00  0.00    -0.191 NA
ENDBRANCH   5  17
BRANCH   1  19
ATOM     19  C   UNL     1       1.247   4.937  -7.342  0.00  0.00    +0.037 C 
BRANCH  19  20
ATOM     20  C   UNL     1       0.408   5.598  -8.397  0.00  0.00    +0.020 C 
BRANCH  20  21
ATOM     21  C   UNL     1       0.358   4.812  -9.686  0.00  0.00    +0.072 C 
BRANCH  21  23
ATOM     22  C   UNL     1       0.160   6.868 -10.815  0.00  0.00    +0.090 C 
ATOM     23  N   UNL     1       0.709   5.614 -10.834  0.00  0.00    -0.270 NA
ATOM     24  C   UNL     1       0.425   4.899 -12.076  0.00  0.00    +0.090 C 
ENDBRANCH  21  23
ENDBRANCH  20  21
ENDBRANCH  19  20
ENDBRANCH   1  19
TORSDOF 6
ENDMDL
MODEL 9
REMARK VINA RESULT:      -6.7      3.571      7.274
REMARK  Name = 
REMARK  6 active torsions:
REMARK  status: ('A' for Active; 'I' for Inactive)
REMARK    1  A    between atoms: N_2  and  C_4
REMARK    2  A    between atoms: C_4  and  C_5
REMARK    3  A    between atoms: C_5  and  C_6
REMARK    4  A    between atoms: C_6  and  C_7
REMARK    5  A    between atoms: C_7  and  C_8
REMARK    6  A    between atoms: C_19  and  C_20
REMARK                            x       y       z     vdW  Elec       q    Type
REMARK                         _______ _______ _______ _____ _____    ______ ____
ROOT
ATOM      1  C   UNL     1       2.081   5.486  -5.311  0.00  0.00    +0.130 C 
ATOM      2  C   UNL     1       1.823   6.058  -6.672  0.00  0.00    +0.004 A 
ATOM      3  C   UNL     1       1.533   4.933  -7.437  0.00  0.00    +0.006 A 
ATOM      4  C   UNL     1       1.326   5.158  -8.779  0.00  0.00    +0.008 A 
ATOM      5  C   UNL     1       1.803   6.310  -9.392  0.00  0.00    +0.068 A 
ATOM      6  C   UNL     1       2.453   7.294  -8.657  0.00  0.00    +0.010 A 
ATOM      7  C   UNL     1       1.929   3.758  -6.597  0.00  0.00    +0.169 C 
ATOM      8  C   UNL     1       2.263   7.227  -7.282  0.00  0.00    -0.001 A 
ATOM      9  O   UNL     1       2.773   4.337  -5.635  0.00  0.00    -0.346 OA
ENDROOT
BRANCH   1  10
ATOM     10  C   UNL     1       2.863   6.453  -4.516  0.00  0.00    +0.006 A 
ATOM     11  C   UNL     1       2.459   6.851  -3.254  0.00  0.00    +0.001 A 
ATOM     12  C   UNL     1       3.353   6.970  -2.196  0.00  0.00    +0.029 A 
ATOM     13  C   UNL     1       4.715   6.993  -2.461  0.00  0.00    +0.140 A 
ATOM     14  F   UNL     1       5.535   7.660  -1.628  0.00  0.00    -0.204 F 
ATOM     15  C   UNL     1       5.145   6.825  -3.770  0.00  0.00    +0.029 A 
ATOM     16  C   UNL     1       4.235   6.464  -4.736  0.00  0.00    +0.001 A 
ENDBRANCH   1  10
BRANCH   5  17
ATOM     17  C   UNL     1       1.492   6.527 -10.786  0.00  0.00    +0.100 C 
ATOM     18  N   UNL     1       1.120   6.632 -11.883  0.00  0.00    -0.191 NA
ENDBRANCH   5  17
BRANCH   1  19
ATOM     19  C   UNL     1       0.790   5.122  -4.638  0.00  0.00    +0.037 C 
BRANCH  19  20
ATOM     20  C   UNL     1      -0.191   6.247  -4.797  0.00  0.00    +0.020 C 
BRANCH  20  21
ATOM     21  C   UNL     1      -1.584   5.770  -5.134  0.00  0.00    +0.072 C 
BRANCH  21  23
ATOM     22  C   UNL     1      -2.180   7.472  -3.620  0.00  0.00    +0.090 C 
ATOM     23  N   UNL     1      -2.585   6.329  -4.257  0.00  0.00    -0.270 NA
ATOM     24  C   UNL     1      -3.085   5.320  -3.326  0.00  0.00    +0.090 C 
ENDBRANCH  21  23
ENDBRANCH  20  21
ENDBRANCH  19  20
ENDBRANCH   1  19
TORSDOF 6
ENDMDL
