MODEL 1
REMARK VINA RESULT:      -7.1      0.000      0.000
REMARK  Name = 
REMARK  8 active torsions:
REMARK  status: ('A' for Active; 'I' for Inactive)
REMARK    1  A    between atoms: C_2  and  O_4
REMARK    2  A    between atoms: O_4  and  C_5
REMARK    3  A    between atoms: C_9  and  O_10
REMARK    4  A    between atoms: O_10  and  C_11
REMARK    5  A    between atoms: C_11  and  C_12
REMARK    6  A    between atoms: C_12  and  C_14
REMARK    7  A    between atoms: C_14  and  N_15
REMARK    8  A    between atoms: N_15  and  C_16
REMARK                            x       y       z     vdW  Elec       q    Type
REMARK                         _______ _______ _______ _____ _____    ______ ____
ROOT
ATOM      1  C   UNL     1      -0.816   5.622  -4.499  0.00  0.00    +0.140 A 
ATOM      2  C   UNL     1      -1.010   5.425  -5.863  0.00  0.00    +0.011 A 
ATOM      3  C   UNL     1      -2.391   5.627  -6.383  0.00  0.00    +0.034 C 
ATOM      4  C   UNL     1       0.088   5.363  -6.711  0.00  0.00    +0.011 A 
ATOM      5  C   UNL     1      -0.128   5.501  -8.186  0.00  0.00    +0.034 C 
ATOM      6  C   UNL     1       1.392   5.446  -6.234  0.00  0.00    +0.134 A 
ATOM      7  C   UNL     1       1.542   5.205  -4.875  0.00  0.00    +0.035 A 
ATOM      8  C   UNL     1       0.433   5.220  -4.036  0.00  0.00    +0.015 A 
ATOM      9  C   UNL     1       0.661   5.295  -2.570  0.00  0.00    +0.034 C 
ENDROOT
BRANCH   1  10
ATOM     10  O   UNL     1      -1.617   6.502  -3.765  0.00  0.00    -0.425 OA
BRANCH  10  12
ATOM     11  C   UNL     1      -2.782   6.759  -1.674  0.00  0.00    +0.122 C 
ATOM     12  C   UNL     1      -2.590   6.028  -2.880  0.00  0.00    +0.322 C 
ATOM     13  O   UNL     1      -2.786   4.779  -2.944  0.00  0.00    -0.250 OA
ENDBRANCH  10  12
ENDBRANCH   1  10
BRANCH   6  14
ATOM     14  O   UNL     1       2.329   6.031  -7.027  0.00  0.00    -0.473 OA
BRANCH  14  15
ATOM     15  C   UNL     1       3.648   5.686  -7.252  0.00  0.00    +0.239 C 
BRANCH  15  16
ATOM     16  C   UNL     1       3.659   4.923  -8.750  0.00  0.00    +0.213 C 
ATOM     17  O   UNL     1       3.135   6.192  -9.462  0.00  0.00    -0.218 OA
BRANCH  16  18
ATOM     18  C   UNL     1       5.258   5.362  -9.038  0.00  0.00    +0.125 C 
BRANCH  18  19
ATOM     19  N   UNL     1       5.176   5.988 -10.346  0.00  0.00    -0.217 NA
BRANCH  19  20
ATOM     20  C   UNL     1       6.515   6.366 -10.760  0.00  0.00    +0.073 C 
ATOM     21  C   UNL     1       6.609   7.812 -11.176  0.00  0.00    +0.019 C 
ATOM     22  C   UNL     1       7.498   6.053  -9.669  0.00  0.00    +0.019 C 
ENDBRANCH  19  20
ENDBRANCH  18  19
ENDBRANCH  16  18
ENDBRANCH  15  16
ENDBRANCH  14  15
ENDBRANCH   6  14
TORSDOF 8
ENDMDL
MODEL 2
REMARK VINA RESULT:      -7.0      2.144      3.644
REMARK  Name = 
REMARK  8 active torsions:
REMARK  status: ('A' for Active; 'I' for Inactive)
REMARK    1  A    between atoms: C_2  and  O_4
REMARK    2  A    between atoms: O_4  and  C_5
REMARK    3  A    between atoms: C_9  and  O_10
REMARK    4  A    between atoms: O_10  and  C_11
REMARK    5  A    between atoms: C_11  and  C_12
REMARK    6  A    between atoms: C_12  and  C_14
REMARK    7  A    between atoms: C_14  and  N_15
REMARK    8  A    between atoms: N_15  and  C_16
REMARK                            x       y       z     vdW  Elec       q    Type
REMARK                         _______ _______ _______ _____ _____    ______ ____
ROOT
ATOM      1  C   UNL     1      -0.663   5.505  -4.566  0.00  0.00    +0.140 A 
ATOM      2  C   UNL     1       0.685   5.541  -4.225  0.00  0.00    +0.011 A 
ATOM      3  C   UNL     1       1.011   5.605  -2.773  0.00  0.00    +0.034 C 
ATOM      4  C   UNL     1       1.644   5.211  -5.174  0.00  0.00    +0.011 A 
ATOM      5  C   UNL     1       3.039   4.915  -4.720  0.00  0.00    +0.034 C 
ATOM      6  C   UNL     1       1.302   4.885  -6.482  0.00  0.00    +0.134 A 
ATOM      7  C   UNL     1       0.031   5.279  -6.878  0.00  0.00    +0.035 A 
ATOM      8  C   UNL     1      -0.911   5.655  -5.927  0.00  0.00    +0.015 A 
ATOM      9  C   UNL     1      -2.335   5.743  -6.344  0.00  0.00    +0.034 C 
ENDROOT
BRANCH   1  10
ATOM     10  O   UNL     1      -1.623   4.961  -3.706  0.00  0.00    -0.425 OA
BRANCH  10  12
ATOM     11  C   UNL     1      -2.208   7.175  -2.964  0.00  0.00    +0.122 C 
ATOM     12  C   UNL     1      -2.323   5.766  -2.802  0.00  0.00    +0.322 C 
ATOM     13  O   UNL     1      -2.505   5.235  -1.668  0.00  0.00    -0.250 OA
ENDBRANCH  10  12
ENDBRANCH   1  10
BRANCH   6  14
ATOM     14  O   UNL     1       2.076   3.982  -7.141  0.00  0.00    -0.473 OA
BRANCH  14  15
ATOM     15  C   UNL     1       2.440   3.923  -8.473  0.00  0.00    +0.239 C 
BRANCH  15  16
ATOM     16  C   UNL     1       3.096   5.431  -8.820  0.00  0.00    +0.213 C 
ATOM     17  O   UNL     1       4.296   4.799  -9.565  0.00  0.00    -0.218 OA
BRANCH  16  18
ATOM     18  C   UNL     1       2.216   5.560 -10.249  0.00  0.00    +0.125 C 
BRANCH  18  19
ATOM     19  N   UNL     1       1.308   6.656  -9.956  0.00  0.00    -0.217 NA
BRANCH  19  20
ATOM     20  C   UNL     1       0.007   6.338 -10.514  0.00  0.00    +0.073 C 
ATOM     21  C   UNL     1      -0.470   7.371 -11.504  0.00  0.00    +0.019 C 
ATOM     22  C   UNL     1       0.032   4.970 -11.131  0.00  0.00    +0.019 C 
ENDBRANCH  19  20
ENDBRANCH  18  19
ENDBRANCH  16  18
ENDBRANCH  15  16
ENDBRANCH  14  15
ENDBRANCH   6  14
TORSDOF 8
ENDMDL
MODEL 3
REMARK VINA RESULT:      -7.0      3.087      7.845
REMARK  Name = 
REMARK  8 active torsions:
REMARK  status: ('A' for Active; 'I' for Inactive)
REMARK    1  A    between atoms: C_2  and  O_4
REMARK    2  A    between atoms: O_4  and  C_5
REMARK    3  A    between atoms: C_9  and  O_10
REMARK    4  A    between atoms: O_10  and  C_11
REMARK    5  A    between atoms: C_11  and  C_12
REMARK    6  A    between atoms: C_12  and  C_14
REMARK    7  A    between atoms: C_14  and  N_15
REMARK    8  A    between atoms: N_15  and  C_16
REMARK                            x       y       z     vdW  Elec       q    Type
REMARK                         _______ _______ _______ _____ _____    ______ ____
ROOT
ATOM      1  C   UNL     1       5.143   5.678 -10.877  0.00  0.00    +0.140 A 
ATOM      2  C   UNL     1       3.762   5.763 -11.022  0.00  0.00    +0.011 A 
ATOM      3  C   UNL     1       3.242   5.985 -12.400  0.00  0.00    +0.034 C 
ATOM      4  C   UNL     1       2.935   5.343  -9.989  0.00  0.00    +0.011 A 
ATOM      5  C   UNL     1       1.484   5.110 -10.272  0.00  0.00    +0.034 C 
ATOM      6  C   UNL     1       3.445   4.876  -8.782  0.00  0.00    +0.134 A 
ATOM      7  C   UNL     1       4.768   5.213  -8.528  0.00  0.00    +0.035 A 
ATOM      8  C   UNL     1       5.579   5.680  -9.556  0.00  0.00    +0.015 A 
ATOM      9  C   UNL     1       7.048   5.708  -9.335  0.00  0.00    +0.034 C 
ENDROOT
BRANCH   1  10
ATOM     10  O   UNL     1       5.962   5.220 -11.915  0.00  0.00    -0.425 OA
BRANCH  10  12
ATOM     11  C   UNL     1       8.138   5.698 -12.826  0.00  0.00    +0.122 C 
ATOM     12  C   UNL     1       6.787   6.098 -12.625  0.00  0.00    +0.322 C 
ATOM     13  O   UNL     1       6.457   7.316 -12.526  0.00  0.00    -0.250 OA
ENDBRANCH  10  12
ENDBRANCH   1  10
BRANCH   6  14
ATOM     14  O   UNL     1       2.747   3.914  -8.120  0.00  0.00    -0.473 OA
BRANCH  14  15
ATOM     15  C   UNL     1       2.339   3.857  -6.802  0.00  0.00    +0.239 C 
BRANCH  15  16
ATOM     16  C   UNL     1       1.548   5.314  -6.519  0.00  0.00    +0.213 C 
ATOM     17  O   UNL     1       0.460   4.621  -5.665  0.00  0.00    -0.218 OA
BRANCH  16  18
ATOM     18  C   UNL     1       2.482   5.634  -5.156  0.00  0.00    +0.125 C 
BRANCH  18  19
ATOM     19  N   UNL     1       3.305   6.747  -5.599  0.00  0.00    -0.217 NA
BRANCH  19  20
ATOM     20  C   UNL     1       4.639   6.580  -5.050  0.00  0.00    +0.073 C 
ATOM     21  C   UNL     1       5.063   7.743  -4.190  0.00  0.00    +0.019 C 
ATOM     22  C   UNL     1       4.725   5.287  -4.291  0.00  0.00    +0.019 C 
ENDBRANCH  19  20
ENDBRANCH  18  19
ENDBRANCH  16  18
ENDBRANCH  15  16
ENDBRANCH  14  15
ENDBRANCH   6  14
TORSDOF 8
ENDMDL
MODEL 4
REMARK VINA RESULT:      -6.7      2.893      8.578
REMARK  Name = 
REMARK  8 active torsions:
REMARK  status: ('A' for Active; 'I' for Inactive)
REMARK    1  A    between atoms: C_2  and  O_4
REMARK    2  A    between atoms: O_4  and  C_5
REMARK    3  A    between atoms: C_9  and  O_10
REMARK    4  A    between atoms: O_10  and  C_11
REMARK    5  A    between atoms: C_11  and  C_12
REMARK    6  A    between atoms: C_12  and  C_14
REMARK    7  A    between atoms: C_14  and  N_15
REMARK    8  A    between atoms: N_15  and  C_16
REMARK                            x       y       z     vdW  Elec       q    Type
REMARK                         _______ _______ _______ _____ _____    ______ ____
ROOT
ATOM      1  C   UNL     1       4.920   5.764 -11.495  0.00  0.00    +0.140 A 
ATOM      2  C   UNL     1       3.553   5.940 -11.682  0.00  0.00    +0.011 A 
ATOM      3  C   UNL     1       3.040   5.801 -13.074  0.00  0.00    +0.034 C 
ATOM      4  C   UNL     1       2.701   5.925 -10.586  0.00  0.00    +0.011 A 
ATOM      5  C   UNL     1       1.230   5.767 -10.814  0.00  0.00    +0.034 C 
ATOM      6  C   UNL     1       3.176   5.783  -9.287  0.00  0.00    +0.134 A 
ATOM      7  C   UNL     1       4.530   6.046  -9.120  0.00  0.00    +0.035 A 
ATOM      8  C   UNL     1       5.371   6.108 -10.225  0.00  0.00    +0.015 A 
ATOM      9  C   UNL     1       6.838   6.054  -9.996  0.00  0.00    +0.034 C 
ENDROOT
BRANCH   1  10
ATOM     10  O   UNL     1       5.676   4.943 -12.339  0.00  0.00    -0.425 OA
BRANCH  10  12
ATOM     11  C   UNL     1       6.477   6.378 -14.098  0.00  0.00    +0.122 C 
ATOM     12  C   UNL     1       6.763   5.451 -13.058  0.00  0.00    +0.322 C 
ATOM     13  O   UNL     1       7.759   4.671 -13.111  0.00  0.00    -0.250 OA
ENDBRANCH  10  12
ENDBRANCH   1  10
BRANCH   6  14
ATOM     14  O   UNL     1       2.394   5.132  -8.384  0.00  0.00    -0.473 OA
BRANCH  14  15
ATOM     15  C   UNL     1       2.473   3.840  -7.905  0.00  0.00    +0.239 C 
BRANCH  15  16
ATOM     16  C   UNL     1       1.845   3.905  -6.346  0.00  0.00    +0.213 C 
ATOM     17  O   UNL     1       2.867   4.986  -5.920  0.00  0.00    -0.218 OA
BRANCH  16  18
ATOM     18  C   UNL     1       0.715   5.075  -6.778  0.00  0.00    +0.125 C 
BRANCH  18  19
ATOM     19  N   UNL     1       0.063   5.359  -5.511  0.00  0.00    -0.217 NA
BRANCH  19  20
ATOM     20  C   UNL     1      -1.043   6.265  -5.756  0.00  0.00    +0.073 C 
ATOM     21  C   UNL     1      -2.258   5.564  -6.311  0.00  0.00    +0.019 C 
ATOM     22  C   UNL     1      -1.380   7.018  -4.501  0.00  0.00    +0.019 C 
ENDBRANCH  19  20
ENDBRANCH  18  19
ENDBRANCH  16  18
ENDBRANCH  15  16
ENDBRANCH  14  15
ENDBRANCH   6  14
TORSDOF 8
ENDMDL
MODEL 5
REMARK VINA RESULT:      -6.6      2.798      8.898
REMARK  Name = 
REMARK  8 active torsions:
REMARK  status: ('A' for Active; 'I' for Inactive)
REMARK    1  A    between atoms: C_2  and  O_4
REMARK    2  A    between atoms: O_4  and  C_5
REMARK    3  A    between atoms: C_9  and  O_10
REMARK    4  A    between atoms: O_10  and  C_11
REMARK    5  A    between atoms: C_11  and  C_12
REMARK    6  A    between atoms: C_12  and  C_14
REMARK    7  A    between atoms: C_14  and  N_15
REMARK    8  A    between atoms: N_15  and  C_16
REMARK                            x       y       z     vdW  Elec       q    Type
REMARK                         _______ _______ _______ _____ _____    ______ ____
ROOT
ATOM      1  C   UNL     1       5.630   5.630 -11.036  0.00  0.00    +0.140 A 
ATOM      2  C   UNL     1       5.722   5.446  -9.661  0.00  0.00    +0.011 A 
ATOM      3  C   UNL     1       7.089   5.281  -9.093  0.00  0.00    +0.034 C 
ATOM      4  C   UNL     1       4.626   5.725  -8.854  0.00  0.00    +0.011 A 
ATOM      5  C   UNL     1       4.829   5.861  -7.378  0.00  0.00    +0.034 C 
ATOM      6  C   UNL     1       3.410   6.144  -9.385  0.00  0.00    +0.134 A 
ATOM      7  C   UNL     1       3.239   5.896 -10.741  0.00  0.00    +0.035 A 
ATOM      8  C   UNL     1       4.332   5.569 -11.535  0.00  0.00    +0.015 A 
ATOM      9  C   UNL     1       4.176   5.642 -13.011  0.00  0.00    +0.034 C 
ENDROOT
BRANCH   1  10
ATOM     10  O   UNL     1       6.664   6.224 -11.767  0.00  0.00    -0.425 OA
BRANCH  10  12
ATOM     11  C   UNL     1       9.017   5.958 -12.196  0.00  0.00    +0.122 C 
ATOM     12  C   UNL     1       7.692   5.455 -12.321  0.00  0.00    +0.322 C 
ATOM     13  O   UNL     1       7.336   4.744 -13.306  0.00  0.00    -0.250 OA
ENDBRANCH  10  12
ENDBRANCH   1  10
BRANCH   6  14
ATOM     14  O   UNL     1       2.649   6.998  -8.649  0.00  0.00    -0.473 OA
BRANCH  14  15
ATOM     15  C   UNL     1       1.629   6.738  -7.754  0.00  0.00    +0.239 C 
BRANCH  15  16
ATOM     16  C   UNL     1       1.144   5.161  -8.080  0.00  0.00    +0.213 C 
ATOM     17  O   UNL     1       1.643   4.664  -6.703  0.00  0.00    -0.218 OA
BRANCH  16  18
ATOM     18  C   UNL     1      -0.401   5.439  -7.474  0.00  0.00    +0.125 C 
BRANCH  18  19
ATOM     19  N   UNL     1      -0.130   6.230  -6.286  0.00  0.00    -0.217 NA
BRANCH  19  20
ATOM     20  C   UNL     1      -1.324   6.243  -5.460  0.00  0.00    +0.073 C 
ATOM     21  C   UNL     1      -1.533   7.563  -4.761  0.00  0.00    +0.019 C 
ATOM     22  C   UNL     1      -2.523   5.870  -6.283  0.00  0.00    +0.019 C 
ENDBRANCH  19  20
ENDBRANCH  18  19
ENDBRANCH  16  18
ENDBRANCH  15  16
ENDBRANCH  14  15
ENDBRANCH   6  14
TORSDOF 8
ENDMDL
MODEL 6
REMARK VINA RESULT:      -6.5      1.758      2.713
REMARK  Name = 
REMARK  8 active torsions:
REMARK  status: ('A' for Active; 'I' for Inactive)
REMARK    1  A    between atoms: C_2  and  O_4
REMARK    2  A    between atoms: O_4  and  C_5
REMARK    3  A    between atoms: C_9  and  O_10
REMARK    4  A    between atoms: O_10  and  C_11
REMARK    5  A    between atoms: C_11  and  C_12
REMARK    6  A    between atoms: C_12  and  C_14
REMARK    7  A    between atoms: C_14  and  N_15
REMARK    8  A    between atoms: N_15  and  C_16
REMARK                            x       y       z     vdW  Elec       q    Type
REMARK                         _______ _______ _______ _____ _____    ______ ____
ROOT
ATOM      1  C   UNL     1      -0.876   5.722  -4.149  0.00  0.00    +0.140 A 
ATOM      2  C   UNL     1      -1.280   5.418  -5.445  0.00  0.00    +0.011 A 
ATOM      3  C   UNL     1      -2.733   5.547  -5.746  0.00  0.00    +0.034 C 
ATOM      4  C   UNL     1      -0.332   5.317  -6.455  0.00  0.00    +0.011 A 
ATOM      5  C   UNL     1      -0.788   5.338  -7.880  0.00  0.00    +0.034 C 
ATOM      6  C   UNL     1       1.028   5.467  -6.205  0.00  0.00    +0.134 A 
ATOM      7  C   UNL     1       1.404   5.333  -4.874  0.00  0.00    +0.035 A 
ATOM      8  C   UNL     1       0.445   5.386  -3.869  0.00  0.00    +0.015 A 
ATOM      9  C   UNL     1       0.904   5.577  -2.469  0.00  0.00    +0.034 C 
ENDROOT
BRANCH   1  10
ATOM     10  O   UNL     1      -1.578   6.637  -3.358  0.00  0.00    -0.425 OA
BRANCH  10  12
ATOM     11  C   UNL     1      -2.279   6.978  -1.080  0.00  0.00    +0.122 C 
ATOM     12  C   UNL     1      -2.355   6.210  -2.275  0.00  0.00    +0.322 C 
ATOM     13  O   UNL     1      -2.581   4.965  -2.258  0.00  0.00    -0.250 OA
ENDBRANCH  10  12
ENDBRANCH   1  10
BRANCH   6  14
ATOM     14  O   UNL     1       1.804   6.012  -7.180  0.00  0.00    -0.473 OA
BRANCH  14  15
ATOM     15  C   UNL     1       3.163   6.255  -7.206  0.00  0.00    +0.239 C 
BRANCH  15  16
ATOM     16  C   UNL     1       3.684   5.701  -8.706  0.00  0.00    +0.213 C 
ATOM     17  O   UNL     1       3.003   4.328  -8.498  0.00  0.00    -0.218 OA
BRANCH  16  18
ATOM     18  C   UNL     1       2.322   6.314  -9.481  0.00  0.00    +0.125 C 
BRANCH  18  19
ATOM     19  N   UNL     1       2.388   5.668 -10.781  0.00  0.00    -0.217 NA
BRANCH  19  20
ATOM     20  C   UNL     1       1.096   5.804 -11.428  0.00  0.00    +0.073 C 
ATOM     21  C   UNL     1       0.252   4.559 -11.309  0.00  0.00    +0.019 C 
ATOM     22  C   UNL     1       0.371   7.001 -10.884  0.00  0.00    +0.019 C 
ENDBRANCH  19  20
ENDBRANCH  18  19
ENDBRANCH  16  18
ENDBRANCH  15  16
ENDBRANCH  14  15
ENDBRANCH   6  14
TORSDOF 8
ENDMDL
MODEL 7
REMARK VINA RESULT:      -6.4      1.493      2.689
REMARK  Name = 
REMARK  8 active torsions:
REMARK  status: ('A' for Active; 'I' for Inactive)
REMARK    1  A    between atoms: C_2  and  O_4
REMARK    2  A    between atoms: O_4  and  C_5
REMARK    3  A    between atoms: C_9  and  O_10
REMARK    4  A    between atoms: O_10  and  C_11
REMARK    5  A    between atoms: C_11  and  C_12
REMARK    6  A    between atoms: C_12  and  C_14
REMARK    7  A    between atoms: C_14  and  N_15
REMARK    8  A    between atoms: N_15  and  C_16
REMARK                            x       y       z     vdW  Elec       q    Type
REMARK                         _______ _______ _______ _____ _____    ______ ____
ROOT
ATOM      1  C   UNL     1       0.558   5.695  -3.293  0.00  0.00    +0.140 A 
ATOM      2  C   UNL     1       1.917   5.578  -3.018  0.00  0.00    +0.011 A 
ATOM      3  C   UNL     1       2.293   5.198  -1.628  0.00  0.00    +0.034 C 
ATOM      4  C   UNL     1       2.827   5.509  -4.065  0.00  0.00    +0.011 A 
ATOM      5  C   UNL     1       4.220   5.040  -3.784  0.00  0.00    +0.034 C 
ATOM      6  C   UNL     1       2.427   5.598  -5.394  0.00  0.00    +0.134 A 
ATOM      7  C   UNL     1       1.164   6.138  -5.598  0.00  0.00    +0.035 A 
ATOM      8  C   UNL     1       0.273   6.250  -4.536  0.00  0.00    +0.015 A 
ATOM      9  C   UNL     1      -1.157   6.510  -4.843  0.00  0.00    +0.034 C 
ENDROOT
BRANCH   1  10
ATOM     10  O   UNL     1      -0.398   4.957  -2.588  0.00  0.00    -0.425 OA
BRANCH  10  12
ATOM     11  C   UNL     1      -0.997   6.379  -0.740  0.00  0.00    +0.122 C 
ATOM     12  C   UNL     1      -1.404   5.592  -1.853  0.00  0.00    +0.322 C 
ATOM     13  O   UNL     1      -2.520   4.995  -1.878  0.00  0.00    -0.250 OA
ENDBRANCH  10  12
ENDBRANCH   1  10
BRANCH   6  14
ATOM     14  O   UNL     1       3.133   4.902  -6.325  0.00  0.00    -0.473 OA
BRANCH  14  15
ATOM     15  C   UNL     1       3.710   5.325  -7.506  0.00  0.00    +0.239 C 
BRANCH  15  16
ATOM     16  C   UNL     1       3.281   4.169  -8.649  0.00  0.00    +0.213 C 
ATOM     17  O   UNL     1       1.902   4.830  -8.882  0.00  0.00    -0.218 OA
BRANCH  16  18
ATOM     18  C   UNL     1       3.972   5.054  -9.903  0.00  0.00    +0.125 C 
BRANCH  18  19
ATOM     19  N   UNL     1       5.288   5.367  -9.373  0.00  0.00    -0.217 NA
BRANCH  19  20
ATOM     20  C   UNL     1       6.053   6.039 -10.408  0.00  0.00    +0.073 C 
ATOM     21  C   UNL     1       5.394   7.310 -10.885  0.00  0.00    +0.019 C 
ATOM     22  C   UNL     1       7.450   6.303  -9.926  0.00  0.00    +0.019 C 
ENDBRANCH  19  20
ENDBRANCH  18  19
ENDBRANCH  16  18
ENDBRANCH  15  16
ENDBRANCH  14  15
ENDBRANCH   6  14
TORSDOF 8
ENDMDL
MODEL 8
REMARK VINA RESULT:      -6.4      2.847      7.557
REMARK  Name = 
REMARK  8 active torsions:
REMARK  status: ('A' for Active; 'I' for Inactive)
REMARK    1  A    between atoms: C_2  and  O_4
REMARK    2  A    between atoms: O_4  and  C_5
REMARK    3  A    between atoms: C_9  and  O_10
REMARK    4  A    between atoms: O_10  and  C_11
REMARK    5  A    between atoms: C_11  and  C_12
REMARK    6  A    between atoms: C_12  and  C_14
REMARK    7  A    between atoms: C_14  and  N_15
REMARK    8  A    between atoms: N_15  and  C_16
REMARK                            x       y       z     vdW  Elec       q    Type
REMARK                         _______ _______ _______ _____ _____    ______ ____
ROOT
ATOM      1  C   UNL     1       2.492   5.541 -10.706  0.00  0.00    +0.140 A 
ATOM      2  C   UNL     1       3.799   5.371 -10.258  0.00  0.00    +0.011 A 
ATOM      3  C   UNL     1       4.886   5.845 -11.159  0.00  0.00    +0.034 C 
ATOM      4  C   UNL     1       4.035   5.076  -8.922  0.00  0.00    +0.011 A 
ATOM      5  C   UNL     1       5.420   5.238  -8.379  0.00  0.00    +0.034 C 
ATOM      6  C   UNL     1       2.997   4.897  -8.013  0.00  0.00    +0.134 A 
ATOM      7  C   UNL     1       1.753   4.647  -8.578  0.00  0.00    +0.035 A 
ATOM      8  C   UNL     1       1.535   4.898  -9.928  0.00  0.00    +0.015 A 
ATOM      9  C   UNL     1       0.133   4.943 -10.417  0.00  0.00    +0.034 C 
ENDROOT
BRANCH   1  10
ATOM     10  O   UNL     1       2.146   6.575 -11.581  0.00  0.00    -0.425 OA
BRANCH  10  12
ATOM     11  C   UNL     1       0.800   7.050 -13.520  0.00  0.00    +0.122 C 
ATOM     12  C   UNL     1       1.869   6.320 -12.928  0.00  0.00    +0.322 C 
ATOM     13  O   UNL     1       2.174   5.152 -13.309  0.00  0.00    -0.250 OA
ENDBRANCH  10  12
ENDBRANCH   1  10
BRANCH   6  14
ATOM     14  O   UNL     1       3.204   5.269  -6.722  0.00  0.00    -0.473 OA
BRANCH  14  15
ATOM     15  C   UNL     1       2.564   6.223  -5.955  0.00  0.00    +0.239 C 
BRANCH  15  16
ATOM     16  C   UNL     1       2.493   5.573  -4.406  0.00  0.00    +0.213 C 
ATOM     17  O   UNL     1       2.024   6.918  -3.802  0.00  0.00    -0.218 OA
BRANCH  16  18
ATOM     18  C   UNL     1       0.905   5.060  -4.621  0.00  0.00    +0.125 C 
BRANCH  18  19
ATOM     19  N   UNL     1       0.255   6.261  -5.117  0.00  0.00    -0.217 NA
BRANCH  19  20
ATOM     20  C   UNL     1      -1.151   5.970  -5.327  0.00  0.00    +0.073 C 
ATOM     21  C   UNL     1      -2.033   7.172  -5.101  0.00  0.00    +0.019 C 
ATOM     22  C   UNL     1      -1.359   5.398  -6.700  0.00  0.00    +0.019 C 
ENDBRANCH  19  20
ENDBRANCH  18  19
ENDBRANCH  16  18
ENDBRANCH  15  16
ENDBRANCH  14  15
ENDBRANCH   6  14
TORSDOF 8
ENDMDL
MODEL 9
REMARK VINA RESULT:      -6.3      4.022      9.394
REMARK  Name = 
REMARK  8 active torsions:
REMARK  status: ('A' for Active; 'I' for Inactive)
REMARK    1  A    between atoms: C_2  and  O_4
REMARK    2  A    between atoms: O_4  and  C_5
REMARK    3  A    between atoms: C_9  and  O_10
REMARK    4  A    between atoms: O_10  and  C_11
REMARK    5  A    between atoms: C_11  and  C_12
REMARK    6  A    between atoms: C_12  and  C_14
REMARK    7  A    between atoms: C_14  and  N_15
REMARK    8  A    between atoms: N_15  and  C_16
REMARK                            x       y       z     vdW  Elec       q    Type
REMARK                         _______ _______ _______ _____ _____    ______ ____
ROOT
ATOM      1  C   UNL     1       5.939   6.326 -12.928  0.00  0.00    +0.140 A 
ATOM      2  C   UNL     1       6.759   6.020 -11.847  0.00  0.00    +0.011 A 
ATOM      3  C   UNL     1       8.189   6.423 -11.952  0.00  0.00    +0.034 C 
ATOM      4  C   UNL     1       6.191   5.656 -10.634  0.00  0.00    +0.011 A 
ATOM      5  C   UNL     1       7.042   5.668  -9.403  0.00  0.00    +0.034 C 
ATOM      6  C   UNL     1       4.814   5.541 -10.471  0.00  0.00    +0.134 A 
ATOM      7  C   UNL     1       4.086   5.428 -11.649  0.00  0.00    +0.035 A 
ATOM      8  C   UNL     1       4.675   5.748 -12.867  0.00  0.00    +0.015 A 
ATOM      9  C   UNL     1       3.791   5.940 -14.046  0.00  0.00    +0.034 C 
ENDROOT
BRANCH   1  10
ATOM     10  O   UNL     1       6.200   7.420 -13.760  0.00  0.00    -0.425 OA
BRANCH  10  12
ATOM     11  C   UNL     1       7.206   6.203 -15.577  0.00  0.00    +0.122 C 
ATOM     12  C   UNL     1       6.357   7.258 -15.140  0.00  0.00    +0.322 C 
ATOM     13  O   UNL     1       6.216   8.324 -15.808  0.00  0.00    -0.250 OA
ENDBRANCH  10  12
ENDBRANCH   1  10
BRANCH   6  14
ATOM     14  O   UNL     1       4.284   5.844  -9.256  0.00  0.00    -0.473 OA
BRANCH  14  15
ATOM     15  C   UNL     1       3.435   6.868  -8.884  0.00  0.00    +0.239 C 
BRANCH  15  16
ATOM     16  C   UNL     1       2.347   6.175  -7.806  0.00  0.00    +0.213 C 
ATOM     17  O   UNL     1       1.557   7.498  -7.665  0.00  0.00    -0.218 OA
BRANCH  16  18
ATOM     18  C   UNL     1       1.344   5.651  -9.051  0.00  0.00    +0.125 C 
BRANCH  18  19
ATOM     19  N   UNL     1       1.006   6.895  -9.721  0.00  0.00    -0.217 NA
BRANCH  19  20
ATOM     20  C   UNL     1       0.582   6.588 -11.075  0.00  0.00    +0.073 C 
ATOM     21  C   UNL     1       0.152   5.151 -11.238  0.00  0.00    +0.019 C 
ATOM     22  C   UNL     1      -0.509   7.529 -11.499  0.00  0.00    +0.019 C 
ENDBRANCH  19  20
ENDBRANCH  18  19
ENDBRANCH  16  18
ENDBRANCH  15  16
ENDBRANCH  14  15
ENDBRANCH   6  14
TORSDOF 8
ENDMDL
