MODEL 1
REMARK VINA RESULT:      -9.6      0.000      0.000
REMARK  Name = 
REMARK  4 active torsions:
REMARK  status: ('A' for Active; 'I' for Inactive)
REMARK    1  A    between atoms: C_2  and  C_3
REMARK    2  A    between atoms: C_8  and  N_9
REMARK    3  A    between atoms: C_12  and  N_13
REMARK    4  A    between atoms: C_28  and  C_29
REMARK                            x       y       z     vdW  Elec       q    Type
REMARK                         _______ _______ _______ _____ _____    ______ ____
ROOT
ATOM      1  C   UNL     1       0.487   5.582  -5.138  0.00  0.00    -0.009 A 
ATOM      2  C   UNL     1       1.654   5.947  -5.800  0.00  0.00    +0.043 A 
ATOM      3  C   UNL     1       2.786   6.084  -5.007  0.00  0.00    +0.010 A 
ATOM      4  C   UNL     1       2.731   6.173  -3.642  0.00  0.00    -0.013 A 
ATOM      5  C   UNL     1       3.898   6.469  -2.777  0.00  0.00    +0.054 C 
ATOM      6  C   UNL     1       3.501   7.356  -1.638  0.00  0.00    +0.065 A 
ATOM      7  C   UNL     1       2.302   7.136  -0.975  0.00  0.00    +0.054 A 
ATOM      8  C   UNL     1       1.363   6.228  -1.640  0.00  0.00    +0.196 C 
ATOM      9  O   UNL     1       0.324   5.927  -1.000  0.00  0.00    -0.287 OA
ATOM     10  C   UNL     1       2.077   8.163  -0.065  0.00  0.00    +0.022 A 
ATOM     11  C   UNL     1       3.220   8.946  -0.119  0.00  0.00    +0.082 A 
ATOM     12  C   UNL     1       3.319   9.939   0.847  0.00  0.00    +0.029 A 
ATOM     13  C   UNL     1       2.246  10.284   1.644  0.00  0.00    +0.070 A 
ATOM     14  C   UNL     1       0.990   9.896   1.208  0.00  0.00    +0.010 A 
ATOM     15  C   UNL     1       0.926   8.763   0.428  0.00  0.00    +0.002 A 
ATOM     16  N   UNL     1       4.080   8.378  -0.992  0.00  0.00    -0.249 NA
ATOM     17  C   UNL     1       4.339   5.153  -2.146  0.00  0.00    +0.010 C 
ATOM     18  C   UNL     1       5.035   7.107  -3.523  0.00  0.00    +0.010 C 
ATOM     19  C   UNL     1       1.580   5.739  -3.006  0.00  0.00    +0.035 A 
ATOM     20  C   UNL     1       0.496   5.327  -3.772  0.00  0.00    -0.000 A 
ENDROOT
BRANCH   2  21
ATOM     21  N   UNL     1       1.852   5.540  -7.159  0.00  0.00    -0.308 N 
ATOM     22  C   UNL     1       2.462   4.239  -7.347  0.00  0.00    +0.092 C 
ATOM     23  C   UNL     1       2.590   3.851  -8.790  0.00  0.00    +0.037 C 
ATOM     24  C   UNL     1       3.124   4.977  -9.656  0.00  0.00    +0.061 C 
ATOM     25  C   UNL     1       3.571   6.082  -8.705  0.00  0.00    +0.037 C 
ATOM     26  C   UNL     1       2.287   6.601  -8.064  0.00  0.00    +0.092 C 
BRANCH  24  27
ATOM     27  N   UNL     1       1.966   5.522 -10.363  0.00  0.00    -0.270 NA
ATOM     28  C   UNL     1       2.462   6.089 -11.593  0.00  0.00    +0.105 C 
ATOM     29  C   UNL     1       1.334   6.444 -12.529  0.00  0.00    +0.159 C 
ATOM     30  O   UNL     1       0.553   5.306 -12.751  0.00  0.00    -0.351 OA
ATOM     31  C   UNL     1      -0.041   4.990 -11.524  0.00  0.00    +0.159 C 
ATOM     32  C   UNL     1       0.991   4.479 -10.561  0.00  0.00    +0.105 C 
ENDBRANCH  24  27
ENDBRANCH   2  21
BRANCH   1  34
ATOM     33  C   UNL     1      -1.733   6.518  -5.247  0.00  0.00    +0.005 C 
ATOM     34  C   UNL     1      -0.771   5.565  -5.937  0.00  0.00    +0.028 C 
ENDBRANCH   1  34
BRANCH  13  35
ATOM     35  C   UNL     1       2.440  11.028   2.860  0.00  0.00    +0.100 C 
ATOM     36  N   UNL     1       2.638  11.744   3.750  0.00  0.00    -0.191 NA
ENDBRANCH  13  35
TORSDOF 4
ENDMDL
MODEL 2
REMARK VINA RESULT:      -8.8      3.434     10.042
REMARK  Name = 
REMARK  4 active torsions:
REMARK  status: ('A' for Active; 'I' for Inactive)
REMARK    1  A    between atoms: C_2  and  C_3
REMARK    2  A    between atoms: C_8  and  N_9
REMARK    3  A    between atoms: C_12  and  N_13
REMARK    4  A    between atoms: C_28  and  C_29
REMARK                            x       y       z     vdW  Elec       q    Type
REMARK                         _______ _______ _______ _____ _____    ______ ____
ROOT
ATOM      1  C   UNL     1       1.881   4.977  -5.950  0.00  0.00    -0.009 A 
ATOM      2  C   UNL     1       0.784   5.763  -6.282  0.00  0.00    +0.043 A 
ATOM      3  C   UNL     1       0.402   5.740  -7.618  0.00  0.00    +0.010 A 
ATOM      4  C   UNL     1       1.205   5.249  -8.612  0.00  0.00    -0.013 A 
ATOM      5  C   UNL     1       0.895   5.345 -10.059  0.00  0.00    +0.054 C 
ATOM      6  C   UNL     1       2.138   5.607 -10.850  0.00  0.00    +0.065 A 
ATOM      7  C   UNL     1       3.315   4.946 -10.531  0.00  0.00    +0.054 A 
ATOM      8  C   UNL     1       3.327   4.255  -9.237  0.00  0.00    +0.196 C 
ATOM      9  O   UNL     1       4.340   3.555  -8.984  0.00  0.00    -0.287 OA
ATOM     10  C   UNL     1       4.359   5.457 -11.293  0.00  0.00    +0.022 A 
ATOM     11  C   UNL     1       3.762   6.364 -12.155  0.00  0.00    +0.082 A 
ATOM     12  C   UNL     1       4.579   6.873 -13.158  0.00  0.00    +0.029 A 
ATOM     13  C   UNL     1       5.946   6.682 -13.144  0.00  0.00    +0.070 A 
ATOM     14  C   UNL     1       6.517   6.314 -11.938  0.00  0.00    +0.010 A 
ATOM     15  C   UNL     1       5.720   5.608 -11.064  0.00  0.00    +0.002 A 
ATOM     16  N   UNL     1       2.432   6.351 -11.927  0.00  0.00    -0.249 NA
ATOM     17  C   UNL     1       0.398   3.974 -10.507  0.00  0.00    +0.010 C 
ATOM     18  C   UNL     1      -0.121   6.406 -10.373  0.00  0.00    +0.010 C 
ATOM     19  C   UNL     1       2.249   4.414  -8.254  0.00  0.00    +0.035 A 
ATOM     20  C   UNL     1       2.505   4.187  -6.908  0.00  0.00    -0.000 A 
ENDROOT
BRANCH   2  21
ATOM     21  N   UNL     1      -0.244   5.989  -5.311  0.00  0.00    -0.308 N 
ATOM     22  C   UNL     1      -1.579   5.577  -5.696  0.00  0.00    +0.092 C 
ATOM     23  C   UNL     1      -2.596   5.790  -4.614  0.00  0.00    +0.037 C 
ATOM     24  C   UNL     1      -2.475   7.152  -3.954  0.00  0.00    +0.061 C 
ATOM     25  C   UNL     1      -1.476   7.950  -4.785  0.00  0.00    +0.037 C 
ATOM     26  C   UNL     1      -0.136   7.250  -4.580  0.00  0.00    +0.092 C 
BRANCH  24  27
ATOM     27  N   UNL     1      -1.811   6.918  -2.674  0.00  0.00    -0.270 NA
ATOM     28  C   UNL     1      -2.050   8.088  -1.864  0.00  0.00    +0.105 C 
ATOM     29  C   UNL     1      -1.644   7.857  -0.430  0.00  0.00    +0.159 C 
ATOM     30  O   UNL     1      -2.316   6.734   0.057  0.00  0.00    -0.351 OA
ATOM     31  C   UNL     1      -1.833   5.639  -0.667  0.00  0.00    +0.159 C 
ATOM     32  C   UNL     1      -2.314   5.700  -2.089  0.00  0.00    +0.105 C 
ENDBRANCH  24  27
ENDBRANCH   2  21
BRANCH   1  34
ATOM     33  C   UNL     1       3.900   4.851  -4.636  0.00  0.00    +0.005 C 
ATOM     34  C   UNL     1       2.402   5.090  -4.557  0.00  0.00    +0.028 C 
ENDBRANCH   1  34
BRANCH  13  35
ATOM     35  C   UNL     1       6.729   6.880 -14.336  0.00  0.00    +0.100 C 
ATOM     36  N   UNL     1       7.266   6.937 -15.361  0.00  0.00    -0.191 NA
ENDBRANCH  13  35
TORSDOF 4
ENDMDL
MODEL 3
REMARK VINA RESULT:      -8.8      2.347      3.103
REMARK  Name = 
REMARK  4 active torsions:
REMARK  status: ('A' for Active; 'I' for Inactive)
REMARK    1  A    between atoms: C_2  and  C_3
REMARK    2  A    between atoms: C_8  and  N_9
REMARK    3  A    between atoms: C_12  and  N_13
REMARK    4  A    between atoms: C_28  and  C_29
REMARK                            x       y       z     vdW  Elec       q    Type
REMARK                         _______ _______ _______ _____ _____    ______ ____
ROOT
ATOM      1  C   UNL     1       1.396   5.635  -6.494  0.00  0.00    -0.009 A 
ATOM      2  C   UNL     1       2.568   6.366  -6.649  0.00  0.00    +0.043 A 
ATOM      3  C   UNL     1       3.383   6.455  -5.527  0.00  0.00    +0.010 A 
ATOM      4  C   UNL     1       2.951   6.133  -4.268  0.00  0.00    -0.013 A 
ATOM      5  C   UNL     1       3.741   6.357  -3.033  0.00  0.00    +0.054 C 
ATOM      6  C   UNL     1       2.853   6.795  -1.910  0.00  0.00    +0.065 A 
ATOM      7  C   UNL     1       1.615   6.195  -1.732  0.00  0.00    +0.054 A 
ATOM      8  C   UNL     1       1.137   5.375  -2.849  0.00  0.00    +0.196 C 
ATOM      9  O   UNL     1       0.074   4.732  -2.659  0.00  0.00    -0.287 OA
ATOM     10  C   UNL     1       0.913   6.861  -0.734  0.00  0.00    +0.022 A 
ATOM     11  C   UNL     1       1.801   7.806  -0.242  0.00  0.00    +0.082 A 
ATOM     12  C   UNL     1       1.394   8.478   0.905  0.00  0.00    +0.029 A 
ATOM     13  C   UNL     1       0.099   8.392   1.374  0.00  0.00    +0.070 A 
ATOM     14  C   UNL     1      -0.863   7.943   0.485  0.00  0.00    +0.010 A 
ATOM     15  C   UNL     1      -0.438   7.090  -0.510  0.00  0.00    +0.002 A 
ATOM     16  N   UNL     1       2.971   7.668  -0.899  0.00  0.00    -0.249 NA
ATOM     17  C   UNL     1       4.311   5.008  -2.610  0.00  0.00    +0.010 C 
ATOM     18  C   UNL     1       4.839   7.365  -3.213  0.00  0.00    +0.010 C 
ATOM     19  C   UNL     1       1.818   5.348  -4.148  0.00  0.00    +0.035 A 
ATOM     20  C   UNL     1       1.110   5.000  -5.292  0.00  0.00    -0.000 A 
ENDROOT
BRANCH   2  21
ATOM     21  N   UNL     1       3.210   6.410  -7.929  0.00  0.00    -0.308 N 
ATOM     22  C   UNL     1       2.340   6.642  -9.066  0.00  0.00    +0.092 C 
ATOM     23  C   UNL     1       3.082   6.732 -10.366  0.00  0.00    +0.037 C 
ATOM     24  C   UNL     1       4.122   5.638 -10.526  0.00  0.00    +0.061 C 
ATOM     25  C   UNL     1       3.904   4.660  -9.376  0.00  0.00    +0.037 C 
ATOM     26  C   UNL     1       4.281   5.434  -8.116  0.00  0.00    +0.092 C 
BRANCH  24  27
ATOM     27  N   UNL     1       5.412   6.270 -10.255  0.00  0.00    -0.270 NA
ATOM     28  C   UNL     1       6.427   5.335 -10.673  0.00  0.00    +0.105 C 
ATOM     29  C   UNL     1       7.792   5.976 -10.693  0.00  0.00    +0.159 C 
ATOM     30  O   UNL     1       7.750   7.108 -11.510  0.00  0.00    -0.351 OA
ATOM     31  C   UNL     1       6.898   8.020 -10.878  0.00  0.00    +0.159 C 
ATOM     32  C   UNL     1       5.477   7.537 -10.939  0.00  0.00    +0.105 C 
ENDBRANCH  24  27
ENDBRANCH   2  21
BRANCH   1  34
ATOM     33  C   UNL     1      -0.920   5.269  -7.058  0.00  0.00    +0.005 C 
ATOM     34  C   UNL     1       0.436   5.640  -7.634  0.00  0.00    +0.028 C 
ENDBRANCH   1  34
BRANCH  13  35
ATOM     35  C   UNL     1      -0.222   8.773   2.724  0.00  0.00    +0.100 C 
ATOM     36  N   UNL     1      -0.587   9.172   3.750  0.00  0.00    -0.191 NA
ENDBRANCH  13  35
TORSDOF 4
ENDMDL
MODEL 4
REMARK VINA RESULT:      -8.2      3.380      5.090
REMARK  Name = 
REMARK  4 active torsions:
REMARK  status: ('A' for Active; 'I' for Inactive)
REMARK    1  A    between atoms: C_2  and  C_3
REMARK    2  A    between atoms: C_8  and  N_9
REMARK    3  A    between atoms: C_12  and  N_13
REMARK    4  A    between atoms: C_28  and  C_29
REMARK                            x       y       z     vdW  Elec       q    Type
REMARK                         _______ _______ _______ _____ _____    ______ ____
ROOT
ATOM      1  C   UNL     1       3.111   4.904  -9.138  0.00  0.00    -0.009 A 
ATOM      2  C   UNL     1       4.175   5.748  -8.844  0.00  0.00    +0.043 A 
ATOM      3  C   UNL     1       4.549   5.813  -7.507  0.00  0.00    +0.010 A 
ATOM      4  C   UNL     1       3.757   5.348  -6.491  0.00  0.00    -0.013 A 
ATOM      5  C   UNL     1       4.053   5.535  -5.050  0.00  0.00    +0.054 C 
ATOM      6  C   UNL     1       2.795   5.794  -4.282  0.00  0.00    +0.065 A 
ATOM      7  C   UNL     1       1.646   5.072  -4.570  0.00  0.00    +0.054 A 
ATOM      8  C   UNL     1       1.669   4.310  -5.823  0.00  0.00    +0.196 C 
ATOM      9  O   UNL     1       0.685   3.560  -6.043  0.00  0.00    -0.287 OA
ATOM     10  C   UNL     1       0.578   5.584  -3.843  0.00  0.00    +0.022 A 
ATOM     11  C   UNL     1       1.134   6.559  -3.029  0.00  0.00    +0.082 A 
ATOM     12  C   UNL     1       0.291   7.092  -2.061  0.00  0.00    +0.029 A 
ATOM     13  C   UNL     1      -1.068   6.850  -2.071  0.00  0.00    +0.070 A 
ATOM     14  C   UNL     1      -1.615   6.394  -3.258  0.00  0.00    +0.010 A 
ATOM     15  C   UNL     1      -0.786   5.671  -4.087  0.00  0.00    +0.002 A 
ATOM     16  N   UNL     1       2.465   6.584  -3.250  0.00  0.00    -0.249 NA
ATOM     17  C   UNL     1       4.597   4.211  -4.524  0.00  0.00    +0.010 C 
ATOM     18  C   UNL     1       5.026   6.649  -4.791  0.00  0.00    +0.010 C 
ATOM     19  C   UNL     1       2.747   4.456  -6.808  0.00  0.00    +0.035 A 
ATOM     20  C   UNL     1       2.510   4.144  -8.141  0.00  0.00    -0.000 A 
ENDROOT
BRANCH   2  21
ATOM     21  N   UNL     1       5.201   5.959  -9.821  0.00  0.00    -0.308 N 
ATOM     22  C   UNL     1       6.565   5.851  -9.340  0.00  0.00    +0.092 C 
ATOM     23  C   UNL     1       7.587   6.027 -10.423  0.00  0.00    +0.037 C 
ATOM     24  C   UNL     1       7.284   7.204 -11.331  0.00  0.00    +0.061 C 
ATOM     25  C   UNL     1       6.130   7.965 -10.686  0.00  0.00    +0.037 C 
ATOM     26  C   UNL     1       4.931   7.027 -10.780  0.00  0.00    +0.092 C 
BRANCH  24  27
ATOM     27  N   UNL     1       6.730   6.633 -12.557  0.00  0.00    -0.270 NA
ATOM     28  C   UNL     1       6.480   7.736 -13.452  0.00  0.00    +0.105 C 
ATOM     29  C   UNL     1       6.160   7.253 -14.844  0.00  0.00    +0.159 C 
ATOM     30  O   UNL     1       7.201   6.436 -15.293  0.00  0.00    -0.351 OA
ATOM     31  C   UNL     1       7.194   5.302 -14.474  0.00  0.00    +0.159 C 
ATOM     32  C   UNL     1       7.648   5.656 -13.087  0.00  0.00    +0.105 C 
ENDBRANCH  24  27
ENDBRANCH   2  21
BRANCH   1  34
ATOM     33  C   UNL     1       1.394   5.848 -10.545  0.00  0.00    +0.005 C 
ATOM     34  C   UNL     1       2.597   4.920 -10.538  0.00  0.00    +0.028 C 
ENDBRANCH   1  34
BRANCH  13  35
ATOM     35  C   UNL     1      -1.866   7.083  -0.897  0.00  0.00    +0.100 C 
ATOM     36  N   UNL     1      -2.376   7.285   0.125  0.00  0.00    -0.191 NA
ENDBRANCH  13  35
TORSDOF 4
ENDMDL
MODEL 5
REMARK VINA RESULT:      -7.8      1.629      2.380
REMARK  Name = 
REMARK  4 active torsions:
REMARK  status: ('A' for Active; 'I' for Inactive)
REMARK    1  A    between atoms: C_2  and  C_3
REMARK    2  A    between atoms: C_8  and  N_9
REMARK    3  A    between atoms: C_12  and  N_13
REMARK    4  A    between atoms: C_28  and  C_29
REMARK                            x       y       z     vdW  Elec       q    Type
REMARK                         _______ _______ _______ _____ _____    ______ ____
ROOT
ATOM      1  C   UNL     1       0.406   5.376  -6.636  0.00  0.00    -0.009 A 
ATOM      2  C   UNL     1       1.486   6.073  -7.165  0.00  0.00    +0.043 A 
ATOM      3  C   UNL     1       2.609   6.162  -6.351  0.00  0.00    +0.010 A 
ATOM      4  C   UNL     1       2.581   5.878  -5.012  0.00  0.00    -0.013 A 
ATOM      5  C   UNL     1       3.717   6.106  -4.086  0.00  0.00    +0.054 C 
ATOM      6  C   UNL     1       3.228   6.590  -2.757  0.00  0.00    +0.065 A 
ATOM      7  C   UNL     1       2.094   6.026  -2.190  0.00  0.00    +0.054 A 
ATOM      8  C   UNL     1       1.279   5.196  -3.083  0.00  0.00    +0.196 C 
ATOM      9  O   UNL     1       0.315   4.585  -2.557  0.00  0.00    -0.287 OA
ATOM     10  C   UNL     1       1.747   6.730  -1.043  0.00  0.00    +0.022 A 
ATOM     11  C   UNL     1       2.761   7.661  -0.874  0.00  0.00    +0.082 A 
ATOM     12  C   UNL     1       2.741   8.367   0.323  0.00  0.00    +0.029 A 
ATOM     13  C   UNL     1       1.652   8.324   1.171  0.00  0.00    +0.070 A 
ATOM     14  C   UNL     1       0.455   7.882   0.633  0.00  0.00    +0.010 A 
ATOM     15  C   UNL     1       0.536   6.999  -0.420  0.00  0.00    +0.002 A 
ATOM     16  N   UNL     1       3.668   7.479  -1.856  0.00  0.00    -0.249 NA
ATOM     17  C   UNL     1       4.365   4.751  -3.823  0.00  0.00    +0.010 C 
ATOM     18  C   UNL     1       4.725   7.081  -4.624  0.00  0.00    +0.010 C 
ATOM     19  C   UNL     1       1.526   5.125  -4.527  0.00  0.00    +0.035 A 
ATOM     20  C   UNL     1       0.492   4.773  -5.387  0.00  0.00    -0.000 A 
ENDROOT
BRANCH   2  21
ATOM     21  N   UNL     1       1.702   6.074  -8.581  0.00  0.00    -0.308 N 
ATOM     22  C   UNL     1       0.806   6.909  -9.357  0.00  0.00    +0.092 C 
ATOM     23  C   UNL     1       1.123   6.907 -10.822  0.00  0.00    +0.037 C 
ATOM     24  C   UNL     1       1.386   5.515 -11.366  0.00  0.00    +0.061 C 
ATOM     25  C   UNL     1       1.014   4.538 -10.255  0.00  0.00    +0.037 C 
ATOM     26  C   UNL     1       2.043   4.774  -9.154  0.00  0.00    +0.092 C 
BRANCH  24  27
ATOM     27  N   UNL     1       2.837   5.407 -11.503  0.00  0.00    -0.270 NA
ATOM     28  C   UNL     1       3.091   4.926 -12.840  0.00  0.00    +0.105 C 
ATOM     29  C   UNL     1       4.554   5.028 -13.192  0.00  0.00    +0.159 C 
ATOM     30  O   UNL     1       4.972   6.349 -13.019  0.00  0.00    -0.351 OA
ATOM     31  C   UNL     1       4.880   6.617 -11.649  0.00  0.00    +0.159 C 
ATOM     32  C   UNL     1       3.441   6.686 -11.226  0.00  0.00    +0.105 C 
ENDBRANCH  24  27
ENDBRANCH   2  21
BRANCH   1  34
ATOM     33  C   UNL     1      -1.994   5.469  -6.418  0.00  0.00    +0.005 C 
ATOM     34  C   UNL     1      -0.859   5.383  -7.424  0.00  0.00    +0.028 C 
ENDBRANCH   1  34
BRANCH  13  35
ATOM     35  C   UNL     1       1.771   8.740   2.543  0.00  0.00    +0.100 C 
ATOM     36  N   UNL     1       1.886   9.217   3.594  0.00  0.00    -0.191 NA
ENDBRANCH  13  35
TORSDOF 4
ENDMDL
MODEL 6
REMARK VINA RESULT:      -7.5      2.083     10.073
REMARK  Name = 
REMARK  4 active torsions:
REMARK  status: ('A' for Active; 'I' for Inactive)
REMARK    1  A    between atoms: C_2  and  C_3
REMARK    2  A    between atoms: C_8  and  N_9
REMARK    3  A    between atoms: C_12  and  N_13
REMARK    4  A    between atoms: C_28  and  C_29
REMARK                            x       y       z     vdW  Elec       q    Type
REMARK                         _______ _______ _______ _____ _____    ______ ____
ROOT
ATOM      1  C   UNL     1       4.244   7.091  -4.604  0.00  0.00    -0.009 A 
ATOM      2  C   UNL     1       2.966   7.290  -4.095  0.00  0.00    +0.043 A 
ATOM      3  C   UNL     1       1.960   6.514  -4.658  0.00  0.00    +0.010 A 
ATOM      4  C   UNL     1       2.118   5.831  -5.834  0.00  0.00    -0.013 A 
ATOM      5  C   UNL     1       1.025   5.119  -6.539  0.00  0.00    +0.054 C 
ATOM      6  C   UNL     1       1.160   5.278  -8.021  0.00  0.00    +0.065 A 
ATOM      7  C   UNL     1       2.411   5.198  -8.616  0.00  0.00    +0.054 A 
ATOM      8  C   UNL     1       3.556   5.262  -7.702  0.00  0.00    +0.196 C 
ATOM      9  O   UNL     1       4.691   5.074  -8.210  0.00  0.00    -0.287 OA
ATOM     10  C   UNL     1       2.309   5.524  -9.963  0.00  0.00    +0.022 A 
ATOM     11  C   UNL     1       0.952   5.696 -10.188  0.00  0.00    +0.082 A 
ATOM     12  C   UNL     1       0.573   5.843 -11.517  0.00  0.00    +0.029 A 
ATOM     13  C   UNL     1       1.503   6.054 -12.516  0.00  0.00    +0.070 A 
ATOM     14  C   UNL     1       2.757   6.491 -12.124  0.00  0.00    +0.010 A 
ATOM     15  C   UNL     1       3.178   6.122 -10.866  0.00  0.00    +0.002 A 
ATOM     16  N   UNL     1       0.298   5.445  -9.035  0.00  0.00    -0.249 NA
ATOM     17  C   UNL     1       1.204   3.630  -6.263  0.00  0.00    +0.010 C 
ATOM     18  C   UNL     1      -0.342   5.577  -6.118  0.00  0.00    +0.010 C 
ATOM     19  C   UNL     1       3.406   5.591  -6.280  0.00  0.00    +0.035 A 
ATOM     20  C   UNL     1       4.478   6.130  -5.580  0.00  0.00    -0.000 A 
ENDROOT
BRANCH   2  21
ATOM     21  N   UNL     1       2.802   7.681  -2.727  0.00  0.00    -0.308 N 
ATOM     22  C   UNL     1       3.907   8.416  -2.143  0.00  0.00    +0.092 C 
ATOM     23  C   UNL     1       3.648   8.843  -0.729  0.00  0.00    +0.037 C 
ATOM     24  C   UNL     1       3.052   7.735   0.120  0.00  0.00    +0.061 C 
ATOM     25  C   UNL     1       3.124   6.461  -0.716  0.00  0.00    +0.037 C 
ATOM     26  C   UNL     1       2.156   6.687  -1.873  0.00  0.00    +0.092 C 
BRANCH  24  27
ATOM     27  N   UNL     1       1.628   8.040   0.234  0.00  0.00    -0.270 NA
ATOM     28  C   UNL     1       1.050   7.017   1.071  0.00  0.00    +0.105 C 
ATOM     29  C   UNL     1      -0.357   7.370   1.481  0.00  0.00    +0.159 C 
ATOM     30  O   UNL     1      -0.348   8.620   2.107  0.00  0.00    -0.351 OA
ATOM     31  C   UNL     1       0.020   9.549   1.127  0.00  0.00    +0.159 C 
ATOM     32  C   UNL     1       1.464   9.373   0.757  0.00  0.00    +0.105 C 
ENDBRANCH  24  27
ENDBRANCH   2  21
BRANCH   1  34
ATOM     33  C   UNL     1       6.592   7.180  -4.057  0.00  0.00    +0.005 C 
ATOM     34  C   UNL     1       5.318   8.005  -4.121  0.00  0.00    +0.028 C 
ENDBRANCH   1  34
BRANCH  13  35
ATOM     35  C   UNL     1       1.160   5.841 -13.897  0.00  0.00    +0.100 C 
ATOM     36  N   UNL     1       0.779   5.780 -14.990  0.00  0.00    -0.191 NA
ENDBRANCH  13  35
TORSDOF 4
ENDMDL
MODEL 7
REMARK VINA RESULT:      -6.7      1.550      1.874
REMARK  Name = 
REMARK  4 active torsions:
REMARK  status: ('A' for Active; 'I' for Inactive)
REMARK    1  A    between atoms: C_2  and  C_3
REMARK    2  A    between atoms: C_8  and  N_9
REMARK    3  A    between atoms: C_12  and  N_13
REMARK    4  A    between atoms: C_28  and  C_29
REMARK                            x       y       z     vdW  Elec       q    Type
REMARK                         _______ _______ _______ _____ _____    ______ ____
ROOT
ATOM      1  C   UNL     1       1.044   5.315  -6.482  0.00  0.00    -0.009 A 
ATOM      2  C   UNL     1       2.254   5.936  -6.770  0.00  0.00    +0.043 A 
ATOM      3  C   UNL     1       3.174   5.989  -5.730  0.00  0.00    +0.010 A 
ATOM      4  C   UNL     1       2.835   5.747  -4.426  0.00  0.00    -0.013 A 
ATOM      5  C   UNL     1       3.751   5.940  -3.276  0.00  0.00    +0.054 C 
ATOM      6  C   UNL     1       3.011   6.489  -2.097  0.00  0.00    +0.065 A 
ATOM      7  C   UNL     1       1.748   6.005  -1.784  0.00  0.00    +0.054 A 
ATOM      8  C   UNL     1       1.102   5.195  -2.821  0.00  0.00    +0.196 C 
ATOM      9  O   UNL     1       0.011   4.653  -2.511  0.00  0.00    -0.287 OA
ATOM     10  C   UNL     1       1.201   6.761  -0.755  0.00  0.00    +0.022 A 
ATOM     11  C   UNL     1       2.206   7.640  -0.382  0.00  0.00    +0.082 A 
ATOM     12  C   UNL     1       1.966   8.382   0.769  0.00  0.00    +0.029 A 
ATOM     13  C   UNL     1       0.716   8.424   1.355  0.00  0.00    +0.070 A 
ATOM     14  C   UNL     1      -0.358   8.032   0.574  0.00  0.00    +0.010 A 
ATOM     15  C   UNL     1      -0.100   7.115  -0.420  0.00  0.00    +0.002 A 
ATOM     16  N   UNL     1       3.295   7.380  -1.136  0.00  0.00    -0.249 NA
ATOM     17  C   UNL     1       4.243   4.560  -2.852  0.00  0.00    +0.010 C 
ATOM     18  C   UNL     1       4.909   6.842  -3.593  0.00  0.00    +0.010 C 
ATOM     19  C   UNL     1       1.655   5.067  -4.174  0.00  0.00    +0.035 A 
ATOM     20  C   UNL     1       0.818   4.746  -5.235  0.00  0.00    -0.000 A 
ENDROOT
BRANCH   2  21
ATOM     21  N   UNL     1       2.776   5.883  -8.103  0.00  0.00    -0.308 N 
ATOM     22  C   UNL     1       4.216   5.756  -8.214  0.00  0.00    +0.092 C 
ATOM     23  C   UNL     1       4.690   5.650  -9.633  0.00  0.00    +0.037 C 
ATOM     24  C   UNL     1       4.030   6.664 -10.550  0.00  0.00    +0.061 C 
ATOM     25  C   UNL     1       3.250   7.619  -9.653  0.00  0.00    +0.037 C 
ATOM     26  C   UNL     1       2.125   6.778  -9.057  0.00  0.00    +0.092 C 
BRANCH  24  27
ATOM     27  N   UNL     1       3.016   5.924 -11.299  0.00  0.00    -0.270 NA
ATOM     28  C   UNL     1       1.975   6.868 -11.629  0.00  0.00    +0.105 C 
ATOM     29  C   UNL     1       1.004   6.289 -12.628  0.00  0.00    +0.159 C 
ATOM     30  O   UNL     1       1.711   5.870 -13.757  0.00  0.00    -0.351 OA
ATOM     31  C   UNL     1       2.524   4.809 -13.343  0.00  0.00    +0.159 C 
ATOM     32  C   UNL     1       3.624   5.312 -12.453  0.00  0.00    +0.105 C 
ENDBRANCH  24  27
ENDBRANCH   2  21
BRANCH   1  34
ATOM     33  C   UNL     1      -1.335   5.549  -6.803  0.00  0.00    +0.005 C 
ATOM     34  C   UNL     1      -0.014   5.368  -7.531  0.00  0.00    +0.028 C 
ENDBRANCH   1  34
BRANCH  13  35
ATOM     35  C   UNL     1       0.555   8.874   2.713  0.00  0.00    +0.100 C 
ATOM     36  N   UNL     1       0.419   9.378   3.747  0.00  0.00    -0.191 NA
ENDBRANCH  13  35
TORSDOF 4
ENDMDL
MODEL 8
REMARK VINA RESULT:      -6.6      3.559      5.709
REMARK  Name = 
REMARK  4 active torsions:
REMARK  status: ('A' for Active; 'I' for Inactive)
REMARK    1  A    between atoms: C_2  and  C_3
REMARK    2  A    between atoms: C_8  and  N_9
REMARK    3  A    between atoms: C_12  and  N_13
REMARK    4  A    between atoms: C_28  and  C_29
REMARK                            x       y       z     vdW  Elec       q    Type
REMARK                         _______ _______ _______ _____ _____    ______ ____
ROOT
ATOM      1  C   UNL     1       0.968   5.878 -10.913  0.00  0.00    -0.009 A 
ATOM      2  C   UNL     1       2.330   6.015 -10.675  0.00  0.00    +0.043 A 
ATOM      3  C   UNL     1       2.788   5.525  -9.458  0.00  0.00    +0.010 A 
ATOM      4  C   UNL     1       1.950   5.216  -8.420  0.00  0.00    -0.013 A 
ATOM      5  C   UNL     1       2.410   4.836  -7.062  0.00  0.00    +0.054 C 
ATOM      6  C   UNL     1       1.513   5.421  -6.017  0.00  0.00    +0.065 A 
ATOM      7  C   UNL     1       0.138   5.424  -6.207  0.00  0.00    +0.054 A 
ATOM      8  C   UNL     1      -0.318   5.121  -7.567  0.00  0.00    +0.196 C 
ATOM      9  O   UNL     1      -1.559   5.006  -7.731  0.00  0.00    -0.287 OA
ATOM     10  C   UNL     1      -0.472   6.146  -5.188  0.00  0.00    +0.022 A 
ATOM     11  C   UNL     1       0.557   6.484  -4.323  0.00  0.00    +0.082 A 
ATOM     12  C   UNL     1       0.170   7.052  -3.115  0.00  0.00    +0.029 A 
ATOM     13  C   UNL     1      -1.124   7.479  -2.897  0.00  0.00    +0.070 A 
ATOM     14  C   UNL     1      -1.916   7.678  -4.015  0.00  0.00    +0.010 A 
ATOM     15  C   UNL     1      -1.625   6.918  -5.126  0.00  0.00    +0.002 A 
ATOM     16  N   UNL     1       1.702   5.951  -4.800  0.00  0.00    -0.249 NA
ATOM     17  C   UNL     1       2.259   3.323  -6.941  0.00  0.00    +0.010 C 
ATOM     18  C   UNL     1       3.826   5.252  -6.784  0.00  0.00    +0.010 C 
ATOM     19  C   UNL     1       0.609   5.020  -8.700  0.00  0.00    +0.035 A 
ATOM     20  C   UNL     1       0.147   5.239  -9.992  0.00  0.00    -0.000 A 
ENDROOT
BRANCH   2  21
ATOM     21  N   UNL     1       3.246   5.991 -11.776  0.00  0.00    -0.308 N 
ATOM     22  C   UNL     1       3.632   4.676 -12.248  0.00  0.00    +0.092 C 
ATOM     23  C   UNL     1       4.547   4.722 -13.436  0.00  0.00    +0.037 C 
ATOM     24  C   UNL     1       5.665   5.736 -13.278  0.00  0.00    +0.061 C 
ATOM     25  C   UNL     1       5.608   6.223 -11.833  0.00  0.00    +0.037 C 
ATOM     26  C   UNL     1       4.301   7.001 -11.725  0.00  0.00    +0.092 C 
BRANCH  24  27
ATOM     27  N   UNL     1       5.277   6.889 -14.088  0.00  0.00    -0.270 NA
ATOM     28  C   UNL     1       6.476   7.363 -14.734  0.00  0.00    +0.105 C 
ATOM     29  C   UNL     1       6.161   8.380 -15.802  0.00  0.00    +0.159 C 
ATOM     30  O   UNL     1       5.260   7.820 -16.711  0.00  0.00    -0.351 OA
ATOM     31  C   UNL     1       4.069   7.609 -16.007  0.00  0.00    +0.159 C 
ATOM     32  C   UNL     1       4.241   6.498 -15.011  0.00  0.00    +0.105 C 
ENDBRANCH  24  27
ENDBRANCH   2  21
BRANCH   1  34
ATOM     33  C   UNL     1      -0.559   7.581 -11.681  0.00  0.00    +0.005 C 
ATOM     34  C   UNL     1       0.425   6.519 -12.144  0.00  0.00    +0.028 C 
ENDBRANCH   1  34
BRANCH  13  35
ATOM     35  C   UNL     1      -1.607   7.717  -1.562  0.00  0.00    +0.100 C 
ATOM     36  N   UNL     1      -2.128   7.849  -0.535  0.00  0.00    -0.191 NA
ENDBRANCH  13  35
TORSDOF 4
ENDMDL
