MODEL 1
REMARK VINA RESULT:      -8.2      0.000      0.000
REMARK  Name = 
REMARK  11 active torsions:
REMARK  status: ('A' for Active; 'I' for Inactive)
REMARK    1  A    between atoms: C_2  and  C_3
REMARK    2  A    between atoms: C_3  and  C_4
REMARK    3  A    between atoms: C_4  and  C_5
REMARK    4  A    between atoms: C_5  and  C_8
REMARK    5  A    between atoms: C_17  and  C_18
REMARK    6  A    between atoms: C_18  and  C_19
REMARK    7  A    between atoms: C_19  and  C_20
REMARK    8  A    between atoms: C_20  and  C_21
REMARK    9  A    between atoms: C_21  and  C_22
REMARK   10  A    between atoms: C_22  and  C_23
REMARK   11  A    between atoms: C_23  and  C_24
REMARK                            x       y       z     vdW  Elec       q    Type
REMARK                         _______ _______ _______ _____ _____    ______ ____
ROOT
ATOM      1  C   UNL     1      -0.109   5.892  -5.806  0.00  0.00    +0.275 C 
ATOM      2  O   UNL     1       0.810   6.921  -5.472  0.00  0.00    -0.330 OA
ATOM      3  C   UNL     1       1.889   6.126  -6.170  0.00  0.00    +0.126 C 
ATOM      4  C   UNL     1       3.221   7.021  -5.886  0.00  0.00    +0.094 C 
ATOM      5  C   UNL     1       3.697   6.188  -7.076  0.00  0.00    +0.153 C 
ATOM      6  C   UNL     1       3.046   7.188  -8.141  0.00  0.00    +0.060 C 
ATOM      7  O   UNL     1       4.657   5.509  -7.202  0.00  0.00    -0.296 OA
ATOM      8  C   UNL     1       1.462   6.962  -7.594  0.00  0.00    +0.035 C 
ATOM      9  C   UNL     1       1.150   5.443  -8.043  0.00  0.00    +0.008 C 
ATOM     10  C   UNL     1      -0.010   5.206  -7.076  0.00  0.00    +0.065 C 
ATOM     11  O   UNL     1       0.373   4.951  -4.848  0.00  0.00    -0.189 OA
ENDROOT
BRANCH   1  12
ATOM     12  C   UNL     1      -1.531   6.160  -5.473  0.00  0.00    +0.312 C 
ATOM     13  F   UNL     1      -2.492   5.459  -6.095  0.00  0.00    -0.199 F 
ATOM     14  F   UNL     1      -1.814   7.482  -5.451  0.00  0.00    -0.199 F 
BRANCH  12  15
ATOM     15  C   UNL     1      -1.684   5.664  -4.036  0.00  0.00    +0.072 C 
BRANCH  15  16
ATOM     16  C   UNL     1      -3.073   5.280  -3.659  0.00  0.00    +0.006 C 
BRANCH  16  18
ATOM     17  C   UNL     1      -3.227   6.676  -2.354  0.00  0.00    +0.000 C 
ATOM     18  C   UNL     1      -3.496   6.329  -2.625  0.00  0.00    +0.000 C 
ENDBRANCH  16  18
ENDBRANCH  15  16
ENDBRANCH  12  15
ENDBRANCH   1  12
BRANCH   6  19
ATOM     19  C   UNL     1       2.831   6.290  -9.451  0.00  0.00    +0.007 C 
BRANCH  19  20
ATOM     20  C   UNL     1       3.523   6.090 -10.566  0.00  0.00    +0.000 C 
BRANCH  20  21
ATOM     21  C   UNL     1       4.579   7.219 -10.585  0.00  0.00    +0.000 C 
BRANCH  21  22
ATOM     22  C   UNL     1       5.880   6.845 -11.124  0.00  0.00    +0.001 C 
BRANCH  22  23
ATOM     23  C   UNL     1       7.016   6.614 -10.196  0.00  0.00    +0.012 C 
BRANCH  23  24
ATOM     24  C   UNL     1       7.870   5.441 -10.577  0.00  0.00    +0.114 C 
BRANCH  24  25
ATOM     25  C   UNL     1       8.274   5.432 -11.997  0.00  0.00    +0.365 C 
ATOM     26  O   UNL     1       7.654   4.565 -12.869  0.00  0.00    -0.246 OA
ATOM     27  O   UNL     1       9.296   6.028 -12.394  0.00  0.00    -0.246 OA
ENDBRANCH  24  25
ENDBRANCH  23  24
ENDBRANCH  22  23
ENDBRANCH  21  22
ENDBRANCH  20  21
ENDBRANCH  19  20
ENDBRANCH   6  19
TORSDOF 11
ENDMDL
MODEL 2
REMARK VINA RESULT:      -8.1      3.683      7.580
REMARK  Name = 
REMARK  11 active torsions:
REMARK  status: ('A' for Active; 'I' for Inactive)
REMARK    1  A    between atoms: C_2  and  C_3
REMARK    2  A    between atoms: C_3  and  C_4
REMARK    3  A    between atoms: C_4  and  C_5
REMARK    4  A    between atoms: C_5  and  C_8
REMARK    5  A    between atoms: C_17  and  C_18
REMARK    6  A    between atoms: C_18  and  C_19
REMARK    7  A    between atoms: C_19  and  C_20
REMARK    8  A    between atoms: C_20  and  C_21
REMARK    9  A    between atoms: C_21  and  C_22
REMARK   10  A    between atoms: C_22  and  C_23
REMARK   11  A    between atoms: C_23  and  C_24
REMARK                            x       y       z     vdW  Elec       q    Type
REMARK                         _______ _______ _______ _____ _____    ______ ____
ROOT
ATOM      1  C   UNL     1       3.698   6.768  -4.807  0.00  0.00    +0.275 C 
ATOM      2  O   UNL     1       3.779   7.342  -6.104  0.00  0.00    -0.330 OA
ATOM      3  C   UNL     1       3.108   6.102  -6.647  0.00  0.00    +0.126 C 
ATOM      4  C   UNL     1       3.120   6.376  -8.254  0.00  0.00    +0.094 C 
ATOM      5  C   UNL     1       2.029   5.309  -8.165  0.00  0.00    +0.153 C 
ATOM      6  C   UNL     1       0.894   6.381  -7.820  0.00  0.00    +0.060 C 
ATOM      7  O   UNL     1       1.914   4.279  -8.736  0.00  0.00    -0.296 OA
ATOM      8  C   UNL     1       1.622   6.897  -6.384  0.00  0.00    +0.035 C 
ATOM      9  C   UNL     1       1.442   5.616  -5.420  0.00  0.00    +0.008 C 
ATOM     10  C   UNL     1       2.543   5.985  -4.425  0.00  0.00    +0.065 C 
ATOM     11  O   UNL     1       4.735   5.810  -5.008  0.00  0.00    -0.189 OA
ENDROOT
BRANCH   1  12
ATOM     12  C   UNL     1       4.124   7.641  -3.685  0.00  0.00    +0.312 C 
ATOM     13  F   UNL     1       3.194   8.152  -2.864  0.00  0.00    -0.199 F 
ATOM     14  F   UNL     1       5.015   8.581  -4.074  0.00  0.00    -0.199 F 
BRANCH  12  15
ATOM     15  C   UNL     1       4.873   6.705  -2.739  0.00  0.00    +0.072 C 
BRANCH  15  16
ATOM     16  C   UNL     1       4.307   6.632  -1.363  0.00  0.00    +0.006 C 
BRANCH  16  18
ATOM     17  C   UNL     1       3.646   4.862  -1.040  0.00  0.00    +0.000 C 
ATOM     18  C   UNL     1       4.075   5.138  -1.120  0.00  0.00    +0.000 C 
ENDBRANCH  16  18
ENDBRANCH  15  16
ENDBRANCH  12  15
ENDBRANCH   1  12
BRANCH   6  19
ATOM     19  C   UNL     1      -0.237   5.535  -7.063  0.00  0.00    +0.007 C 
BRANCH  19  20
ATOM     20  C   UNL     1      -1.527   5.307  -7.275  0.00  0.00    +0.000 C 
BRANCH  20  21
ATOM     21  C   UNL     1      -2.192   5.473  -5.890  0.00  0.00    +0.000 C 
BRANCH  21  22
ATOM     22  C   UNL     1      -2.197   6.831  -5.361  0.00  0.00    +0.001 C 
BRANCH  22  23
ATOM     23  C   UNL     1      -2.445   7.050  -3.913  0.00  0.00    +0.012 C 
BRANCH  23  24
ATOM     24  C   UNL     1      -1.247   6.777  -3.053  0.00  0.00    +0.114 C 
BRANCH  24  25
ATOM     25  C   UNL     1      -1.267   5.451  -2.403  0.00  0.00    +0.365 C 
ATOM     26  O   UNL     1      -2.443   4.985  -1.859  0.00  0.00    -0.246 OA
ATOM     27  O   UNL     1      -0.216   4.831  -2.143  0.00  0.00    -0.246 OA
ENDBRANCH  24  25
ENDBRANCH  23  24
ENDBRANCH  22  23
ENDBRANCH  21  22
ENDBRANCH  20  21
ENDBRANCH  19  20
ENDBRANCH   6  19
TORSDOF 11
ENDMDL
MODEL 3
REMARK VINA RESULT:      -7.9      3.441      9.609
REMARK  Name = 
REMARK  11 active torsions:
REMARK  status: ('A' for Active; 'I' for Inactive)
REMARK    1  A    between atoms: C_2  and  C_3
REMARK    2  A    between atoms: C_3  and  C_4
REMARK    3  A    between atoms: C_4  and  C_5
REMARK    4  A    between atoms: C_5  and  C_8
REMARK    5  A    between atoms: C_17  and  C_18
REMARK    6  A    between atoms: C_18  and  C_19
REMARK    7  A    between atoms: C_19  and  C_20
REMARK    8  A    between atoms: C_20  and  C_21
REMARK    9  A    between atoms: C_21  and  C_22
REMARK   10  A    between atoms: C_22  and  C_23
REMARK   11  A    between atoms: C_23  and  C_24
REMARK                            x       y       z     vdW  Elec       q    Type
REMARK                         _______ _______ _______ _____ _____    ______ ____
ROOT
ATOM      1  C   UNL     1       4.680   6.083 -10.655  0.00  0.00    +0.275 C 
ATOM      2  O   UNL     1       3.618   6.864 -11.182  0.00  0.00    -0.330 OA
ATOM      3  C   UNL     1       2.672   5.742 -10.822  0.00  0.00    +0.126 C 
ATOM      4  C   UNL     1       1.252   6.279 -11.415  0.00  0.00    +0.094 C 
ATOM      5  C   UNL     1       0.755   5.228 -10.423  0.00  0.00    +0.153 C 
ATOM      6  C   UNL     1       0.818   6.243  -9.189  0.00  0.00    +0.060 C 
ATOM      7  O   UNL     1       0.026   4.309 -10.579  0.00  0.00    -0.296 OA
ATOM      8  C   UNL     1       2.485   6.502  -9.307  0.00  0.00    +0.035 C 
ATOM      9  C   UNL     1       3.094   5.081  -8.846  0.00  0.00    +0.008 C 
ATOM     10  C   UNL     1       4.472   5.264  -9.480  0.00  0.00    +0.065 C 
ATOM     11  O   UNL     1       4.731   5.157 -11.738  0.00  0.00    -0.189 OA
ENDROOT
BRANCH   1  12
ATOM     12  C   UNL     1       6.004   6.750 -10.591  0.00  0.00    +0.312 C 
ATOM     13  F   UNL     1       6.795   6.537  -9.528  0.00  0.00    -0.199 F 
ATOM     14  F   UNL     1       5.934   8.065 -10.902  0.00  0.00    -0.199 F 
BRANCH  12  15
ATOM     15  C   UNL     1       6.817   6.089 -11.702  0.00  0.00    +0.072 C 
BRANCH  15  16
ATOM     16  C   UNL     1       7.996   5.312 -11.229  0.00  0.00    +0.006 C 
BRANCH  16  18
ATOM     17  C   UNL     1       9.190   5.927 -12.597  0.00  0.00    +0.000 C 
ATOM     18  C   UNL     1       9.158   5.806 -12.096  0.00  0.00    +0.000 C 
ENDBRANCH  16  18
ENDBRANCH  15  16
ENDBRANCH  12  15
ENDBRANCH   1  12
BRANCH   6  19
ATOM     19  C   UNL     1       0.952   5.298  -7.901  0.00  0.00    +0.007 C 
BRANCH  19  20
ATOM     20  C   UNL     1       0.188   5.052  -6.844  0.00  0.00    +0.000 C 
BRANCH  20  21
ATOM     21  C   UNL     1      -1.187   5.661  -7.199  0.00  0.00    +0.000 C 
BRANCH  21  22
ATOM     22  C   UNL     1      -2.216   5.512  -6.179  0.00  0.00    +0.001 C 
BRANCH  22  23
ATOM     23  C   UNL     1      -2.388   6.573  -5.153  0.00  0.00    +0.012 C 
BRANCH  23  24
ATOM     24  C   UNL     1      -1.712   6.261  -3.852  0.00  0.00    +0.114 C 
BRANCH  24  25
ATOM     25  C   UNL     1      -2.529   5.440  -2.936  0.00  0.00    +0.365 C 
ATOM     26  O   UNL     1      -3.900   5.450  -3.064  0.00  0.00    -0.246 OA
ATOM     27  O   UNL     1      -2.041   4.903  -1.921  0.00  0.00    -0.246 OA
ENDBRANCH  24  25
ENDBRANCH  23  24
ENDBRANCH  22  23
ENDBRANCH  21  22
ENDBRANCH  20  21
ENDBRANCH  19  20
ENDBRANCH   6  19
TORSDOF 11
ENDMDL
MODEL 4
REMARK VINA RESULT:      -7.8      3.445      5.952
REMARK  Name = 
REMARK  11 active torsions:
REMARK  status: ('A' for Active; 'I' for Inactive)
REMARK    1  A    between atoms: C_2  and  C_3
REMARK    2  A    between atoms: C_3  and  C_4
REMARK    3  A    between atoms: C_4  and  C_5
REMARK    4  A    between atoms: C_5  and  C_8
REMARK    5  A    between atoms: C_17  and  C_18
REMARK    6  A    between atoms: C_18  and  C_19
REMARK    7  A    between atoms: C_19  and  C_20
REMARK    8  A    between atoms: C_20  and  C_21
REMARK    9  A    between atoms: C_21  and  C_22
REMARK   10  A    between atoms: C_22  and  C_23
REMARK   11  A    between atoms: C_23  and  C_24
REMARK                            x       y       z     vdW  Elec       q    Type
REMARK                         _______ _______ _______ _____ _____    ______ ____
ROOT
ATOM      1  C   UNL     1      -0.586   5.787  -6.139  0.00  0.00    +0.275 C 
ATOM      2  O   UNL     1       0.061   4.550  -5.879  0.00  0.00    -0.330 OA
ATOM      3  C   UNL     1       1.315   5.125  -6.497  0.00  0.00    +0.126 C 
ATOM      4  C   UNL     1       2.335   3.854  -6.463  0.00  0.00    +0.094 C 
ATOM      5  C   UNL     1       3.331   5.002  -6.621  0.00  0.00    +0.153 C 
ATOM      6  C   UNL     1       3.371   5.292  -5.048  0.00  0.00    +0.060 C 
ATOM      7  O   UNL     1       4.189   5.170  -7.418  0.00  0.00    -0.296 OA
ATOM      8  C   UNL     1       1.728   5.674  -4.936  0.00  0.00    +0.035 C 
ATOM      9  C   UNL     1       1.639   7.079  -5.724  0.00  0.00    +0.008 C 
ATOM     10  C   UNL     1       0.137   7.033  -6.002  0.00  0.00    +0.065 C 
ATOM     11  O   UNL     1      -0.711   5.593  -7.546  0.00  0.00    -0.189 OA
ENDROOT
BRANCH   1  12
ATOM     12  C   UNL     1      -1.960   5.925  -5.596  0.00  0.00    +0.312 C 
ATOM     13  F   UNL     1      -2.914   5.073  -6.003  0.00  0.00    -0.199 F 
ATOM     14  F   UNL     1      -2.396   7.206  -5.617  0.00  0.00    -0.199 F 
BRANCH  12  15
ATOM     15  C   UNL     1      -1.827   5.541  -4.124  0.00  0.00    +0.072 C 
BRANCH  15  16
ATOM     16  C   UNL     1      -3.118   5.238  -3.444  0.00  0.00    +0.006 C 
BRANCH  16  18
ATOM     17  C   UNL     1      -3.145   6.772  -2.293  0.00  0.00    +0.000 C 
ATOM     18  C   UNL     1      -3.202   6.259  -2.305  0.00  0.00    +0.000 C 
ENDBRANCH  16  18
ENDBRANCH  15  16
ENDBRANCH  12  15
ENDBRANCH   1  12
BRANCH   6  19
ATOM     19  C   UNL     1       3.839   6.821  -4.936  0.00  0.00    +0.007 C 
BRANCH  19  20
ATOM     20  C   UNL     1       4.994   7.424  -4.686  0.00  0.00    +0.000 C 
BRANCH  20  21
ATOM     21  C   UNL     1       5.064   7.524  -3.145  0.00  0.00    +0.000 C 
BRANCH  21  22
ATOM     22  C   UNL     1       3.867   8.047  -2.500  0.00  0.00    +0.001 C 
BRANCH  22  23
ATOM     23  C   UNL     1       3.659   7.818  -1.048  0.00  0.00    +0.012 C 
BRANCH  23  24
ATOM     24  C   UNL     1       4.123   6.471  -0.582  0.00  0.00    +0.114 C 
BRANCH  24  25
ATOM     25  C   UNL     1       3.242   5.359  -0.994  0.00  0.00    +0.365 C 
ATOM     26  O   UNL     1       1.985   5.256  -0.442  0.00  0.00    -0.246 OA
ATOM     27  O   UNL     1       3.668   4.396  -1.662  0.00  0.00    -0.246 OA
ENDBRANCH  24  25
ENDBRANCH  23  24
ENDBRANCH  22  23
ENDBRANCH  21  22
ENDBRANCH  20  21
ENDBRANCH  19  20
ENDBRANCH   6  19
TORSDOF 11
ENDMDL
MODEL 5
REMARK VINA RESULT:      -7.8      3.658      8.210
REMARK  Name = 
REMARK  11 active torsions:
REMARK  status: ('A' for Active; 'I' for Inactive)
REMARK    1  A    between atoms: C_2  and  C_3
REMARK    2  A    between atoms: C_3  and  C_4
REMARK    3  A    between atoms: C_4  and  C_5
REMARK    4  A    between atoms: C_5  and  C_8
REMARK    5  A    between atoms: C_17  and  C_18
REMARK    6  A    between atoms: C_18  and  C_19
REMARK    7  A    between atoms: C_19  and  C_20
REMARK    8  A    between atoms: C_20  and  C_21
REMARK    9  A    between atoms: C_21  and  C_22
REMARK   10  A    between atoms: C_22  and  C_23
REMARK   11  A    between atoms: C_23  and  C_24
REMARK                            x       y       z     vdW  Elec       q    Type
REMARK                         _______ _______ _______ _____ _____    ______ ____
ROOT
ATOM      1  C   UNL     1       4.436   5.844 -10.750  0.00  0.00    +0.275 C 
ATOM      2  O   UNL     1       3.567   6.756 -11.405  0.00  0.00    -0.330 OA
ATOM      3  C   UNL     1       2.457   5.743 -11.250  0.00  0.00    +0.126 C 
ATOM      4  C   UNL     1       1.221   6.457 -12.037  0.00  0.00    +0.094 C 
ATOM      5  C   UNL     1       0.456   5.445 -11.184  0.00  0.00    +0.153 C 
ATOM      6  C   UNL     1       0.428   6.415  -9.912  0.00  0.00    +0.060 C 
ATOM      7  O   UNL     1      -0.336   4.623 -11.494  0.00  0.00    -0.296 OA
ATOM      8  C   UNL     1       2.110   6.481  -9.752  0.00  0.00    +0.035 C 
ATOM      9  C   UNL     1       2.475   4.988  -9.263  0.00  0.00    +0.008 C 
ATOM     10  C   UNL     1       3.950   5.024  -9.661  0.00  0.00    +0.065 C 
ATOM     11  O   UNL     1       4.560   4.946 -11.851  0.00  0.00    -0.189 OA
ENDROOT
BRANCH   1  12
ATOM     12  C   UNL     1       5.798   6.350 -10.447  0.00  0.00    +0.312 C 
ATOM     13  F   UNL     1       6.355   6.062  -9.261  0.00  0.00    -0.199 F 
ATOM     14  F   UNL     1       5.942   7.659 -10.759  0.00  0.00    -0.199 F 
BRANCH  12  15
ATOM     15  C   UNL     1       6.710   5.580 -11.399  0.00  0.00    +0.072 C 
BRANCH  15  16
ATOM     16  C   UNL     1       8.113   5.425 -10.923  0.00  0.00    +0.006 C 
BRANCH  16  18
ATOM     17  C   UNL     1       8.855   5.952 -12.611  0.00  0.00    +0.000 C 
ATOM     18  C   UNL     1       8.975   5.817 -12.127  0.00  0.00    +0.000 C 
ENDBRANCH  16  18
ENDBRANCH  15  16
ENDBRANCH  12  15
ENDBRANCH   1  12
BRANCH   6  19
ATOM     19  C   UNL     1       0.245   5.428  -8.663  0.00  0.00    +0.007 C 
BRANCH  19  20
ATOM     20  C   UNL     1      -0.567   5.397  -7.613  0.00  0.00    +0.000 C 
BRANCH  20  21
ATOM     21  C   UNL     1       0.372   5.348  -6.387  0.00  0.00    +0.000 C 
BRANCH  21  22
ATOM     22  C   UNL     1       0.870   6.640  -5.932  0.00  0.00    +0.001 C 
BRANCH  22  23
ATOM     23  C   UNL     1       2.299   6.987  -6.140  0.00  0.00    +0.012 C 
BRANCH  23  24
ATOM     24  C   UNL     1       3.130   6.870  -4.897  0.00  0.00    +0.114 C 
BRANCH  24  25
ATOM     25  C   UNL     1       4.313   6.000  -5.049  0.00  0.00    +0.365 C 
ATOM     26  O   UNL     1       4.703   5.606  -6.309  0.00  0.00    -0.246 OA
ATOM     27  O   UNL     1       4.846   5.438  -4.070  0.00  0.00    -0.246 OA
ENDBRANCH  24  25
ENDBRANCH  23  24
ENDBRANCH  22  23
ENDBRANCH  21  22
ENDBRANCH  20  21
ENDBRANCH  19  20
ENDBRANCH   6  19
TORSDOF 11
ENDMDL
MODEL 6
REMARK VINA RESULT:      -7.8      4.017      5.804
REMARK  Name = 
REMARK  11 active torsions:
REMARK  status: ('A' for Active; 'I' for Inactive)
REMARK    1  A    between atoms: C_2  and  C_3
REMARK    2  A    between atoms: C_3  and  C_4
REMARK    3  A    between atoms: C_4  and  C_5
REMARK    4  A    between atoms: C_5  and  C_8
REMARK    5  A    between atoms: C_17  and  C_18
REMARK    6  A    between atoms: C_18  and  C_19
REMARK    7  A    between atoms: C_19  and  C_20
REMARK    8  A    between atoms: C_20  and  C_21
REMARK    9  A    between atoms: C_21  and  C_22
REMARK   10  A    between atoms: C_22  and  C_23
REMARK   11  A    between atoms: C_23  and  C_24
REMARK                            x       y       z     vdW  Elec       q    Type
REMARK                         _______ _______ _______ _____ _____    ______ ____
ROOT
ATOM      1  C   UNL     1      -2.106   6.722  -4.443  0.00  0.00    +0.275 C 
ATOM      2  O   UNL     1      -2.061   5.440  -5.052  0.00  0.00    -0.330 OA
ATOM      3  C   UNL     1      -1.191   6.033  -6.136  0.00  0.00    +0.126 C 
ATOM      4  C   UNL     1      -1.002   4.777  -7.157  0.00  0.00    +0.094 C 
ATOM      5  C   UNL     1       0.172   5.658  -7.585  0.00  0.00    +0.153 C 
ATOM      6  C   UNL     1       1.127   5.087  -6.436  0.00  0.00    +0.060 C 
ATOM      7  O   UNL     1       0.476   6.067  -8.653  0.00  0.00    -0.296 OA
ATOM      8  C   UNL     1       0.149   5.624  -5.164  0.00  0.00    +0.035 C 
ATOM      9  C   UNL     1       0.324   7.226  -5.240  0.00  0.00    +0.008 C 
ATOM     10  C   UNL     1      -0.941   7.581  -4.458  0.00  0.00    +0.065 C 
ATOM     11  O   UNL     1      -2.996   7.303  -5.394  0.00  0.00    -0.189 OA
ENDROOT
BRANCH   1  12
ATOM     12  C   UNL     1      -2.778   6.788  -3.122  0.00  0.00    +0.312 C 
ATOM     13  F   UNL     1      -4.110   6.636  -3.057  0.00  0.00    -0.199 F 
ATOM     14  F   UNL     1      -2.362   7.843  -2.384  0.00  0.00    -0.199 F 
BRANCH  12  15
ATOM     15  C   UNL     1      -2.300   5.536  -2.389  0.00  0.00    +0.072 C 
BRANCH  15  16
ATOM     16  C   UNL     1      -1.649   5.798  -1.075  0.00  0.00    +0.006 C 
BRANCH  16  18
ATOM     17  C   UNL     1       0.236   5.671  -1.398  0.00  0.00    +0.000 C 
ATOM     18  C   UNL     1      -0.186   5.397  -1.282  0.00  0.00    +0.000 C 
ENDBRANCH  16  18
ENDBRANCH  15  16
ENDBRANCH  12  15
ENDBRANCH   1  12
BRANCH   6  19
ATOM     19  C   UNL     1       2.220   6.238  -6.217  0.00  0.00    +0.007 C 
BRANCH  19  20
ATOM     20  C   UNL     1       3.538   6.307  -6.355  0.00  0.00    +0.000 C 
BRANCH  20  21
ATOM     21  C   UNL     1       4.023   7.124  -5.135  0.00  0.00    +0.000 C 
BRANCH  21  22
ATOM     22  C   UNL     1       4.998   6.454  -4.285  0.00  0.00    +0.001 C 
BRANCH  22  23
ATOM     23  C   UNL     1       4.694   5.102  -3.749  0.00  0.00    +0.012 C 
BRANCH  23  24
ATOM     24  C   UNL     1       3.533   5.082  -2.801  0.00  0.00    +0.114 C 
BRANCH  24  25
ATOM     25  C   UNL     1       3.922   4.959  -1.381  0.00  0.00    +0.365 C 
ATOM     26  O   UNL     1       3.525   3.850  -0.668  0.00  0.00    -0.246 OA
ATOM     27  O   UNL     1       4.414   5.915  -0.749  0.00  0.00    -0.246 OA
ENDBRANCH  24  25
ENDBRANCH  23  24
ENDBRANCH  22  23
ENDBRANCH  21  22
ENDBRANCH  20  21
ENDBRANCH  19  20
ENDBRANCH   6  19
TORSDOF 11
ENDMDL
MODEL 7
REMARK VINA RESULT:      -7.5      3.248      8.705
REMARK  Name = 
REMARK  11 active torsions:
REMARK  status: ('A' for Active; 'I' for Inactive)
REMARK    1  A    between atoms: C_2  and  C_3
REMARK    2  A    between atoms: C_3  and  C_4
REMARK    3  A    between atoms: C_4  and  C_5
REMARK    4  A    between atoms: C_5  and  C_8
REMARK    5  A    between atoms: C_17  and  C_18
REMARK    6  A    between atoms: C_18  and  C_19
REMARK    7  A    between atoms: C_19  and  C_20
REMARK    8  A    between atoms: C_20  and  C_21
REMARK    9  A    between atoms: C_21  and  C_22
REMARK   10  A    between atoms: C_22  and  C_23
REMARK   11  A    between atoms: C_23  and  C_24
REMARK                            x       y       z     vdW  Elec       q    Type
REMARK                         _______ _______ _______ _____ _____    ______ ____
ROOT
ATOM      1  C   UNL     1       3.587   5.986  -6.949  0.00  0.00    +0.275 C 
ATOM      2  O   UNL     1       4.797   6.498  -6.411  0.00  0.00    -0.330 OA
ATOM      3  C   UNL     1       4.016   6.955  -5.201  0.00  0.00    +0.126 C 
ATOM      4  C   UNL     1       5.148   7.740  -4.331  0.00  0.00    +0.094 C 
ATOM      5  C   UNL     1       4.104   7.476  -3.247  0.00  0.00    +0.153 C 
ATOM      6  C   UNL     1       4.658   6.004  -2.956  0.00  0.00    +0.060 C 
ATOM      7  O   UNL     1       3.572   8.219  -2.496  0.00  0.00    -0.296 OA
ATOM      8  C   UNL     1       4.351   5.429  -4.516  0.00  0.00    +0.035 C 
ATOM      9  C   UNL     1       2.738   5.381  -4.561  0.00  0.00    +0.008 C 
ATOM     10  C   UNL     1       2.602   5.376  -6.083  0.00  0.00    +0.065 C 
ATOM     11  O   UNL     1       3.033   7.255  -7.290  0.00  0.00    -0.189 OA
ENDROOT
BRANCH   1  12
ATOM     12  C   UNL     1       3.715   5.215  -8.211  0.00  0.00    +0.312 C 
ATOM     13  F   UNL     1       3.309   5.772  -9.362  0.00  0.00    -0.199 F 
ATOM     14  F   UNL     1       3.264   3.946  -8.086  0.00  0.00    -0.199 F 
BRANCH  12  15
ATOM     15  C   UNL     1       5.220   5.115  -8.444  0.00  0.00    +0.072 C 
BRANCH  15  16
ATOM     16  C   UNL     1       5.686   5.688  -9.738  0.00  0.00    +0.006 C 
BRANCH  16  18
ATOM     17  C   UNL     1       7.550   6.133  -9.671  0.00  0.00    +0.000 C 
ATOM     18  C   UNL     1       7.211   5.749  -9.606  0.00  0.00    +0.000 C 
ENDBRANCH  16  18
ENDBRANCH  15  16
ENDBRANCH  12  15
ENDBRANCH   1  12
BRANCH   6  19
ATOM     19  C   UNL     1       3.411   5.228  -2.314  0.00  0.00    +0.007 C 
BRANCH  19  20
ATOM     20  C   UNL     1       3.224   4.528  -1.201  0.00  0.00    +0.000 C 
BRANCH  20  21
ATOM     21  C   UNL     1       1.708   4.630  -0.920  0.00  0.00    +0.000 C 
BRANCH  21  22
ATOM     22  C   UNL     1       1.075   5.868  -1.356  0.00  0.00    +0.001 C 
BRANCH  22  23
ATOM     23  C   UNL     1      -0.369   5.868  -1.703  0.00  0.00    +0.012 C 
BRANCH  23  24
ATOM     24  C   UNL     1      -0.636   5.565  -3.147  0.00  0.00    +0.114 C 
BRANCH  24  25
ATOM     25  C   UNL     1      -2.070   5.421  -3.472  0.00  0.00    +0.365 C 
ATOM     26  O   UNL     1      -2.878   4.679  -2.640  0.00  0.00    -0.246 OA
ATOM     27  O   UNL     1      -2.531   5.768  -4.578  0.00  0.00    -0.246 OA
ENDBRANCH  24  25
ENDBRANCH  23  24
ENDBRANCH  22  23
ENDBRANCH  21  22
ENDBRANCH  20  21
ENDBRANCH  19  20
ENDBRANCH   6  19
TORSDOF 11
ENDMDL
MODEL 8
REMARK VINA RESULT:      -7.5      2.911      3.719
REMARK  Name = 
REMARK  11 active torsions:
REMARK  status: ('A' for Active; 'I' for Inactive)
REMARK    1  A    between atoms: C_2  and  C_3
REMARK    2  A    between atoms: C_3  and  C_4
REMARK    3  A    between atoms: C_4  and  C_5
REMARK    4  A    between atoms: C_5  and  C_8
REMARK    5  A    between atoms: C_17  and  C_18
REMARK    6  A    between atoms: C_18  and  C_19
REMARK    7  A    between atoms: C_19  and  C_20
REMARK    8  A    between atoms: C_20  and  C_21
REMARK    9  A    between atoms: C_21  and  C_22
REMARK   10  A    between atoms: C_22  and  C_23
REMARK   11  A    between atoms: C_23  and  C_24
REMARK                            x       y       z     vdW  Elec       q    Type
REMARK                         _______ _______ _______ _____ _____    ______ ____
ROOT
ATOM      1  C   UNL     1      -0.118   5.776  -4.679  0.00  0.00    +0.275 C 
ATOM      2  O   UNL     1       0.596   6.936  -4.278  0.00  0.00    -0.330 OA
ATOM      3  C   UNL     1       1.861   6.109  -4.288  0.00  0.00    +0.126 C 
ATOM      4  C   UNL     1       2.973   7.166  -3.739  0.00  0.00    +0.094 C 
ATOM      5  C   UNL     1       3.881   6.137  -4.411  0.00  0.00    +0.153 C 
ATOM      6  C   UNL     1       3.711   6.805  -5.853  0.00  0.00    +0.060 C 
ATOM      7  O   UNL     1       4.810   5.540  -3.986  0.00  0.00    -0.296 OA
ATOM      8  C   UNL     1       2.039   6.560  -5.923  0.00  0.00    +0.035 C 
ATOM      9  C   UNL     1       1.926   4.957  -6.073  0.00  0.00    +0.008 C 
ATOM     10  C   UNL     1       0.477   4.835  -5.604  0.00  0.00    +0.065 C 
ATOM     11  O   UNL     1      -0.058   5.124  -3.412  0.00  0.00    -0.189 OA
ENDROOT
BRANCH   1  12
ATOM     12  C   UNL     1      -1.553   5.976  -4.998  0.00  0.00    +0.312 C 
ATOM     13  F   UNL     1      -2.128   5.212  -5.939  0.00  0.00    -0.199 F 
ATOM     14  F   UNL     1      -1.867   7.282  -5.158  0.00  0.00    -0.199 F 
BRANCH  12  15
ATOM     15  C   UNL     1      -2.289   5.508  -3.744  0.00  0.00    +0.072 C 
BRANCH  15  16
ATOM     16  C   UNL     1      -3.263   6.492  -3.194  0.00  0.00    +0.006 C 
BRANCH  16  18
ATOM     17  C   UNL     1      -2.496   6.833  -1.470  0.00  0.00    +0.000 C 
ATOM     18  C   UNL     1      -2.587   7.041  -1.934  0.00  0.00    +0.000 C 
ENDBRANCH  16  18
ENDBRANCH  15  16
ENDBRANCH  12  15
ENDBRANCH   1  12
BRANCH   6  19
ATOM     19  C   UNL     1       4.031   5.620  -6.883  0.00  0.00    +0.007 C 
BRANCH  19  20
ATOM     20  C   UNL     1       4.912   5.451  -7.861  0.00  0.00    +0.000 C 
BRANCH  20  21
ATOM     21  C   UNL     1       4.121   5.728  -9.160  0.00  0.00    +0.000 C 
BRANCH  21  22
ATOM     22  C   UNL     1       3.184   4.685  -9.553  0.00  0.00    +0.001 C 
BRANCH  22  23
ATOM     23  C   UNL     1       1.746   5.018  -9.718  0.00  0.00    +0.012 C 
BRANCH  23  24
ATOM     24  C   UNL     1       1.498   6.466 -10.017  0.00  0.00    +0.114 C 
BRANCH  24  25
ATOM     25  C   UNL     1       0.512   6.694 -11.092  0.00  0.00    +0.365 C 
ATOM     26  O   UNL     1       0.622   5.987 -12.269  0.00  0.00    -0.246 OA
ATOM     27  O   UNL     1      -0.289   7.650 -11.058  0.00  0.00    -0.246 OA
ENDBRANCH  24  25
ENDBRANCH  23  24
ENDBRANCH  22  23
ENDBRANCH  21  22
ENDBRANCH  20  21
ENDBRANCH  19  20
ENDBRANCH   6  19
TORSDOF 11
ENDMDL
MODEL 9
REMARK VINA RESULT:      -7.4      4.344      8.270
REMARK  Name = 
REMARK  11 active torsions:
REMARK  status: ('A' for Active; 'I' for Inactive)
REMARK    1  A    between atoms: C_2  and  C_3
REMARK    2  A    between atoms: C_3  and  C_4
REMARK    3  A    between atoms: C_4  and  C_5
REMARK    4  A    between atoms: C_5  and  C_8
REMARK    5  A    between atoms: C_17  and  C_18
REMARK    6  A    between atoms: C_18  and  C_19
REMARK    7  A    between atoms: C_19  and  C_20
REMARK    8  A    between atoms: C_20  and  C_21
REMARK    9  A    between atoms: C_21  and  C_22
REMARK   10  A    between atoms: C_22  and  C_23
REMARK   11  A    between atoms: C_23  and  C_24
REMARK                            x       y       z     vdW  Elec       q    Type
REMARK                         _______ _______ _______ _____ _____    ______ ____
ROOT
ATOM      1  C   UNL     1       1.099   5.644  -5.757  0.00  0.00    +0.275 C 
ATOM      2  O   UNL     1      -0.095   6.099  -6.376  0.00  0.00    -0.330 OA
ATOM      3  C   UNL     1      -0.867   5.533  -5.206  0.00  0.00    +0.126 C 
ATOM      4  C   UNL     1      -2.413   5.801  -5.647  0.00  0.00    +0.094 C 
ATOM      5  C   UNL     1      -2.586   5.602  -4.141  0.00  0.00    +0.153 C 
ATOM      6  C   UNL     1      -2.236   7.128  -3.815  0.00  0.00    +0.060 C 
ATOM      7  O   UNL     1      -3.295   4.870  -3.540  0.00  0.00    -0.296 OA
ATOM      8  C   UNL     1      -0.672   7.051  -4.455  0.00  0.00    +0.035 C 
ATOM      9  C   UNL     1       0.092   6.102  -3.397  0.00  0.00    +0.008 C 
ATOM     10  C   UNL     1       1.243   5.699  -4.318  0.00  0.00    +0.065 C 
ATOM     11  O   UNL     1       0.894   4.262  -6.047  0.00  0.00    -0.189 OA
ENDROOT
BRANCH   1  12
ATOM     12  C   UNL     1       2.365   6.044  -6.419  0.00  0.00    +0.312 C 
ATOM     13  F   UNL     1       2.589   7.342  -6.673  0.00  0.00    -0.199 F 
ATOM     14  F   UNL     1       2.652   5.271  -7.491  0.00  0.00    -0.199 F 
BRANCH  12  15
ATOM     15  C   UNL     1       3.446   5.755  -5.379  0.00  0.00    +0.072 C 
BRANCH  15  16
ATOM     16  C   UNL     1       4.700   6.539  -5.555  0.00  0.00    +0.006 C 
BRANCH  16  18
ATOM     17  C   UNL     1       4.899   7.796  -4.121  0.00  0.00    +0.000 C 
ATOM     18  C   UNL     1       4.872   7.292  -4.233  0.00  0.00    +0.000 C 
ENDBRANCH  16  18
ENDBRANCH  15  16
ENDBRANCH  12  15
ENDBRANCH   1  12
BRANCH   6  19
ATOM     19  C   UNL     1      -1.727   7.105  -2.296  0.00  0.00    +0.007 C 
BRANCH  19  20
ATOM     20  C   UNL     1      -2.323   7.192  -1.113  0.00  0.00    +0.000 C 
BRANCH  20  21
ATOM     21  C   UNL     1      -1.384   6.444  -0.140  0.00  0.00    +0.000 C 
BRANCH  21  22
ATOM     22  C   UNL     1      -0.126   7.118   0.152  0.00  0.00    +0.001 C 
BRANCH  22  23
ATOM     23  C   UNL     1       1.156   6.401  -0.067  0.00  0.00    +0.012 C 
BRANCH  23  24
ATOM     24  C   UNL     1       2.285   7.302  -0.467  0.00  0.00    +0.114 C 
BRANCH  24  25
ATOM     25  C   UNL     1       3.588   6.615  -0.579  0.00  0.00    +0.365 C 
ATOM     26  O   UNL     1       3.641   5.246  -0.441  0.00  0.00    -0.246 OA
ATOM     27  O   UNL     1       4.665   7.244  -0.585  0.00  0.00    -0.246 OA
ENDBRANCH  24  25
ENDBRANCH  23  24
ENDBRANCH  22  23
ENDBRANCH  21  22
ENDBRANCH  20  21
ENDBRANCH  19  20
ENDBRANCH   6  19
TORSDOF 11
ENDMDL
