MODEL 1
REMARK VINA RESULT:      -9.9      0.000      0.000
REMARK  Name = 
REMARK  15 active torsions:
REMARK  status: ('A' for Active; 'I' for Inactive)
REMARK    1  A    between atoms: O_2  and  C_3
REMARK    2  A    between atoms: C_8  and  O_9
REMARK    3  A    between atoms: O_9  and  C_10
REMARK    4  A    between atoms: C_14  and  O_15
REMARK    5  A    between atoms: O_15  and  C_16
REMARK    6  A    between atoms: C_16  and  C_18
REMARK    7  A    between atoms: C_27  and  O_28
REMARK    8  A    between atoms: O_28  and  C_29
REMARK    9  A    between atoms: C_29  and  C_31
REMARK   10  A    between atoms: C_31  and  C_33
REMARK   11  A    between atoms: C_33  and  N_34
REMARK   12  A    between atoms: C_33  and  C_42
REMARK   13  A    between atoms: C_35  and  O_37
REMARK   14  A    between atoms: O_37  and  C_38
REMARK   15  A    between atoms: C_51  and  O_52
REMARK                            x       y       z     vdW  Elec       q    Type
REMARK                         _______ _______ _______ _____ _____    ______ ____
ROOT
ATOM      1  C   UNL     1      -1.861   6.901  -1.272  0.00  0.00    +0.125 C 
ATOM      2  C   UNL     1      -0.724   6.877  -2.249  0.00  0.00    +0.086 C 
ATOM      3  C   UNL     1       0.690   6.831  -1.753  0.00  0.00    +0.093 C 
ATOM      4  C   UNL     1       2.043   6.798  -2.403  0.00  0.00    +0.201 C 
ATOM      5  C   UNL     1       2.539   6.797  -3.818  0.00  0.00    +0.170 C 
ATOM      6  C   UNL     1       1.890   6.830  -5.170  0.00  0.00    +0.047 C 
ATOM      7  C   UNL     1       3.253   6.796  -5.796  0.00  0.00    +0.007 C 
ATOM      8  C   UNL     1       2.235   6.830  -6.208  0.00  0.00    +0.007 C 
ATOM      9  C   UNL     1       0.476   6.876  -5.666  0.00  0.00    -0.013 C 
ATOM     10  C   UNL     1      -0.876   6.909  -5.017  0.00  0.00    +0.190 C 
ATOM     11  C   UNL     1       1.476   6.858  -6.784  0.00  0.00    -0.010 C 
ATOM     12  C   UNL     1       1.009   6.886  -8.209  0.00  0.00    +0.029 C 
ATOM     13  C   UNL     1       2.944   6.812  -6.476  0.00  0.00    +0.189 C 
ATOM     14  C   UNL     1       3.410   6.784  -5.052  0.00  0.00    +0.082 C 
ATOM     15  O   UNL     1       4.036   6.755  -3.901  0.00  0.00    -0.222 OA
ATOM     16  C   UNL     1       0.968   6.808  -0.279  0.00  0.00    +0.191 C 
ATOM     17  C   UNL     1      -0.169   6.832   0.698  0.00  0.00    +0.157 C 
ATOM     18  O   UNL     1       0.807   6.792   1.837  0.00  0.00    -0.349 OA
ATOM     19  C   UNL     1       1.945   6.768   0.859  0.00  0.00    +0.185 C 
ATOM     20  C   UNL     1      -2.191   6.923  -2.557  0.00  0.00    +0.010 C 
ATOM     21  C   UNL     1      -1.373   6.910  -3.601  0.00  0.00    +0.183 C 
ATOM     22  O   UNL     1      -2.870   6.953  -3.518  0.00  0.00    -0.293 OA
ATOM     23  C   UNL     1      -1.584   6.878   0.202  0.00  0.00    +0.063 C 
ENDROOT
BRANCH  10  24
ATOM     24  O   UNL     1      -1.993   6.952  -6.017  0.00  0.00    -0.342 OA
ATOM     25  C   UNL     1      -2.474   5.684  -6.659  0.00  0.00    +0.175 C 
ENDBRANCH  10  24
BRANCH   1  27
ATOM     26  C   UNL     1      -3.791   5.860  -2.666  0.00  0.00    +0.174 C 
ATOM     27  O   UNL     1      -3.276   6.947  -1.769  0.00  0.00    -0.353 OA
ENDBRANCH   1  27
BRANCH  13  28
ATOM     28  O   UNL     1       3.944   6.794  -7.594  0.00  0.00    -0.446 OA
BRANCH  28  29
ATOM     29  C   UNL     1       4.458   5.486  -8.120  0.00  0.00    +0.350 C 
ATOM     30  O   UNL     1       5.785   4.963  -7.660  0.00  0.00    -0.247 OA
BRANCH  29  31
ATOM     31  C   UNL     1       3.642   4.703  -9.104  0.00  0.00    +0.274 C 
ATOM     32  O   UNL     1       3.015   3.403  -8.694  0.00  0.00    -0.209 OA
BRANCH  31  33
ATOM     33  C   UNL     1       3.454   5.217 -10.501  0.00  0.00    +0.162 C 
BRANCH  33  34
ATOM     34  C   UNL     1       2.074   5.475 -11.026  0.00  0.00    +0.001 A 
ATOM     35  C   UNL     1       0.954   4.535 -10.688  0.00  0.00    -0.003 A 
ATOM     36  C   UNL     1      -0.427   4.793 -11.213  0.00  0.00    -0.000 A 
ATOM     37  C   UNL     1      -0.689   5.992 -12.076  0.00  0.00    -0.000 A 
ATOM     38  C   UNL     1       0.430   6.932 -12.414  0.00  0.00    -0.000 A 
ATOM     39  C   UNL     1       1.811   6.673 -11.889  0.00  0.00    -0.003 A 
ENDBRANCH  33  34
BRANCH  33  40
ATOM     40  N   UNL     1       4.648   5.473 -11.372  0.00  0.00    -0.163 NA
ATOM     41  C   UNL     1       5.258   6.842 -11.425  0.00  0.00    +0.421 C 
ATOM     42  O   UNL     1       4.674   7.956 -10.607  0.00  0.00    -0.225 OA
BRANCH  41  43
ATOM     43  O   UNL     1       6.452   7.099 -12.296  0.00  0.00    -0.441 OA
BRANCH  43  44
ATOM     44  C   UNL     1       7.726   6.342 -12.066  0.00  0.00    +0.138 C 
ATOM     45  C   UNL     1       9.000   5.585 -11.835  0.00  0.00    +0.044 C 
ATOM     46  C   UNL     1       7.774   6.855 -10.657  0.00  0.00    +0.044 C 
ATOM     47  C   UNL     1       7.677   5.830 -13.475  0.00  0.00    +0.044 C 
ENDBRANCH  43  44
ENDBRANCH  41  43
ENDBRANCH  33  40
ENDBRANCH  31  33
ENDBRANCH  29  31
ENDBRANCH  28  29
ENDBRANCH  13  28
BRANCH  16  48
ATOM     48  O   UNL     1       2.319   6.775  -0.929  0.00  0.00    -0.451 OA
BRANCH  48  49
ATOM     49  C   UNL     1       3.265   5.648  -0.636  0.00  0.00    +0.317 C 
ATOM     50  O   UNL     1       4.415   5.858   0.304  0.00  0.00    -0.250 OA
ATOM     51  C   UNL     1       3.061   4.310  -1.283  0.00  0.00    +0.121 C 
ENDBRANCH  48  49
ENDBRANCH  16  48
BRANCH   4  52
ATOM     52  O   UNL     1       3.160   6.755  -1.403  0.00  0.00    -0.446 OA
BRANCH  52  53
ATOM     53  C   UNL     1       4.192   7.842  -1.384  0.00  0.00    +0.341 C 
ATOM     54  O   UNL     1       5.425   7.720  -2.230  0.00  0.00    -0.245 OA
BRANCH  53  55
ATOM     55  C   UNL     1       3.993   9.052  -0.520  0.00  0.00    +0.076 A 
ATOM     56  C   UNL     1       4.362   9.005   0.933  0.00  0.00    +0.006 A 
ATOM     57  C   UNL     1       4.163  10.215   1.797  0.00  0.00    +0.000 A 
ATOM     58  C   UNL     1       3.594  11.472   1.208  0.00  0.00    +0.000 A 
ATOM     59  C   UNL     1       3.225  11.518  -0.246  0.00  0.00    +0.000 A 
ATOM     60  C   UNL     1       3.425  10.309  -1.109  0.00  0.00    +0.006 A 
ENDBRANCH  53  55
ENDBRANCH  52  53
ENDBRANCH   4  52
TORSDOF 15
ENDMDL
MODEL 2
REMARK VINA RESULT:      -9.6      1.615      3.788
REMARK  Name = 
REMARK  15 active torsions:
REMARK  status: ('A' for Active; 'I' for Inactive)
REMARK    1  A    between atoms: O_2  and  C_3
REMARK    2  A    between atoms: C_8  and  O_9
REMARK    3  A    between atoms: O_9  and  C_10
REMARK    4  A    between atoms: C_14  and  O_15
REMARK    5  A    between atoms: O_15  and  C_16
REMARK    6  A    between atoms: C_16  and  C_18
REMARK    7  A    between atoms: C_27  and  O_28
REMARK    8  A    between atoms: O_28  and  C_29
REMARK    9  A    between atoms: C_29  and  C_31
REMARK   10  A    between atoms: C_31  and  C_33
REMARK   11  A    between atoms: C_33  and  N_34
REMARK   12  A    between atoms: C_33  and  C_42
REMARK   13  A    between atoms: C_35  and  O_37
REMARK   14  A    between atoms: O_37  and  C_38
REMARK   15  A    between atoms: C_51  and  O_52
REMARK                            x       y       z     vdW  Elec       q    Type
REMARK                         _______ _______ _______ _____ _____    ______ ____
ROOT
ATOM      1  C   UNL     1      -1.119   7.496   1.433  0.00  0.00    +0.125 C 
ATOM      2  C   UNL     1      -0.547   7.226   0.073  0.00  0.00    +0.086 C 
ATOM      3  C   UNL     1       0.939   7.159  -0.115  0.00  0.00    +0.093 C 
ATOM      4  C   UNL     1       1.851   6.918  -1.283  0.00  0.00    +0.201 C 
ATOM      5  C   UNL     1       1.653   6.645  -2.744  0.00  0.00    +0.170 C 
ATOM      6  C   UNL     1       0.463   6.500  -3.644  0.00  0.00    +0.047 C 
ATOM      7  C   UNL     1       1.395   6.262  -4.795  0.00  0.00    +0.007 C 
ATOM      8  C   UNL     1       0.300   6.301  -4.708  0.00  0.00    +0.007 C 
ATOM      9  C   UNL     1      -1.024   6.567  -3.455  0.00  0.00    -0.013 C 
ATOM     10  C   UNL     1      -1.935   6.807  -2.289  0.00  0.00    +0.190 C 
ATOM     11  C   UNL     1      -0.637   6.289  -4.878  0.00  0.00    -0.010 C 
ATOM     12  C   UNL     1      -1.700   6.113  -5.923  0.00  0.00    +0.029 C 
ATOM     13  C   UNL     1       0.811   6.187  -5.256  0.00  0.00    +0.189 C 
ATOM     14  C   UNL     1       1.872   6.363  -4.211  0.00  0.00    +0.082 C 
ATOM     15  O   UNL     1       2.951   6.479  -3.478  0.00  0.00    -0.222 OA
ATOM     16  C   UNL     1       1.854   7.362   1.056  0.00  0.00    +0.191 C 
ATOM     17  C   UNL     1       1.282   7.632   2.416  0.00  0.00    +0.157 C 
ATOM     18  O   UNL     1       2.668   7.710   2.984  0.00  0.00    -0.349 OA
ATOM     19  C   UNL     1       3.241   7.440   1.623  0.00  0.00    +0.185 C 
ATOM     20  C   UNL     1      -1.995   7.328   0.451  0.00  0.00    +0.010 C 
ATOM     21  C   UNL     1      -1.738   7.080  -0.827  0.00  0.00    +0.183 C 
ATOM     22  O   UNL     1      -3.036   7.246  -0.093  0.00  0.00    -0.293 OA
ATOM     23  C   UNL     1      -0.205   7.699   2.605  0.00  0.00    +0.063 C 
ENDROOT
BRANCH  10  24
ATOM     24  O   UNL     1      -3.384   6.764  -2.674  0.00  0.00    -0.342 OA
ATOM     25  C   UNL     1      -3.947   5.546  -3.345  0.00  0.00    +0.175 C 
ENDBRANCH  10  24
BRANCH   1  27
ATOM     26  C   UNL     1      -3.226   8.764   2.273  0.00  0.00    +0.174 C 
ATOM     27  O   UNL     1      -2.606   7.563   1.621  0.00  0.00    -0.353 OA
ENDBRANCH   1  27
BRANCH  13  28
ATOM     28  O   UNL     1       1.197   5.909  -6.678  0.00  0.00    -0.446 OA
BRANCH  28  29
ATOM     29  C   UNL     1       2.286   4.922  -6.981  0.00  0.00    +0.350 C 
ATOM     30  O   UNL     1       2.059   3.460  -6.744  0.00  0.00    -0.247 OA
BRANCH  29  31
ATOM     31  C   UNL     1       3.601   5.400  -7.520  0.00  0.00    +0.274 C 
ATOM     32  O   UNL     1       4.728   5.716  -6.581  0.00  0.00    -0.209 OA
BRANCH  31  33
ATOM     33  C   UNL     1       3.792   5.563  -8.999  0.00  0.00    +0.162 C 
BRANCH  33  34
ATOM     34  C   UNL     1       5.109   6.031  -9.540  0.00  0.00    +0.001 A 
ATOM     35  C   UNL     1       5.155   7.150 -10.537  0.00  0.00    -0.003 A 
ATOM     36  C   UNL     1       6.474   7.619 -11.078  0.00  0.00    -0.000 A 
ATOM     37  C   UNL     1       7.746   6.968 -10.622  0.00  0.00    -0.000 A 
ATOM     38  C   UNL     1       7.699   5.848  -9.625  0.00  0.00    -0.000 A 
ATOM     39  C   UNL     1       6.381   5.380  -9.084  0.00  0.00    -0.003 A 
ENDBRANCH  33  34
BRANCH  33  40
ATOM     40  N   UNL     1       2.662   5.256  -9.938  0.00  0.00    -0.163 NA
ATOM     41  C   UNL     1       1.550   6.247 -10.122  0.00  0.00    +0.421 C 
ATOM     42  O   UNL     1       1.568   7.543  -9.367  0.00  0.00    -0.225 OA
BRANCH  41  43
ATOM     43  O   UNL     1       0.420   5.941 -11.060  0.00  0.00    -0.441 OA
BRANCH  43  44
ATOM     44  C   UNL     1       0.317   6.663 -12.371  0.00  0.00    +0.138 C 
ATOM     45  C   UNL     1       0.214   7.385 -13.682  0.00  0.00    +0.044 C 
ATOM     46  C   UNL     1       1.278   5.687 -12.982  0.00  0.00    +0.044 C 
ATOM     47  C   UNL     1      -0.643   7.638 -11.758  0.00  0.00    +0.044 C 
ENDBRANCH  43  44
ENDBRANCH  41  43
ENDBRANCH  33  40
ENDBRANCH  31  33
ENDBRANCH  29  31
ENDBRANCH  28  29
ENDBRANCH  13  28
BRANCH  16  48
ATOM     48  O   UNL     1       2.765   7.122  -0.111  0.00  0.00    -0.451 OA
BRANCH  48  49
ATOM     49  C   UNL     1       3.795   6.033  -0.046  0.00  0.00    +0.317 C 
ATOM     50  O   UNL     1       5.020   6.207   0.803  0.00  0.00    -0.250 OA
ATOM     51  C   UNL     1       3.601   4.769  -0.830  0.00  0.00    +0.121 C 
ENDBRANCH  48  49
ENDBRANCH  16  48
BRANCH   4  52
ATOM     52  O   UNL     1       3.300   6.961  -0.897  0.00  0.00    -0.446 OA
BRANCH  52  53
ATOM     53  C   UNL     1       4.161   8.106  -1.341  0.00  0.00    +0.341 C 
ATOM     54  O   UNL     1       5.057   7.951  -2.534  0.00  0.00    -0.245 OA
BRANCH  53  55
ATOM     55  C   UNL     1       4.126   9.405  -0.593  0.00  0.00    +0.076 A 
ATOM     56  C   UNL     1       4.856   9.539   0.711  0.00  0.00    +0.006 A 
ATOM     57  C   UNL     1       4.821  10.839   1.459  0.00  0.00    +0.000 A 
ATOM     58  C   UNL     1       4.057  12.004   0.903  0.00  0.00    +0.000 A 
ATOM     59  C   UNL     1       3.327  11.869  -0.401  0.00  0.00    +0.000 A 
ATOM     60  C   UNL     1       3.363  10.570  -1.148  0.00  0.00    +0.006 A 
ENDBRANCH  53  55
ENDBRANCH  52  53
ENDBRANCH   4  52
TORSDOF 15
ENDMDL
MODEL 3
REMARK VINA RESULT:      -9.5      1.452      3.456
REMARK  Name = 
REMARK  15 active torsions:
REMARK  status: ('A' for Active; 'I' for Inactive)
REMARK    1  A    between atoms: O_2  and  C_3
REMARK    2  A    between atoms: C_8  and  O_9
REMARK    3  A    between atoms: O_9  and  C_10
REMARK    4  A    between atoms: C_14  and  O_15
REMARK    5  A    between atoms: O_15  and  C_16
REMARK    6  A    between atoms: C_16  and  C_18
REMARK    7  A    between atoms: C_27  and  O_28
REMARK    8  A    between atoms: O_28  and  C_29
REMARK    9  A    between atoms: C_29  and  C_31
REMARK   10  A    between atoms: C_31  and  C_33
REMARK   11  A    between atoms: C_33  and  N_34
REMARK   12  A    between atoms: C_33  and  C_42
REMARK   13  A    between atoms: C_35  and  O_37
REMARK   14  A    between atoms: O_37  and  C_38
REMARK   15  A    between atoms: C_51  and  O_52
REMARK                            x       y       z     vdW  Elec       q    Type
REMARK                         _______ _______ _______ _____ _____    ______ ____
ROOT
ATOM      1  C   UNL     1      -1.795   7.107  -1.561  0.00  0.00    +0.125 C 
ATOM      2  C   UNL     1      -0.777   6.633  -2.555  0.00  0.00    +0.086 C 
ATOM      3  C   UNL     1       0.636   6.383  -2.119  0.00  0.00    +0.093 C 
ATOM      4  C   UNL     1       1.890   5.920  -2.800  0.00  0.00    +0.201 C 
ATOM      5  C   UNL     1       2.250   5.517  -4.199  0.00  0.00    +0.170 C 
ATOM      6  C   UNL     1       1.506   5.409  -5.496  0.00  0.00    +0.047 C 
ATOM      7  C   UNL     1       2.773   4.948  -6.155  0.00  0.00    +0.007 C 
ATOM      8  C   UNL     1       1.751   5.118  -6.522  0.00  0.00    +0.007 C 
ATOM      9  C   UNL     1       0.093   5.659  -5.932  0.00  0.00    -0.013 C 
ATOM     10  C   UNL     1      -1.161   6.121  -5.251  0.00  0.00    +0.190 C 
ATOM     11  C   UNL     1       0.967   5.190  -7.058  0.00  0.00    -0.010 C 
ATOM     12  C   UNL     1       0.392   5.023  -8.433  0.00  0.00    +0.029 C 
ATOM     13  C   UNL     1       2.415   4.890  -6.808  0.00  0.00    +0.189 C 
ATOM     14  C   UNL     1       2.989   5.057  -5.433  0.00  0.00    +0.082 C 
ATOM     15  O   UNL     1       3.694   5.131  -4.331  0.00  0.00    -0.222 OA
ATOM     16  C   UNL     1       1.030   6.607  -0.689  0.00  0.00    +0.191 C 
ATOM     17  C   UNL     1       0.012   7.081   0.304  0.00  0.00    +0.157 C 
ATOM     18  O   UNL     1       1.056   7.067   1.382  0.00  0.00    -0.349 OA
ATOM     19  C   UNL     1       2.075   6.592   0.388  0.00  0.00    +0.185 C 
ATOM     20  C   UNL     1      -2.225   6.934  -2.805  0.00  0.00    +0.010 C 
ATOM     21  C   UNL     1      -1.522   6.525  -3.852  0.00  0.00    +0.183 C 
ATOM     22  O   UNL     1      -2.965   6.910  -3.720  0.00  0.00    -0.293 OA
ATOM     23  C   UNL     1      -1.401   7.332  -0.131  0.00  0.00    +0.063 C 
ENDROOT
BRANCH  10  24
ATOM     24  O   UNL     1      -2.329   6.198  -6.190  0.00  0.00    -0.342 OA
ATOM     25  C   UNL     1      -3.270   5.036  -6.314  0.00  0.00    +0.175 C 
ENDBRANCH  10  24
BRANCH   1  27
ATOM     26  C   UNL     1      -4.036   6.230  -2.542  0.00  0.00    +0.174 C 
ATOM     27  O   UNL     1      -3.209   7.357  -1.998  0.00  0.00    -0.353 OA
ENDBRANCH   1  27
BRANCH  13  28
ATOM     28  O   UNL     1       3.289   4.421  -7.934  0.00  0.00    -0.446 OA
BRANCH  28  29
ATOM     29  C   UNL     1       4.302   5.351  -8.534  0.00  0.00    +0.350 C 
ATOM     30  O   UNL     1       5.760   5.160  -8.241  0.00  0.00    -0.247 OA
BRANCH  29  31
ATOM     31  C   UNL     1       3.856   6.470  -9.426  0.00  0.00    +0.274 C 
ATOM     32  O   UNL     1       3.049   7.603  -8.863  0.00  0.00    -0.209 OA
BRANCH  31  33
ATOM     33  C   UNL     1       4.217   6.459 -10.882  0.00  0.00    +0.162 C 
BRANCH  33  34
ATOM     34  C   UNL     1       5.646   6.285 -11.300  0.00  0.00    +0.001 A 
ATOM     35  C   UNL     1       5.992   5.339 -12.412  0.00  0.00    -0.003 A 
ATOM     36  C   UNL     1       7.421   5.165 -12.832  0.00  0.00    -0.000 A 
ATOM     37  C   UNL     1       8.505   5.937 -12.140  0.00  0.00    -0.000 A 
ATOM     38  C   UNL     1       8.159   6.883 -11.028  0.00  0.00    -0.000 A 
ATOM     39  C   UNL     1       6.729   7.057 -10.609  0.00  0.00    -0.003 A 
ENDBRANCH  33  34
BRANCH  33  40
ATOM     40  N   UNL     1       3.146   6.622 -11.920  0.00  0.00    -0.163 NA
ATOM     41  C   UNL     1       1.984   5.673 -11.953  0.00  0.00    +0.421 C 
ATOM     42  O   UNL     1       1.894   4.562 -10.950  0.00  0.00    -0.225 OA
BRANCH  41  43
ATOM     43  O   UNL     1       0.913   5.835 -12.991  0.00  0.00    -0.441 OA
BRANCH  43  44
ATOM     44  C   UNL     1       0.684   7.172 -13.632  0.00  0.00    +0.138 C 
ATOM     45  C   UNL     1       0.456   8.509 -14.273  0.00  0.00    +0.044 C 
ATOM     46  C   UNL     1      -0.048   7.633 -12.406  0.00  0.00    +0.044 C 
ATOM     47  C   UNL     1       1.416   6.710 -14.857  0.00  0.00    +0.044 C 
ENDBRANCH  43  44
ENDBRANCH  41  43
ENDBRANCH  33  40
ENDBRANCH  31  33
ENDBRANCH  29  31
ENDBRANCH  28  29
ENDBRANCH  13  28
BRANCH  16  48
ATOM     48  O   UNL     1       2.284   6.145  -1.370  0.00  0.00    -0.451 OA
BRANCH  48  49
ATOM     49  C   UNL     1       2.861   4.798  -1.047  0.00  0.00    +0.317 C 
ATOM     50  O   UNL     1       1.952   3.659  -0.691  0.00  0.00    -0.250 OA
ATOM     51  C   UNL     1       4.346   4.590  -1.080  0.00  0.00    +0.121 C 
ENDBRANCH  48  49
ENDBRANCH  16  48
BRANCH   4  52
ATOM     52  O   UNL     1       3.058   5.844  -1.862  0.00  0.00    -0.446 OA
BRANCH  52  53
ATOM     53  C   UNL     1       4.139   6.881  -1.922  0.00  0.00    +0.341 C 
ATOM     54  O   UNL     1       5.177   6.820  -3.003  0.00  0.00    -0.245 OA
BRANCH  53  55
ATOM     55  C   UNL     1       4.182   7.981  -0.903  0.00  0.00    +0.076 A 
ATOM     56  C   UNL     1       3.578   9.318  -1.216  0.00  0.00    +0.006 A 
ATOM     57  C   UNL     1       3.621  10.417  -0.197  0.00  0.00    +0.000 A 
ATOM     58  C   UNL     1       4.267  10.180   1.136  0.00  0.00    +0.000 A 
ATOM     59  C   UNL     1       4.871   8.842   1.449  0.00  0.00    +0.000 A 
ATOM     60  C   UNL     1       4.828   7.744   0.429  0.00  0.00    +0.006 A 
ENDBRANCH  53  55
ENDBRANCH  52  53
ENDBRANCH   4  52
TORSDOF 15
ENDMDL
MODEL 4
REMARK VINA RESULT:      -9.4      1.286      2.272
REMARK  Name = 
REMARK  15 active torsions:
REMARK  status: ('A' for Active; 'I' for Inactive)
REMARK    1  A    between atoms: O_2  and  C_3
REMARK    2  A    between atoms: C_8  and  O_9
REMARK    3  A    between atoms: O_9  and  C_10
REMARK    4  A    between atoms: C_14  and  O_15
REMARK    5  A    between atoms: O_15  and  C_16
REMARK    6  A    between atoms: C_16  and  C_18
REMARK    7  A    between atoms: C_27  and  O_28
REMARK    8  A    between atoms: O_28  and  C_29
REMARK    9  A    between atoms: C_29  and  C_31
REMARK   10  A    between atoms: C_31  and  C_33
REMARK   11  A    between atoms: C_33  and  N_34
REMARK   12  A    between atoms: C_33  and  C_42
REMARK   13  A    between atoms: C_35  and  O_37
REMARK   14  A    between atoms: O_37  and  C_38
REMARK   15  A    between atoms: C_51  and  O_52
REMARK                            x       y       z     vdW  Elec       q    Type
REMARK                         _______ _______ _______ _____ _____    ______ ____
ROOT
ATOM      1  C   UNL     1      -1.060   7.401   1.424  0.00  0.00    +0.125 C 
ATOM      2  C   UNL     1      -0.535   7.190   0.035  0.00  0.00    +0.086 C 
ATOM      3  C   UNL     1       0.943   7.116  -0.204  0.00  0.00    +0.093 C 
ATOM      4  C   UNL     1       1.815   6.922  -1.410  0.00  0.00    +0.201 C 
ATOM      5  C   UNL     1       1.567   6.722  -2.876  0.00  0.00    +0.170 C 
ATOM      6  C   UNL     1       0.347   6.632  -3.743  0.00  0.00    +0.047 C 
ATOM      7  C   UNL     1       1.239   6.440  -4.934  0.00  0.00    +0.007 C 
ATOM      8  C   UNL     1       0.148   6.487  -4.809  0.00  0.00    +0.007 C 
ATOM      9  C   UNL     1      -1.132   6.706  -3.504  0.00  0.00    -0.013 C 
ATOM     10  C   UNL     1      -2.002   6.900  -2.298  0.00  0.00    +0.190 C 
ATOM     11  C   UNL     1      -0.794   6.493  -4.950  0.00  0.00    -0.010 C 
ATOM     12  C   UNL     1      -1.891   6.379  -5.966  0.00  0.00    +0.029 C 
ATOM     13  C   UNL     1       0.640   6.393  -5.378  0.00  0.00    +0.189 C 
ATOM     14  C   UNL     1       1.736   6.507  -4.361  0.00  0.00    +0.082 C 
ATOM     15  O   UNL     1       2.839   6.576  -3.658  0.00  0.00    -0.222 OA
ATOM     16  C   UNL     1       1.897   7.252   0.945  0.00  0.00    +0.191 C 
ATOM     17  C   UNL     1       1.373   7.463   2.334  0.00  0.00    +0.157 C 
ATOM     18  O   UNL     1       2.777   7.499   2.860  0.00  0.00    -0.349 OA
ATOM     19  C   UNL     1       3.302   7.288   1.471  0.00  0.00    +0.185 C 
ATOM     20  C   UNL     1      -1.969   7.290   0.464  0.00  0.00    +0.010 C 
ATOM     21  C   UNL     1      -1.755   7.101  -0.832  0.00  0.00    +0.183 C 
ATOM     22  O   UNL     1      -3.027   7.246  -0.049  0.00  0.00    -0.293 OA
ATOM     23  C   UNL     1      -0.106   7.537   2.575  0.00  0.00    +0.063 C 
ENDROOT
BRANCH  10  24
ATOM     24  O   UNL     1      -3.464   6.892  -2.638  0.00  0.00    -0.342 OA
ATOM     25  C   UNL     1      -4.083   5.675  -3.258  0.00  0.00    +0.175 C 
ENDBRANCH  10  24
BRANCH   1  27
ATOM     26  C   UNL     1      -3.140   8.712   2.263  0.00  0.00    +0.174 C 
ATOM     27  O   UNL     1      -2.539   7.475   1.663  0.00  0.00    -0.353 OA
ENDBRANCH   1  27
BRANCH  13  28
ATOM     28  O   UNL     1       0.977   6.180  -6.824  0.00  0.00    -0.446 OA
BRANCH  28  29
ATOM     29  C   UNL     1       2.149   6.891  -7.434  0.00  0.00    +0.350 C 
ATOM     30  O   UNL     1       2.102   8.376  -7.635  0.00  0.00    -0.247 OA
BRANCH  29  31
ATOM     31  C   UNL     1       3.366   6.117  -7.842  0.00  0.00    +0.274 C 
ATOM     32  O   UNL     1       4.470   5.879  -6.854  0.00  0.00    -0.209 OA
BRANCH  31  33
ATOM     33  C   UNL     1       3.481   5.579  -9.238  0.00  0.00    +0.162 C 
BRANCH  33  34
ATOM     34  C   UNL     1       2.264   5.479 -10.106  0.00  0.00    +0.001 A 
ATOM     35  C   UNL     1       1.240   4.415  -9.842  0.00  0.00    -0.003 A 
ATOM     36  C   UNL     1       0.021   4.313 -10.711  0.00  0.00    -0.000 A 
ATOM     37  C   UNL     1      -0.174   5.276 -11.845  0.00  0.00    -0.000 A 
ATOM     38  C   UNL     1       0.851   6.340 -12.109  0.00  0.00    -0.000 A 
ATOM     39  C   UNL     1       2.069   6.441 -11.240  0.00  0.00    -0.003 A 
ENDBRANCH  33  34
BRANCH  33  40
ATOM     40  N   UNL     1       4.816   5.142  -9.764  0.00  0.00    -0.163 NA
ATOM     41  C   UNL     1       5.715   6.132 -10.445  0.00  0.00    +0.421 C 
ATOM     42  O   UNL     1       5.278   7.559 -10.599  0.00  0.00    -0.225 OA
BRANCH  41  43
ATOM     43  O   UNL     1       7.050   5.696 -10.971  0.00  0.00    -0.441 OA
BRANCH  43  44
ATOM     44  C   UNL     1       7.279   5.600 -12.451  0.00  0.00    +0.138 C 
ATOM     45  C   UNL     1       7.508   5.505 -13.930  0.00  0.00    +0.044 C 
ATOM     46  C   UNL     1       5.817   5.333 -12.658  0.00  0.00    +0.044 C 
ATOM     47  C   UNL     1       8.740   5.868 -12.242  0.00  0.00    +0.044 C 
ENDBRANCH  43  44
ENDBRANCH  41  43
ENDBRANCH  33  40
ENDBRANCH  31  33
ENDBRANCH  29  31
ENDBRANCH  28  29
ENDBRANCH  13  28
BRANCH  16  48
ATOM     48  O   UNL     1       2.768   7.058  -0.260  0.00  0.00    -0.451 OA
BRANCH  48  49
ATOM     49  C   UNL     1       3.784   5.955  -0.282  0.00  0.00    +0.317 C 
ATOM     50  O   UNL     1       5.099   6.131   0.417  0.00  0.00    -0.250 OA
ATOM     51  C   UNL     1       3.485   4.674  -1.003  0.00  0.00    +0.121 C 
ENDBRANCH  48  49
ENDBRANCH  16  48
BRANCH   4  52
ATOM     52  O   UNL     1       3.276   6.930  -1.071  0.00  0.00    -0.446 OA
BRANCH  52  53
ATOM     53  C   UNL     1       4.133   8.093  -1.472  0.00  0.00    +0.341 C 
ATOM     54  O   UNL     1       5.035   7.984  -2.665  0.00  0.00    -0.245 OA
BRANCH  53  55
ATOM     55  C   UNL     1       4.088   9.366  -0.679  0.00  0.00    +0.076 A 
ATOM     56  C   UNL     1       4.801   9.455   0.637  0.00  0.00    +0.006 A 
ATOM     57  C   UNL     1       4.757  10.729   1.430  0.00  0.00    +0.000 A 
ATOM     58  C   UNL     1       3.999  11.912   0.905  0.00  0.00    +0.000 A 
ATOM     59  C   UNL     1       3.286  11.822  -0.412  0.00  0.00    +0.000 A 
ATOM     60  C   UNL     1       3.331  10.550  -1.203  0.00  0.00    +0.006 A 
ENDBRANCH  53  55
ENDBRANCH  52  53
ENDBRANCH   4  52
TORSDOF 15
ENDMDL
MODEL 5
REMARK VINA RESULT:      -9.0      1.849      4.475
REMARK  Name = 
REMARK  15 active torsions:
REMARK  status: ('A' for Active; 'I' for Inactive)
REMARK    1  A    between atoms: O_2  and  C_3
REMARK    2  A    between atoms: C_8  and  O_9
REMARK    3  A    between atoms: O_9  and  C_10
REMARK    4  A    between atoms: C_14  and  O_15
REMARK    5  A    between atoms: O_15  and  C_16
REMARK    6  A    between atoms: C_16  and  C_18
REMARK    7  A    between atoms: C_27  and  O_28
REMARK    8  A    between atoms: O_28  and  C_29
REMARK    9  A    between atoms: C_29  and  C_31
REMARK   10  A    between atoms: C_31  and  C_33
REMARK   11  A    between atoms: C_33  and  N_34
REMARK   12  A    between atoms: C_33  and  C_42
REMARK   13  A    between atoms: C_35  and  O_37
REMARK   14  A    between atoms: O_37  and  C_38
REMARK   15  A    between atoms: C_51  and  O_52
REMARK                            x       y       z     vdW  Elec       q    Type
REMARK                         _______ _______ _______ _____ _____    ______ ____
ROOT
ATOM      1  C   UNL     1      -1.189   7.511   1.729  0.00  0.00    +0.125 C 
ATOM      2  C   UNL     1      -0.711   7.334   0.318  0.00  0.00    +0.086 C 
ATOM      3  C   UNL     1       0.759   7.330   0.020  0.00  0.00    +0.093 C 
ATOM      4  C   UNL     1       1.589   7.185  -1.222  0.00  0.00    +0.201 C 
ATOM      5  C   UNL     1       1.292   6.982  -2.678  0.00  0.00    +0.170 C 
ATOM      6  C   UNL     1       0.044   6.842  -3.497  0.00  0.00    +0.047 C 
ATOM      7  C   UNL     1       0.895   6.699  -4.724  0.00  0.00    +0.007 C 
ATOM      8  C   UNL     1      -0.191   6.694  -4.555  0.00  0.00    +0.007 C 
ATOM      9  C   UNL     1      -1.426   6.846  -3.198  0.00  0.00    -0.013 C 
ATOM     10  C   UNL     1      -2.256   6.991  -1.957  0.00  0.00    +0.190 C 
ATOM     11  C   UNL     1      -1.137   6.657  -4.658  0.00  0.00    -0.010 C 
ATOM     12  C   UNL     1      -2.268   6.499  -5.631  0.00  0.00    +0.029 C 
ATOM     13  C   UNL     1       0.282   6.627  -5.144  0.00  0.00    +0.189 C 
ATOM     14  C   UNL     1       1.411   6.785  -4.171  0.00  0.00    +0.082 C 
ATOM     15  O   UNL     1       2.537   6.902  -3.512  0.00  0.00    -0.222 OA
ATOM     16  C   UNL     1       1.751   7.504   1.131  0.00  0.00    +0.191 C 
ATOM     17  C   UNL     1       1.273   7.681   2.541  0.00  0.00    +0.157 C 
ATOM     18  O   UNL     1       2.694   7.779   3.012  0.00  0.00    -0.349 OA
ATOM     19  C   UNL     1       3.172   7.602   1.601  0.00  0.00    +0.185 C 
ATOM     20  C   UNL     1      -2.130   7.364   0.804  0.00  0.00    +0.010 C 
ATOM     21  C   UNL     1      -1.960   7.194  -0.500  0.00  0.00    +0.183 C 
ATOM     22  O   UNL     1      -3.204   7.274   0.333  0.00  0.00    -0.293 OA
ATOM     23  C   UNL     1      -0.197   7.685   2.841  0.00  0.00    +0.063 C 
ENDROOT
BRANCH  10  24
ATOM     24  O   UNL     1      -3.727   6.917  -2.239  0.00  0.00    -0.342 OA
ATOM     25  C   UNL     1      -4.277   5.797  -3.072  0.00  0.00    +0.175 C 
ENDBRANCH  10  24
BRANCH   1  27
ATOM     26  C   UNL     1      -3.303   8.739   2.609  0.00  0.00    +0.174 C 
ATOM     27  O   UNL     1      -2.659   7.515   2.027  0.00  0.00    -0.353 OA
ENDBRANCH   1  27
BRANCH  13  28
ATOM     28  O   UNL     1       0.570   6.439  -6.604  0.00  0.00    -0.446 OA
BRANCH  28  29
ATOM     29  C   UNL     1       1.987   6.449  -7.096  0.00  0.00    +0.350 C 
ATOM     30  O   UNL     1       2.852   7.652  -6.864  0.00  0.00    -0.247 OA
BRANCH  29  31
ATOM     31  C   UNL     1       2.538   5.256  -7.818  0.00  0.00    +0.274 C 
ATOM     32  O   UNL     1       2.618   3.929  -7.124  0.00  0.00    -0.209 OA
BRANCH  31  33
ATOM     33  C   UNL     1       3.011   5.389  -9.236  0.00  0.00    +0.162 C 
BRANCH  33  34
ATOM     34  C   UNL     1       4.410   5.844  -9.522  0.00  0.00    +0.001 A 
ATOM     35  C   UNL     1       4.653   6.951 -10.505  0.00  0.00    -0.003 A 
ATOM     36  C   UNL     1       6.053   7.406 -10.791  0.00  0.00    -0.000 A 
ATOM     37  C   UNL     1       7.211   6.755 -10.095  0.00  0.00    -0.000 A 
ATOM     38  C   UNL     1       6.968   5.647  -9.112  0.00  0.00    -0.000 A 
ATOM     39  C   UNL     1       5.568   5.193  -8.826  0.00  0.00    -0.003 A 
ENDBRANCH  33  34
BRANCH  33  40
ATOM     40  N   UNL     1       2.081   5.067 -10.368  0.00  0.00    -0.163 NA
ATOM     41  C   UNL     1       1.004   6.037 -10.754  0.00  0.00    +0.421 C 
ATOM     42  O   UNL     1       0.856   7.330 -10.006  0.00  0.00    -0.225 OA
BRANCH  41  43
ATOM     43  O   UNL     1       0.073   5.715 -11.886  0.00  0.00    -0.441 OA
BRANCH  43  44
ATOM     44  C   UNL     1       0.513   5.932 -13.303  0.00  0.00    +0.138 C 
ATOM     45  C   UNL     1       0.953   6.148 -14.721  0.00  0.00    +0.044 C 
ATOM     46  C   UNL     1       0.641   4.448 -13.489  0.00  0.00    +0.044 C 
ATOM     47  C   UNL     1       0.386   7.414 -13.117  0.00  0.00    +0.044 C 
ENDBRANCH  43  44
ENDBRANCH  41  43
ENDBRANCH  33  40
ENDBRANCH  31  33
ENDBRANCH  29  31
ENDBRANCH  28  29
ENDBRANCH  13  28
BRANCH  16  48
ATOM     48  O   UNL     1       2.580   7.358  -0.110  0.00  0.00    -0.451 OA
BRANCH  48  49
ATOM     49  C   UNL     1       3.717   8.303  -0.367  0.00  0.00    +0.317 C 
ATOM     50  O   UNL     1       5.089   7.985   0.150  0.00  0.00    -0.250 OA
ATOM     51  C   UNL     1       3.483   9.565  -1.142  0.00  0.00    +0.121 C 
ENDBRANCH  48  49
ENDBRANCH  16  48
BRANCH   4  52
ATOM     52  O   UNL     1       3.061   7.259  -0.941  0.00  0.00    -0.446 OA
BRANCH  52  53
ATOM     53  C   UNL     1       3.952   6.108  -1.299  0.00  0.00    +0.341 C 
ATOM     54  O   UNL     1       4.282   5.066  -0.272  0.00  0.00    -0.245 OA
BRANCH  53  55
ATOM     55  C   UNL     1       4.514   5.997  -2.686  0.00  0.00    +0.076 A 
ATOM     56  C   UNL     1       5.216   7.169  -3.306  0.00  0.00    +0.006 A 
ATOM     57  C   UNL     1       5.778   7.059  -4.692  0.00  0.00    +0.000 A 
ATOM     58  C   UNL     1       5.638   5.777  -5.458  0.00  0.00    +0.000 A 
ATOM     59  C   UNL     1       4.935   4.605  -4.838  0.00  0.00    +0.000 A 
ATOM     60  C   UNL     1       4.374   4.716  -3.452  0.00  0.00    +0.006 A 
ENDBRANCH  53  55
ENDBRANCH  52  53
ENDBRANCH   4  52
TORSDOF 15
ENDMDL
MODEL 6
REMARK VINA RESULT:      -9.0      2.053      6.075
REMARK  Name = 
REMARK  15 active torsions:
REMARK  status: ('A' for Active; 'I' for Inactive)
REMARK    1  A    between atoms: O_2  and  C_3
REMARK    2  A    between atoms: C_8  and  O_9
REMARK    3  A    between atoms: O_9  and  C_10
REMARK    4  A    between atoms: C_14  and  O_15
REMARK    5  A    between atoms: O_15  and  C_16
REMARK    6  A    between atoms: C_16  and  C_18
REMARK    7  A    between atoms: C_27  and  O_28
REMARK    8  A    between atoms: O_28  and  C_29
REMARK    9  A    between atoms: C_29  and  C_31
REMARK   10  A    between atoms: C_31  and  C_33
REMARK   11  A    between atoms: C_33  and  N_34
REMARK   12  A    between atoms: C_33  and  C_42
REMARK   13  A    between atoms: C_35  and  O_37
REMARK   14  A    between atoms: O_37  and  C_38
REMARK   15  A    between atoms: C_51  and  O_52
REMARK                            x       y       z     vdW  Elec       q    Type
REMARK                         _______ _______ _______ _____ _____    ______ ____
ROOT
ATOM      1  C   UNL     1       1.116   8.449   2.170  0.00  0.00    +0.125 C 
ATOM      2  C   UNL     1       1.528   7.985   0.805  0.00  0.00    +0.086 C 
ATOM      3  C   UNL     1       0.497   7.466  -0.152  0.00  0.00    +0.093 C 
ATOM      4  C   UNL     1       0.524   6.932  -1.554  0.00  0.00    +0.201 C 
ATOM      5  C   UNL     1       1.594   6.695  -2.578  0.00  0.00    +0.170 C 
ATOM      6  C   UNL     1       3.080   6.894  -2.625  0.00  0.00    +0.047 C 
ATOM      7  C   UNL     1       3.081   6.356  -4.026  0.00  0.00    +0.007 C 
ATOM      8  C   UNL     1       3.873   6.728  -3.360  0.00  0.00    +0.007 C 
ATOM      9  C   UNL     1       4.111   7.413  -1.668  0.00  0.00    -0.013 C 
ATOM     10  C   UNL     1       4.083   7.948  -0.267  0.00  0.00    +0.190 C 
ATOM     11  C   UNL     1       4.705   6.996  -2.980  0.00  0.00    -0.010 C 
ATOM     12  C   UNL     1       6.182   7.124  -3.209  0.00  0.00    +0.029 C 
ATOM     13  C   UNL     1       3.822   6.450  -4.063  0.00  0.00    +0.189 C 
ATOM     14  C   UNL     1       2.346   6.323  -3.834  0.00  0.00    +0.082 C 
ATOM     15  O   UNL     1       1.051   6.125  -3.855  0.00  0.00    -0.222 OA
ATOM     16  C   UNL     1      -0.946   7.412   0.255  0.00  0.00    +0.191 C 
ATOM     17  C   UNL     1      -1.357   7.876   1.621  0.00  0.00    +0.157 C 
ATOM     18  O   UNL     1      -2.786   7.545   1.304  0.00  0.00    -0.349 OA
ATOM     19  C   UNL     1      -2.374   7.080  -0.062  0.00  0.00    +0.185 C 
ATOM     20  C   UNL     1       2.411   8.531   1.888  0.00  0.00    +0.010 C 
ATOM     21  C   UNL     1       3.013   8.185   0.758  0.00  0.00    +0.183 C 
ATOM     22  O   UNL     1       3.557   8.755   2.035  0.00  0.00    -0.293 OA
ATOM     23  C   UNL     1      -0.326   8.395   2.579  0.00  0.00    +0.063 C 
ENDROOT
BRANCH  10  24
ATOM     24  O   UNL     1       5.446   8.337   0.226  0.00  0.00    -0.342 OA
ATOM     25  C   UNL     1       6.144   7.490   1.249  0.00  0.00    +0.175 C 
ENDBRANCH  10  24
BRANCH   1  27
ATOM     26  C   UNL     1       2.205  10.433   3.448  0.00  0.00    +0.174 C 
ATOM     27  O   UNL     1       2.148   8.968   3.128  0.00  0.00    -0.353 OA
ENDBRANCH   1  27
BRANCH  13  28
ATOM     28  O   UNL     1       4.416   6.033  -5.376  0.00  0.00    -0.446 OA
BRANCH  28  29
ATOM     29  C   UNL     1       3.691   6.330  -6.656  0.00  0.00    +0.350 C 
ATOM     30  O   UNL     1       3.239   7.728  -6.953  0.00  0.00    -0.247 OA
BRANCH  29  31
ATOM     31  C   UNL     1       3.419   5.228  -7.636  0.00  0.00    +0.274 C 
ATOM     32  O   UNL     1       2.879   3.913  -7.156  0.00  0.00    -0.209 OA
BRANCH  31  33
ATOM     33  C   UNL     1       3.687   5.440  -9.096  0.00  0.00    +0.162 C 
BRANCH  33  34
ATOM     34  C   UNL     1       5.029   5.930  -9.551  0.00  0.00    +0.001 A 
ATOM     35  C   UNL     1       5.121   7.040 -10.555  0.00  0.00    -0.003 A 
ATOM     36  C   UNL     1       6.464   7.531 -11.010  0.00  0.00    -0.000 A 
ATOM     37  C   UNL     1       7.715   6.912 -10.460  0.00  0.00    -0.000 A 
ATOM     38  C   UNL     1       7.623   5.801  -9.456  0.00  0.00    -0.000 A 
ATOM     39  C   UNL     1       6.280   5.311  -9.002  0.00  0.00    -0.003 A 
ENDBRANCH  33  34
BRANCH  33  40
ATOM     40  N   UNL     1       2.611   5.161 -10.103  0.00  0.00    -0.163 NA
ATOM     41  C   UNL     1       1.478   6.128 -10.278  0.00  0.00    +0.421 C 
ATOM     42  O   UNL     1       1.422   7.375  -9.445  0.00  0.00    -0.225 OA
BRANCH  41  43
ATOM     43  O   UNL     1       0.401   5.850 -11.284  0.00  0.00    -0.441 OA
BRANCH  43  44
ATOM     44  C   UNL     1       0.364   6.615 -12.574  0.00  0.00    +0.138 C 
ATOM     45  C   UNL     1       0.326   7.379 -13.864  0.00  0.00    +0.044 C 
ATOM     46  C   UNL     1      -0.507   7.653 -11.932  0.00  0.00    +0.044 C 
ATOM     47  C   UNL     1       1.234   5.575 -13.216  0.00  0.00    +0.044 C 
ENDBRANCH  43  44
ENDBRANCH  41  43
ENDBRANCH  33  40
ENDBRANCH  31  33
ENDBRANCH  29  31
ENDBRANCH  28  29
ENDBRANCH  13  28
BRANCH  16  48
ATOM     48  O   UNL     1      -0.918   6.877  -1.146  0.00  0.00    -0.451 OA
BRANCH  48  49
ATOM     49  C   UNL     1      -1.223   5.431  -1.403  0.00  0.00    +0.317 C 
ATOM     50  O   UNL     1      -2.643   4.984  -1.587  0.00  0.00    -0.250 OA
ATOM     51  C   UNL     1      -0.107   4.431  -1.476  0.00  0.00    +0.121 C 
ENDBRANCH  48  49
ENDBRANCH  16  48
BRANCH   4  52
ATOM     52  O   UNL     1      -0.838   6.543  -2.047  0.00  0.00    -0.446 OA
BRANCH  52  53
ATOM     53  C   UNL     1      -1.455   7.273  -3.202  0.00  0.00    +0.341 C 
ATOM     54  O   UNL     1      -1.993   8.660  -3.011  0.00  0.00    -0.245 OA
BRANCH  53  55
ATOM     55  C   UNL     1      -1.534   6.617  -4.549  0.00  0.00    +0.076 A 
ATOM     56  C   UNL     1      -0.468   6.877  -5.573  0.00  0.00    +0.006 A 
ATOM     57  C   UNL     1      -0.547   6.221  -6.920  0.00  0.00    +0.000 A 
ATOM     58  C   UNL     1      -1.691   5.306  -7.243  0.00  0.00    +0.000 A 
ATOM     59  C   UNL     1      -2.756   5.047  -6.218  0.00  0.00    +0.000 A 
ATOM     60  C   UNL     1      -2.677   5.703  -4.872  0.00  0.00    +0.006 A 
ENDBRANCH  53  55
ENDBRANCH  52  53
ENDBRANCH   4  52
TORSDOF 15
ENDMDL
MODEL 7
REMARK VINA RESULT:      -8.8      1.829      5.309
REMARK  Name = 
REMARK  15 active torsions:
REMARK  status: ('A' for Active; 'I' for Inactive)
REMARK    1  A    between atoms: O_2  and  C_3
REMARK    2  A    between atoms: C_8  and  O_9
REMARK    3  A    between atoms: O_9  and  C_10
REMARK    4  A    between atoms: C_14  and  O_15
REMARK    5  A    between atoms: O_15  and  C_16
REMARK    6  A    between atoms: C_16  and  C_18
REMARK    7  A    between atoms: C_27  and  O_28
REMARK    8  A    between atoms: O_28  and  C_29
REMARK    9  A    between atoms: C_29  and  C_31
REMARK   10  A    between atoms: C_31  and  C_33
REMARK   11  A    between atoms: C_33  and  N_34
REMARK   12  A    between atoms: C_33  and  C_42
REMARK   13  A    between atoms: C_35  and  O_37
REMARK   14  A    between atoms: O_37  and  C_38
REMARK   15  A    between atoms: C_51  and  O_52
REMARK                            x       y       z     vdW  Elec       q    Type
REMARK                         _______ _______ _______ _____ _____    ______ ____
ROOT
ATOM      1  C   UNL     1       0.964   8.582   2.139  0.00  0.00    +0.125 C 
ATOM      2  C   UNL     1       1.435   8.088   0.804  0.00  0.00    +0.086 C 
ATOM      3  C   UNL     1       0.450   7.537  -0.182  0.00  0.00    +0.093 C 
ATOM      4  C   UNL     1       0.540   6.968  -1.568  0.00  0.00    +0.201 C 
ATOM      5  C   UNL     1       1.654   6.716  -2.540  0.00  0.00    +0.170 C 
ATOM      6  C   UNL     1       3.138   6.928  -2.530  0.00  0.00    +0.047 C 
ATOM      7  C   UNL     1       3.203   6.356  -3.916  0.00  0.00    +0.007 C 
ATOM      8  C   UNL     1       3.963   6.751  -3.227  0.00  0.00    +0.007 C 
ATOM      9  C   UNL     1       4.124   7.479  -1.544  0.00  0.00    -0.013 C 
ATOM     10  C   UNL     1       4.034   8.047  -0.159  0.00  0.00    +0.190 C 
ATOM     11  C   UNL     1       4.776   7.035  -2.820  0.00  0.00    -0.010 C 
ATOM     12  C   UNL     1       6.260   7.171  -2.990  0.00  0.00    +0.029 C 
ATOM     13  C   UNL     1       3.944   6.455  -3.925  0.00  0.00    +0.189 C 
ATOM     14  C   UNL     1       2.460   6.320  -3.754  0.00  0.00    +0.082 C 
ATOM     15  O   UNL     1       1.169   6.110  -3.824  0.00  0.00    -0.222 OA
ATOM     16  C   UNL     1      -1.008   7.479   0.166  0.00  0.00    +0.191 C 
ATOM     17  C   UNL     1      -1.480   7.973   1.501  0.00  0.00    +0.157 C 
ATOM     18  O   UNL     1      -2.891   7.622   1.133  0.00  0.00    -0.349 OA
ATOM     19  C   UNL     1      -2.419   7.128  -0.202  0.00  0.00    +0.185 C 
ATOM     20  C   UNL     1       2.268   8.668   1.909  0.00  0.00    +0.010 C 
ATOM     21  C   UNL     1       2.920   8.300   0.814  0.00  0.00    +0.183 C 
ATOM     22  O   UNL     1       3.405   8.906   2.098  0.00  0.00    -0.293 OA
ATOM     23  C   UNL     1      -0.494   8.525   2.488  0.00  0.00    +0.063 C 
ENDROOT
BRANCH  10  24
ATOM     24  O   UNL     1       5.372   8.460   0.381  0.00  0.00    -0.342 OA
ATOM     25  C   UNL     1       5.974   7.722   1.540  0.00  0.00    +0.175 C 
ENDBRANCH  10  24
BRANCH   1  27
ATOM     26  C   UNL     1       1.959  10.602   3.436  0.00  0.00    +0.174 C 
ATOM     27  O   UNL     1       1.950   9.134   3.126  0.00  0.00    -0.353 OA
ENDBRANCH   1  27
BRANCH  13  28
ATOM     28  O   UNL     1       4.596   6.011  -5.201  0.00  0.00    -0.446 OA
BRANCH  28  29
ATOM     29  C   UNL     1       3.764   5.423  -6.302  0.00  0.00    +0.350 C 
ATOM     30  O   UNL     1       3.343   3.985  -6.237  0.00  0.00    -0.247 OA
BRANCH  29  31
ATOM     31  C   UNL     1       3.355   6.273  -7.468  0.00  0.00    +0.274 C 
ATOM     32  O   UNL     1       2.971   7.707  -7.253  0.00  0.00    -0.209 OA
BRANCH  31  33
ATOM     33  C   UNL     1       3.328   5.690  -8.850  0.00  0.00    +0.162 C 
BRANCH  33  34
ATOM     34  C   UNL     1       2.049   5.665  -9.630  0.00  0.00    +0.001 A 
ATOM     35  C   UNL     1       1.325   4.369  -9.844  0.00  0.00    -0.003 A 
ATOM     36  C   UNL     1       0.044   4.344 -10.625  0.00  0.00    -0.000 A 
ATOM     37  C   UNL     1      -0.513   5.616 -11.192  0.00  0.00    -0.000 A 
ATOM     38  C   UNL     1       0.211   6.913 -10.978  0.00  0.00    -0.000 A 
ATOM     39  C   UNL     1       1.491   6.937 -10.197  0.00  0.00    -0.003 A 
ENDBRANCH  33  34
BRANCH  33  40
ATOM     40  N   UNL     1       4.584   5.130  -9.451  0.00  0.00    -0.163 NA
ATOM     41  C   UNL     1       5.453   5.997 -10.313  0.00  0.00    +0.421 C 
ATOM     42  O   UNL     1       5.067   7.423 -10.573  0.00  0.00    -0.225 OA
BRANCH  41  43
ATOM     43  O   UNL     1       6.709   5.438 -10.914  0.00  0.00    -0.441 OA
BRANCH  43  44
ATOM     44  C   UNL     1       6.986   5.619 -12.377  0.00  0.00    +0.138 C 
ATOM     45  C   UNL     1       7.262   5.799 -13.840  0.00  0.00    +0.044 C 
ATOM     46  C   UNL     1       8.400   6.005 -12.061  0.00  0.00    +0.044 C 
ATOM     47  C   UNL     1       5.571   5.232 -12.692  0.00  0.00    +0.044 C 
ENDBRANCH  43  44
ENDBRANCH  41  43
ENDBRANCH  33  40
ENDBRANCH  31  33
ENDBRANCH  29  31
ENDBRANCH  28  29
ENDBRANCH  13  28
BRANCH  16  48
ATOM     48  O   UNL     1      -0.918   6.911  -1.219  0.00  0.00    -0.451 OA
BRANCH  48  49
ATOM     49  C   UNL     1      -1.221   5.461  -1.456  0.00  0.00    +0.317 C 
ATOM     50  O   UNL     1      -2.638   5.013  -1.656  0.00  0.00    -0.250 OA
ATOM     51  C   UNL     1      -0.106   4.458  -1.493  0.00  0.00    +0.121 C 
ENDBRANCH  48  49
ENDBRANCH  16  48
BRANCH   4  52
ATOM     52  O   UNL     1      -0.798   6.555  -2.108  0.00  0.00    -0.446 OA
BRANCH  52  53
ATOM     53  C   UNL     1      -1.394   7.285  -3.273  0.00  0.00    +0.341 C 
ATOM     54  O   UNL     1      -1.957   8.663  -3.086  0.00  0.00    -0.245 OA
BRANCH  53  55
ATOM     55  C   UNL     1      -1.429   6.638  -4.626  0.00  0.00    +0.076 A 
ATOM     56  C   UNL     1      -2.557   5.719  -4.989  0.00  0.00    +0.006 A 
ATOM     57  C   UNL     1      -2.592   5.072  -6.342  0.00  0.00    +0.000 A 
ATOM     58  C   UNL     1      -1.498   5.345  -7.332  0.00  0.00    +0.000 A 
ATOM     59  C   UNL     1      -0.370   6.264  -6.968  0.00  0.00    +0.000 A 
ATOM     60  C   UNL     1      -0.336   6.910  -5.616  0.00  0.00    +0.006 A 
ENDBRANCH  53  55
ENDBRANCH  52  53
ENDBRANCH   4  52
TORSDOF 15
ENDMDL
MODEL 8
REMARK VINA RESULT:      -8.8      2.722     11.328
REMARK  Name = 
REMARK  15 active torsions:
REMARK  status: ('A' for Active; 'I' for Inactive)
REMARK    1  A    between atoms: O_2  and  C_3
REMARK    2  A    between atoms: C_8  and  O_9
REMARK    3  A    between atoms: O_9  and  C_10
REMARK    4  A    between atoms: C_14  and  O_15
REMARK    5  A    between atoms: O_15  and  C_16
REMARK    6  A    between atoms: C_16  and  C_18
REMARK    7  A    between atoms: C_27  and  O_28
REMARK    8  A    between atoms: O_28  and  C_29
REMARK    9  A    between atoms: C_29  and  C_31
REMARK   10  A    between atoms: C_31  and  C_33
REMARK   11  A    between atoms: C_33  and  N_34
REMARK   12  A    between atoms: C_33  and  C_42
REMARK   13  A    between atoms: C_35  and  O_37
REMARK   14  A    between atoms: O_37  and  C_38
REMARK   15  A    between atoms: C_51  and  O_52
REMARK                            x       y       z     vdW  Elec       q    Type
REMARK                         _______ _______ _______ _____ _____    ______ ____
ROOT
ATOM      1  C   UNL     1       5.145   7.320 -15.577  0.00  0.00    +0.125 C 
ATOM      2  C   UNL     1       4.942   6.830 -14.174  0.00  0.00    +0.086 C 
ATOM      3  C   UNL     1       3.572   6.441 -13.707  0.00  0.00    +0.093 C 
ATOM      4  C   UNL     1       2.995   5.924 -12.421  0.00  0.00    +0.201 C 
ATOM      5  C   UNL     1       3.553   5.582 -11.071  0.00  0.00    +0.170 C 
ATOM      6  C   UNL     1       4.916   5.615 -10.447  0.00  0.00    +0.047 C 
ATOM      7  C   UNL     1       4.316   5.098  -9.173  0.00  0.00    +0.007 C 
ATOM      8  C   UNL     1       5.339   5.371  -9.468  0.00  0.00    +0.007 C 
ATOM      9  C   UNL     1       6.287   6.004 -10.914  0.00  0.00    -0.013 C 
ATOM     10  C   UNL     1       6.862   6.521 -12.199  0.00  0.00    +0.190 C 
ATOM     11  C   UNL     1       6.277   5.539  -9.488  0.00  0.00    -0.010 C 
ATOM     12  C   UNL     1       7.554   5.505  -8.702  0.00  0.00    +0.029 C 
ATOM     13  C   UNL     1       4.990   5.109  -8.849  0.00  0.00    +0.189 C 
ATOM     14  C   UNL     1       3.714   5.144  -9.635  0.00  0.00    +0.082 C 
ATOM     15  O   UNL     1       2.499   5.092 -10.123  0.00  0.00    -0.222 OA
ATOM     16  C   UNL     1       2.403   6.543 -14.642  0.00  0.00    +0.191 C 
ATOM     17  C   UNL     1       2.606   7.033 -16.044  0.00  0.00    +0.157 C 
ATOM     18  O   UNL     1       1.140   6.867 -16.315  0.00  0.00    -0.349 OA
ATOM     19  C   UNL     1       0.937   6.377 -14.912  0.00  0.00    +0.185 C 
ATOM     20  C   UNL     1       6.229   7.260 -14.813  0.00  0.00    +0.010 C 
ATOM     21  C   UNL     1       6.306   6.863 -13.550  0.00  0.00    +0.183 C 
ATOM     22  O   UNL     1       7.359   7.353 -14.498  0.00  0.00    -0.293 OA
ATOM     23  C   UNL     1       3.977   7.422 -16.513  0.00  0.00    +0.063 C 
ENDROOT
BRANCH  10  24
ATOM     24  O   UNL     1       8.343   6.749 -12.114  0.00  0.00    -0.342 OA
ATOM     25  C   UNL     1       9.278   5.580 -12.011  0.00  0.00    +0.175 C 
ENDBRANCH  10  24
BRANCH   1  27
ATOM     26  C   UNL     1       7.249   6.841 -17.025  0.00  0.00    +0.174 C 
ATOM     27  O   UNL     1       6.517   7.709 -16.043  0.00  0.00    -0.353 OA
ENDBRANCH   1  27
BRANCH  13  28
ATOM     28  O   UNL     1       4.980   4.645  -7.422  0.00  0.00    -0.446 OA
BRANCH  28  29
ATOM     29  C   UNL     1       4.409   5.525  -6.351  0.00  0.00    +0.350 C 
ATOM     30  O   UNL     1       5.056   6.842  -6.039  0.00  0.00    -0.247 OA
BRANCH  29  31
ATOM     31  C   UNL     1       3.192   5.089  -5.592  0.00  0.00    +0.274 C 
ATOM     32  O   UNL     1       2.495   3.813  -5.960  0.00  0.00    -0.209 OA
BRANCH  31  33
ATOM     33  C   UNL     1       2.670   5.929  -4.463  0.00  0.00    +0.162 C 
BRANCH  33  34
ATOM     34  C   UNL     1       3.406   5.975  -3.158  0.00  0.00    +0.001 A 
ATOM     35  C   UNL     1       3.673   4.707  -2.402  0.00  0.00    -0.003 A 
ATOM     36  C   UNL     1       4.410   4.752  -1.096  0.00  0.00    -0.000 A 
ATOM     37  C   UNL     1       4.880   6.066  -0.547  0.00  0.00    -0.000 A 
ATOM     38  C   UNL     1       4.614   7.334  -1.303  0.00  0.00    -0.000 A 
ATOM     39  C   UNL     1       3.877   7.288  -2.608  0.00  0.00    -0.003 A 
ENDBRANCH  33  34
BRANCH  33  40
ATOM     40  N   UNL     1       1.409   6.722  -4.641  0.00  0.00    -0.163 NA
ATOM     41  C   UNL     1       0.170   6.342  -3.886  0.00  0.00    +0.421 C 
ATOM     42  O   UNL     1       0.192   5.168  -2.952  0.00  0.00    -0.225 OA
BRANCH  41  43
ATOM     43  O   UNL     1      -1.091   7.135  -4.063  0.00  0.00    -0.441 OA
BRANCH  43  44
ATOM     44  C   UNL     1      -2.370   6.660  -3.441  0.00  0.00    +0.138 C 
ATOM     45  C   UNL     1      -3.650   6.185  -2.818  0.00  0.00    +0.044 C 
ATOM     46  C   UNL     1      -2.100   7.513  -2.237  0.00  0.00    +0.044 C 
ATOM     47  C   UNL     1      -2.640   5.807  -4.645  0.00  0.00    +0.044 C 
ENDBRANCH  43  44
ENDBRANCH  41  43
ENDBRANCH  33  40
ENDBRANCH  31  33
ENDBRANCH  29  31
ENDBRANCH  28  29
ENDBRANCH  13  28
BRANCH  16  48
ATOM     48  O   UNL     1       1.828   6.026 -13.357  0.00  0.00    -0.451 OA
BRANCH  48  49
ATOM     49  C   UNL     1       1.112   4.707 -13.332  0.00  0.00    +0.317 C 
ATOM     50  O   UNL     1      -0.264   4.611 -12.744  0.00  0.00    -0.250 OA
ATOM     51  C   UNL     1       1.773   3.485 -13.895  0.00  0.00    +0.121 C 
ENDBRANCH  48  49
ENDBRANCH  16  48
BRANCH   4  52
ATOM     52  O   UNL     1       1.515   5.696 -12.506  0.00  0.00    -0.446 OA
BRANCH  52  53
ATOM     53  C   UNL     1       0.576   6.571 -11.732  0.00  0.00    +0.341 C 
ATOM     54  O   UNL     1      -0.157   7.682 -12.424  0.00  0.00    -0.245 OA
BRANCH  53  55
ATOM     55  C   UNL     1       0.368   6.336 -10.265  0.00  0.00    +0.076 A 
ATOM     56  C   UNL     1      -0.518   5.217  -9.803  0.00  0.00    +0.006 A 
ATOM     57  C   UNL     1      -0.726   4.982  -8.336  0.00  0.00    +0.000 A 
ATOM     58  C   UNL     1      -0.048   5.866  -7.331  0.00  0.00    +0.000 A 
ATOM     59  C   UNL     1       0.838   6.985  -7.794  0.00  0.00    +0.000 A 
ATOM     60  C   UNL     1       1.045   7.219  -9.260  0.00  0.00    +0.006 A 
ENDBRANCH  53  55
ENDBRANCH  52  53
ENDBRANCH   4  52
TORSDOF 15
ENDMDL
MODEL 9
REMARK VINA RESULT:      -8.8      2.880     11.952
REMARK  Name = 
REMARK  15 active torsions:
REMARK  status: ('A' for Active; 'I' for Inactive)
REMARK    1  A    between atoms: O_2  and  C_3
REMARK    2  A    between atoms: C_8  and  O_9
REMARK    3  A    between atoms: O_9  and  C_10
REMARK    4  A    between atoms: C_14  and  O_15
REMARK    5  A    between atoms: O_15  and  C_16
REMARK    6  A    between atoms: C_16  and  C_18
REMARK    7  A    between atoms: C_27  and  O_28
REMARK    8  A    between atoms: O_28  and  C_29
REMARK    9  A    between atoms: C_29  and  C_31
REMARK   10  A    between atoms: C_31  and  C_33
REMARK   11  A    between atoms: C_33  and  N_34
REMARK   12  A    between atoms: C_33  and  C_42
REMARK   13  A    between atoms: C_35  and  O_37
REMARK   14  A    between atoms: O_37  and  C_38
REMARK   15  A    between atoms: C_51  and  O_52
REMARK                            x       y       z     vdW  Elec       q    Type
REMARK                         _______ _______ _______ _____ _____    ______ ____
ROOT
ATOM      1  C   UNL     1       6.711   6.788 -13.734  0.00  0.00    +0.125 C 
ATOM      2  C   UNL     1       5.624   6.413 -12.771  0.00  0.00    +0.086 C 
ATOM      3  C   UNL     1       4.208   6.291 -13.249  0.00  0.00    +0.093 C 
ATOM      4  C   UNL     1       2.896   5.948 -12.605  0.00  0.00    +0.201 C 
ATOM      5  C   UNL     1       2.459   5.586 -11.217  0.00  0.00    +0.170 C 
ATOM      6  C   UNL     1       3.151   5.415  -9.898  0.00  0.00    +0.047 C 
ATOM      7  C   UNL     1       1.828   5.076  -9.277  0.00  0.00    +0.007 C 
ATOM      8  C   UNL     1       2.850   5.152  -8.879  0.00  0.00    +0.007 C 
ATOM      9  C   UNL     1       4.568   5.537  -9.420  0.00  0.00    -0.013 C 
ATOM     10  C   UNL     1       5.878   5.880 -10.063  0.00  0.00    +0.190 C 
ATOM     11  C   UNL     1       3.621   5.155  -8.320  0.00  0.00    -0.010 C 
ATOM     12  C   UNL     1       4.137   4.942  -6.928  0.00  0.00    +0.029 C 
ATOM     13  C   UNL     1       2.160   4.987  -8.613  0.00  0.00    +0.189 C 
ATOM     14  C   UNL     1       1.645   5.201 -10.005  0.00  0.00    +0.082 C 
ATOM     15  O   UNL     1       0.983   5.334 -11.127  0.00  0.00    -0.222 OA
ATOM     16  C   UNL     1       3.878   6.544 -14.690  0.00  0.00    +0.191 C 
ATOM     17  C   UNL     1       4.964   6.919 -15.653  0.00  0.00    +0.157 C 
ATOM     18  O   UNL     1       3.957   6.995 -16.762  0.00  0.00    -0.349 OA
ATOM     19  C   UNL     1       2.869   6.620 -15.798  0.00  0.00    +0.185 C 
ATOM     20  C   UNL     1       7.086   6.581 -12.478  0.00  0.00    +0.010 C 
ATOM     21  C   UNL     1       6.316   6.242 -11.451  0.00  0.00    +0.183 C 
ATOM     22  O   UNL     1       7.792   6.494 -11.541  0.00  0.00    -0.293 OA
ATOM     23  C   UNL     1       6.382   7.041 -15.176  0.00  0.00    +0.063 C 
ENDROOT
BRANCH  10  24
ATOM     24  O   UNL     1       7.020   5.853  -9.090  0.00  0.00    -0.342 OA
ATOM     25  C   UNL     1       8.092   4.812  -9.219  0.00  0.00    +0.175 C 
ENDBRANCH  10  24
BRANCH   1  27
ATOM     26  C   UNL     1       8.842   5.705 -12.716  0.00  0.00    +0.174 C 
ATOM     27  O   UNL     1       8.127   6.909 -13.255  0.00  0.00    -0.353 OA
ENDBRANCH   1  27
BRANCH  13  28
ATOM     28  O   UNL     1       1.213   4.606  -7.513  0.00  0.00    -0.446 OA
BRANCH  28  29
ATOM     29  C   UNL     1       0.389   5.659  -6.834  0.00  0.00    +0.350 C 
ATOM     30  O   UNL     1      -1.105   5.537  -6.802  0.00  0.00    -0.247 OA
BRANCH  29  31
ATOM     31  C   UNL     1       1.060   6.833  -6.187  0.00  0.00    +0.274 C 
ATOM     32  O   UNL     1       1.588   7.955  -7.031  0.00  0.00    -0.209 OA
BRANCH  31  33
ATOM     33  C   UNL     1       1.203   6.888  -4.694  0.00  0.00    +0.162 C 
BRANCH  33  34
ATOM     34  C   UNL     1       2.558   7.061  -4.076  0.00  0.00    +0.001 A 
ATOM     35  C   UNL     1       2.717   6.982  -2.586  0.00  0.00    -0.003 A 
ATOM     36  C   UNL     1       4.073   7.155  -1.966  0.00  0.00    -0.000 A 
ATOM     37  C   UNL     1       5.268   7.407  -2.836  0.00  0.00    -0.000 A 
ATOM     38  C   UNL     1       5.109   7.486  -4.326  0.00  0.00    -0.000 A 
ATOM     39  C   UNL     1       3.753   7.313  -4.945  0.00  0.00    -0.003 A 
ENDBRANCH  33  34
BRANCH  33  40
ATOM     40  N   UNL     1      -0.011   6.768  -3.821  0.00  0.00    -0.163 NA
ATOM     41  C   UNL     1      -0.340   5.458  -3.170  0.00  0.00    +0.421 C 
ATOM     42  O   UNL     1       0.544   4.266  -3.393  0.00  0.00    -0.225 OA
BRANCH  41  43
ATOM     43  O   UNL     1      -1.554   5.338  -2.296  0.00  0.00    -0.441 OA
BRANCH  43  44
ATOM     44  C   UNL     1      -1.855   6.399  -1.279  0.00  0.00    +0.138 C 
ATOM     45  C   UNL     1      -2.156   7.459  -0.263  0.00  0.00    +0.044 C 
ATOM     46  C   UNL     1      -0.628   6.007  -0.509  0.00  0.00    +0.044 C 
ATOM     47  C   UNL     1      -3.081   6.789  -2.050  0.00  0.00    +0.044 C 
ENDBRANCH  43  44
ENDBRANCH  41  43
ENDBRANCH  33  40
ENDBRANCH  31  33
ENDBRANCH  29  31
ENDBRANCH  28  29
ENDBRANCH  13  28
BRANCH  16  48
ATOM     48  O   UNL     1       2.567   6.201 -14.047  0.00  0.00    -0.451 OA
BRANCH  48  49
ATOM     49  C   UNL     1       1.976   4.835 -14.230  0.00  0.00    +0.317 C 
ATOM     50  O   UNL     1       2.869   3.661 -14.501  0.00  0.00    -0.250 OA
ATOM     51  C   UNL     1       0.491   4.642 -14.143  0.00  0.00    +0.121 C 
ENDBRANCH  48  49
ENDBRANCH  16  48
BRANCH   4  52
ATOM     52  O   UNL     1       1.755   5.974 -13.578  0.00  0.00    -0.446 OA
BRANCH  52  53
ATOM     53  C   UNL     1       0.790   7.122 -13.572  0.00  0.00    +0.341 C 
ATOM     54  O   UNL     1       0.125   7.535 -12.292  0.00  0.00    -0.245 OA
BRANCH  53  55
ATOM     55  C   UNL     1       0.489   7.857 -14.844  0.00  0.00    +0.076 A 
ATOM     56  C   UNL     1      -0.325   7.196 -15.917  0.00  0.00    +0.006 A 
ATOM     57  C   UNL     1      -0.626   7.931 -17.190  0.00  0.00    +0.000 A 
ATOM     58  C   UNL     1      -0.113   9.326 -17.389  0.00  0.00    +0.000 A 
ATOM     59  C   UNL     1       0.700   9.987 -16.315  0.00  0.00    +0.000 A 
ATOM     60  C   UNL     1       1.001   9.252 -15.044  0.00  0.00    +0.006 A 
ENDBRANCH  53  55
ENDBRANCH  52  53
ENDBRANCH   4  52
TORSDOF 15
ENDMDL
