MODEL 1
REMARK VINA RESULT:      -5.3      0.000      0.000
REMARK  Name = 
REMARK  0 active torsions:
REMARK  status: ('A' for Active; 'I' for Inactive)
REMARK                            x       y       z     vdW  Elec       q    Type
REMARK                         _______ _______ _______ _____ _____    ______ ____
ROOT
ATOM      1  C   UNL     1      -1.181   5.386  -7.117  0.00  0.00    +0.032 C 
ATOM      2  C   UNL     1      -1.012   5.410  -5.643  0.00  0.00    -0.008 A 
ATOM      3  C   UNL     1       0.280   5.277  -5.148  0.00  0.00    +0.050 A 
ATOM      4 CL   UNL     1       1.372   4.149  -5.951  0.00  0.00    -0.083 Cl
ATOM      5  C   UNL     1       0.438   5.598  -3.805  0.00  0.00    -0.008 A 
ATOM      6  C   UNL     1       1.838   5.587  -3.292  0.00  0.00    +0.032 C 
ATOM      7  C   UNL     1      -0.648   5.681  -2.944  0.00  0.00    +0.039 A 
ATOM      8  C   UNL     1      -1.937   5.457  -3.411  0.00  0.00    +0.195 A 
ATOM      9  O   UNL     1      -2.858   4.746  -2.636  0.00  0.00    -0.287 OA
ATOM     10  C   UNL     1      -2.088   5.600  -4.786  0.00  0.00    +0.039 A 
ENDROOT
TORSDOF 0
ENDMDL
MODEL 2
REMARK VINA RESULT:      -5.2      2.563      4.045
REMARK  Name = 
REMARK  0 active torsions:
REMARK  status: ('A' for Active; 'I' for Inactive)
REMARK                            x       y       z     vdW  Elec       q    Type
REMARK                         _______ _______ _______ _____ _____    ______ ____
ROOT
ATOM      1  C   UNL     1      -0.364   5.826  -2.157  0.00  0.00    +0.032 C 
ATOM      2  C   UNL     1      -0.352   5.543  -3.614  0.00  0.00    -0.008 A 
ATOM      3  C   UNL     1      -1.553   5.677  -4.299  0.00  0.00    +0.050 A 
ATOM      4 CL   UNL     1      -3.035   5.147  -3.504  0.00  0.00    -0.083 Cl
ATOM      5  C   UNL     1      -1.448   5.697  -5.685  0.00  0.00    -0.008 A 
ATOM      6  C   UNL     1      -2.710   5.973  -6.430  0.00  0.00    +0.032 C 
ATOM      7  C   UNL     1      -0.306   5.249  -6.335  0.00  0.00    +0.039 A 
ATOM      8  C   UNL     1       0.779   4.777  -5.608  0.00  0.00    +0.195 A 
ATOM      9  O   UNL     1       1.498   3.662  -6.050  0.00  0.00    -0.287 OA
ATOM     10  C   UNL     1       0.816   5.196  -4.283  0.00  0.00    +0.039 A 
ENDROOT
TORSDOF 0
ENDMDL
MODEL 3
REMARK VINA RESULT:      -5.0      9.851     10.868
REMARK  Name = 
REMARK  0 active torsions:
REMARK  status: ('A' for Active; 'I' for Inactive)
REMARK                            x       y       z     vdW  Elec       q    Type
REMARK                         _______ _______ _______ _____ _____    ______ ____
ROOT
ATOM      1  C   UNL     1       5.214   5.704  -9.683  0.00  0.00    +0.032 C 
ATOM      2  C   UNL     1       5.861   5.701 -11.019  0.00  0.00    -0.008 A 
ATOM      3  C   UNL     1       7.221   5.985 -11.069  0.00  0.00    +0.050 A 
ATOM      4 CL   UNL     1       7.855   7.232  -9.997  0.00  0.00    -0.083 Cl
ATOM      5  C   UNL     1       7.846   5.686 -12.273  0.00  0.00    -0.008 A 
ATOM      6  C   UNL     1       9.327   5.861 -12.300  0.00  0.00    +0.032 C 
ATOM      7  C   UNL     1       7.121   5.477 -13.438  0.00  0.00    +0.039 A 
ATOM      8  C   UNL     1       5.733   5.548 -13.427  0.00  0.00    +0.195 A 
ATOM      9  O   UNL     1       5.046   6.148 -14.487  0.00  0.00    -0.287 OA
ATOM     10  C   UNL     1       5.155   5.388 -12.174  0.00  0.00    +0.039 A 
ENDROOT
TORSDOF 0
ENDMDL
MODEL 4
REMARK VINA RESULT:      -4.9      9.262     10.292
REMARK  Name = 
REMARK  0 active torsions:
REMARK  status: ('A' for Active; 'I' for Inactive)
REMARK                            x       y       z     vdW  Elec       q    Type
REMARK                         _______ _______ _______ _____ _____    ______ ____
ROOT
ATOM      1  C   UNL     1       8.925   5.850 -12.207  0.00  0.00    +0.032 C 
ATOM      2  C   UNL     1       7.459   5.717 -12.020  0.00  0.00    -0.008 A 
ATOM      3  C   UNL     1       6.975   5.777 -10.718  0.00  0.00    +0.050 A 
ATOM      4 CL   UNL     1       7.909   4.999  -9.441  0.00  0.00    -0.083 Cl
ATOM      5  C   UNL     1       5.600   5.948 -10.602  0.00  0.00    -0.008 A 
ATOM      6  C   UNL     1       5.083   6.146  -9.218  0.00  0.00    +0.032 C 
ATOM      7  C   UNL     1       4.744   5.705 -11.668  0.00  0.00    +0.039 A 
ATOM      8  C   UNL     1       5.247   5.294 -12.896  0.00  0.00    +0.195 A 
ATOM      9  O   UNL     1       4.577   4.322 -13.645  0.00  0.00    -0.287 OA
ATOM     10  C   UNL     1       6.592   5.579 -13.097  0.00  0.00    +0.039 A 
ENDROOT
TORSDOF 0
ENDMDL
MODEL 5
REMARK VINA RESULT:      -4.9      6.914      8.118
REMARK  Name = 
REMARK  0 active torsions:
REMARK  status: ('A' for Active; 'I' for Inactive)
REMARK                            x       y       z     vdW  Elec       q    Type
REMARK                         _______ _______ _______ _____ _____    ______ ____
ROOT
ATOM      1  C   UNL     1       7.578   5.992  -9.460  0.00  0.00    +0.032 C 
ATOM      2  C   UNL     1       6.117   5.736  -9.474  0.00  0.00    -0.008 A 
ATOM      3  C   UNL     1       5.399   6.202 -10.569  0.00  0.00    +0.050 A 
ATOM      4 CL   UNL     1       5.833   7.769 -11.249  0.00  0.00    -0.083 Cl
ATOM      5  C   UNL     1       4.111   5.695 -10.694  0.00  0.00    -0.008 A 
ATOM      6  C   UNL     1       3.376   6.082 -11.933  0.00  0.00    +0.032 C 
ATOM      7  C   UNL     1       3.465   5.078  -9.632  0.00  0.00    +0.039 A 
ATOM      8  C   UNL     1       4.102   4.936  -8.405  0.00  0.00    +0.195 A 
ATOM      9  O   UNL     1       3.394   5.123  -7.214  0.00  0.00    -0.287 OA
ATOM     10  C   UNL     1       5.488   5.025  -8.459  0.00  0.00    +0.039 A 
ENDROOT
TORSDOF 0
ENDMDL
MODEL 6
REMARK VINA RESULT:      -4.9      7.834      8.642
REMARK  Name = 
REMARK  0 active torsions:
REMARK  status: ('A' for Active; 'I' for Inactive)
REMARK                            x       y       z     vdW  Elec       q    Type
REMARK                         _______ _______ _______ _____ _____    ______ ____
ROOT
ATOM      1  C   UNL     1       4.750   5.635 -13.221  0.00  0.00    +0.032 C 
ATOM      2  C   UNL     1       4.970   5.499 -11.760  0.00  0.00    -0.008 A 
ATOM      3  C   UNL     1       6.265   5.684 -11.290  0.00  0.00    +0.050 A 
ATOM      4 CL   UNL     1       7.602   5.056 -12.253  0.00  0.00    -0.083 Cl
ATOM      5  C   UNL     1       6.381   5.844  -9.915  0.00  0.00    -0.008 A 
ATOM      6  C   UNL     1       7.745   6.175  -9.410  0.00  0.00    +0.032 C 
ATOM      7  C   UNL     1       5.358   5.479  -9.050  0.00  0.00    +0.039 A 
ATOM      8  C   UNL     1       4.171   4.952  -9.545  0.00  0.00    +0.195 A 
ATOM      9  O   UNL     1       3.534   3.897  -8.884  0.00  0.00    -0.287 OA
ATOM     10  C   UNL     1       3.924   5.237 -10.883  0.00  0.00    +0.039 A 
ENDROOT
TORSDOF 0
ENDMDL
MODEL 7
REMARK VINA RESULT:      -4.9      2.311      3.137
REMARK  Name = 
REMARK  0 active torsions:
REMARK  status: ('A' for Active; 'I' for Inactive)
REMARK                            x       y       z     vdW  Elec       q    Type
REMARK                         _______ _______ _______ _____ _____    ______ ____
ROOT
ATOM      1  C   UNL     1      -0.883   5.481  -7.010  0.00  0.00    +0.032 C 
ATOM      2  C   UNL     1      -0.747   5.532  -5.533  0.00  0.00    -0.008 A 
ATOM      3  C   UNL     1      -1.861   5.930  -4.804  0.00  0.00    +0.050 A 
ATOM      4 CL   UNL     1      -2.865   7.227  -5.450  0.00  0.00    -0.083 Cl
ATOM      5  C   UNL     1      -1.797   5.683  -3.437  0.00  0.00    -0.008 A 
ATOM      6  C   UNL     1      -3.035   5.983  -2.662  0.00  0.00    +0.032 C 
ATOM      7  C   UNL     1      -0.592   5.413  -2.803  0.00  0.00    +0.039 A 
ATOM      8  C   UNL     1       0.592   5.367  -3.528  0.00  0.00    +0.195 A 
ATOM      9  O   UNL     1       1.768   5.906  -2.998  0.00  0.00    -0.287 OA
ATOM     10  C   UNL     1       0.428   5.159  -4.892  0.00  0.00    +0.039 A 
ENDROOT
TORSDOF 0
ENDMDL
MODEL 8
REMARK VINA RESULT:      -4.8      7.881      9.136
REMARK  Name = 
REMARK  0 active torsions:
REMARK  status: ('A' for Active; 'I' for Inactive)
REMARK                            x       y       z     vdW  Elec       q    Type
REMARK                         _______ _______ _______ _____ _____    ______ ____
ROOT
ATOM      1  C   UNL     1       7.520   5.841  -9.568  0.00  0.00    +0.032 C 
ATOM      2  C   UNL     1       6.245   5.813 -10.328  0.00  0.00    -0.008 A 
ATOM      3  C   UNL     1       5.068   5.957  -9.603  0.00  0.00    +0.050 A 
ATOM      4 CL   UNL     1       4.953   5.172  -8.029  0.00  0.00    -0.083 Cl
ATOM      5  C   UNL     1       3.933   6.222 -10.360  0.00  0.00    -0.008 A 
ATOM      6  C   UNL     1       2.689   6.511  -9.589  0.00  0.00    +0.032 C 
ATOM      7  C   UNL     1       3.900   5.993 -11.729  0.00  0.00    +0.039 A 
ATOM      8  C   UNL     1       5.020   5.500 -12.387  0.00  0.00    +0.195 A 
ATOM      9  O   UNL     1       4.883   4.544 -13.399  0.00  0.00    -0.287 OA
ATOM     10  C   UNL     1       6.220   5.688 -11.712  0.00  0.00    +0.039 A 
ENDROOT
TORSDOF 0
ENDMDL
MODEL 9
REMARK VINA RESULT:      -4.7      2.821      3.344
REMARK  Name = 
REMARK  0 active torsions:
REMARK  status: ('A' for Active; 'I' for Inactive)
REMARK                            x       y       z     vdW  Elec       q    Type
REMARK                         _______ _______ _______ _____ _____    ______ ____
ROOT
ATOM      1  C   UNL     1      -2.740   5.996  -6.390  0.00  0.00    +0.032 C 
ATOM      2  C   UNL     1      -1.351   5.677  -5.979  0.00  0.00    -0.008 A 
ATOM      3  C   UNL     1      -1.012   5.902  -4.650  0.00  0.00    +0.050 A 
ATOM      4 CL   UNL     1      -1.658   7.335  -3.852  0.00  0.00    -0.083 Cl
ATOM      5  C   UNL     1       0.182   5.324  -4.235  0.00  0.00    -0.008 A 
ATOM      6  C   UNL     1       0.493   5.443  -2.781  0.00  0.00    +0.032 C 
ATOM      7  C   UNL     1       1.133   4.885  -5.146  0.00  0.00    +0.039 A 
ATOM      8  C   UNL     1       0.907   5.000  -6.512  0.00  0.00    +0.195 A 
ATOM      9  O   UNL     1       1.944   5.370  -7.373  0.00  0.00    -0.287 OA
ATOM     10  C   UNL     1      -0.429   5.138  -6.868  0.00  0.00    +0.039 A 
ENDROOT
TORSDOF 0
ENDMDL
