MODEL 1
REMARK VINA RESULT:      -7.8      0.000      0.000
REMARK  Name = 
REMARK  5 active torsions:
REMARK  status: ('A' for Active; 'I' for Inactive)
REMARK    1  A    between atoms: C_2  and  C_3
REMARK    2  A    between atoms: C_2  and  N_10
REMARK    3  A    between atoms: C_3  and  C_4
REMARK    4  A    between atoms: N_10  and  C_12
REMARK    5  A    between atoms: C_12  and  C_13
REMARK                            x       y       z     vdW  Elec       q    Type
REMARK                         _______ _______ _______ _____ _____    ______ ____
ROOT
ATOM      1  C   UNL     1       4.275   5.756  -6.533  0.00  0.00    +0.018 C 
ATOM      2  C   UNL     1       3.503   6.146  -7.952  0.00  0.00    +0.062 C 
ENDROOT
BRANCH   2   3
ATOM      3  N   UNL     1       2.307   5.148  -7.634  0.00  0.00    -0.269 NA
ATOM      4  C   UNL     1       2.578   4.025  -8.534  0.00  0.00    +0.090 C 
BRANCH   3   5
ATOM      5  C   UNL     1       1.111   5.761  -8.126  0.00  0.00    +0.099 C 
BRANCH   5   6
ATOM      6  C   UNL     1       0.213   5.847  -6.971  0.00  0.00    -0.006 A 
ATOM      7  C   UNL     1      -0.994   5.169  -7.061  0.00  0.00    -0.003 A 
ATOM      8  C   UNL     1      -2.117   5.608  -6.368  0.00  0.00    -0.000 A 
ATOM      9  C   UNL     1      -1.971   6.657  -5.481  0.00  0.00    -0.000 A 
ATOM     10  C   UNL     1      -0.673   6.966  -5.105  0.00  0.00    -0.000 A 
ATOM     11  C   UNL     1       0.439   6.519  -5.807  0.00  0.00    -0.003 A 
ENDBRANCH   5   6
ENDBRANCH   3   5
ENDBRANCH   2   3
BRANCH   2  12
ATOM     12  C   UNL     1       4.372   5.014  -8.802  0.00  0.00    +0.042 C 
BRANCH  12  13
ATOM     13  C   UNL     1       5.376   5.814  -9.563  0.00  0.00    -0.021 A 
ATOM     14  C   UNL     1       4.833   6.705 -10.458  0.00  0.00    -0.004 A 
ATOM     15  C   UNL     1       5.667   7.611 -11.080  0.00  0.00    -0.000 A 
ATOM     16  C   UNL     1       7.010   7.536 -10.843  0.00  0.00    -0.000 A 
ATOM     17  C   UNL     1       7.572   6.533 -10.089  0.00  0.00    -0.000 A 
ATOM     18  C   UNL     1       6.736   5.631  -9.445  0.00  0.00    -0.004 A 
ENDBRANCH  12  13
ENDBRANCH   2  12
TORSDOF 5
ENDMDL
MODEL 2
REMARK VINA RESULT:      -7.5      0.695      7.126
REMARK  Name = 
REMARK  5 active torsions:
REMARK  status: ('A' for Active; 'I' for Inactive)
REMARK    1  A    between atoms: C_2  and  C_3
REMARK    2  A    between atoms: C_2  and  N_10
REMARK    3  A    between atoms: C_3  and  C_4
REMARK    4  A    between atoms: N_10  and  C_12
REMARK    5  A    between atoms: C_12  and  C_13
REMARK                            x       y       z     vdW  Elec       q    Type
REMARK                         _______ _______ _______ _____ _____    ______ ____
ROOT
ATOM      1  C   UNL     1       1.424   6.804  -9.212  0.00  0.00    +0.018 C 
ATOM      2  C   UNL     1       2.268   6.241  -7.895  0.00  0.00    +0.062 C 
ENDROOT
BRANCH   2   3
ATOM      3  N   UNL     1       3.179   5.316  -8.811  0.00  0.00    -0.269 NA
ATOM      4  C   UNL     1       2.738   3.968  -8.447  0.00  0.00    +0.090 C 
BRANCH   3   5
ATOM      5  C   UNL     1       4.519   5.432  -8.319  0.00  0.00    +0.099 C 
BRANCH   5   6
ATOM      6  C   UNL     1       5.309   5.924  -9.452  0.00  0.00    -0.006 A 
ATOM      7  C   UNL     1       6.668   5.647  -9.437  0.00  0.00    -0.003 A 
ATOM      8  C   UNL     1       7.578   6.488 -10.067  0.00  0.00    -0.000 A 
ATOM      9  C   UNL     1       7.088   7.535 -10.824  0.00  0.00    -0.000 A 
ATOM     10  C   UNL     1       5.747   7.468 -11.167  0.00  0.00    -0.000 A 
ATOM     11  C   UNL     1       4.850   6.621 -10.528  0.00  0.00    -0.003 A 
ENDBRANCH   5   6
ENDBRANCH   3   5
ENDBRANCH   2   3
BRANCH   2  12
ATOM     12  C   UNL     1       1.145   5.050  -7.614  0.00  0.00    +0.042 C 
BRANCH  12  13
ATOM     13  C   UNL     1       0.097   5.719  -6.787  0.00  0.00    -0.021 A 
ATOM     14  C   UNL     1      -1.191   5.343  -7.086  0.00  0.00    -0.004 A 
ATOM     15  C   UNL     1      -2.213   5.770  -6.265  0.00  0.00    -0.000 A 
ATOM     16  C   UNL     1      -1.917   6.615  -5.233  0.00  0.00    -0.000 A 
ATOM     17  C   UNL     1      -0.658   7.134  -5.042  0.00  0.00    -0.000 A 
ATOM     18  C   UNL     1       0.378   6.693  -5.853  0.00  0.00    -0.004 A 
ENDBRANCH  12  13
ENDBRANCH   2  12
TORSDOF 5
ENDMDL
MODEL 3
REMARK VINA RESULT:      -7.4      0.864      1.789
REMARK  Name = 
REMARK  5 active torsions:
REMARK  status: ('A' for Active; 'I' for Inactive)
REMARK    1  A    between atoms: C_2  and  C_3
REMARK    2  A    between atoms: C_2  and  N_10
REMARK    3  A    between atoms: C_3  and  C_4
REMARK    4  A    between atoms: N_10  and  C_12
REMARK    5  A    between atoms: C_12  and  C_13
REMARK                            x       y       z     vdW  Elec       q    Type
REMARK                         _______ _______ _______ _____ _____    ______ ____
ROOT
ATOM      1  C   UNL     1       2.478   4.163  -8.678  0.00  0.00    +0.018 C 
ATOM      2  C   UNL     1       3.547   5.278  -8.064  0.00  0.00    +0.062 C 
ENDROOT
BRANCH   2   3
ATOM      3  N   UNL     1       2.368   6.132  -7.427  0.00  0.00    -0.269 NA
ATOM      4  C   UNL     1       3.086   7.105  -6.600  0.00  0.00    +0.090 C 
BRANCH   3   5
ATOM      5  C   UNL     1       1.681   5.275  -6.509  0.00  0.00    +0.099 C 
BRANCH   5   6
ATOM      6  C   UNL     1       0.309   5.788  -6.448  0.00  0.00    -0.006 A 
ATOM      7  C   UNL     1       0.059   6.807  -5.541  0.00  0.00    -0.003 A 
ATOM      8  C   UNL     1      -1.200   6.971  -4.976  0.00  0.00    -0.000 A 
ATOM      9  C   UNL     1      -2.235   6.180  -5.438  0.00  0.00    -0.000 A 
ATOM     10  C   UNL     1      -2.017   5.530  -6.643  0.00  0.00    -0.000 A 
ATOM     11  C   UNL     1      -0.752   5.375  -7.196  0.00  0.00    -0.003 A 
ENDBRANCH   5   6
ENDBRANCH   3   5
ENDBRANCH   2   3
BRANCH   2  12
ATOM     12  C   UNL     1       3.555   6.137  -9.485  0.00  0.00    +0.042 C 
BRANCH  12  13
ATOM     13  C   UNL     1       5.002   6.285  -9.819  0.00  0.00    -0.021 A 
ATOM     14  C   UNL     1       5.265   7.186 -10.824  0.00  0.00    -0.004 A 
ATOM     15  C   UNL     1       6.577   7.523 -11.084  0.00  0.00    -0.000 A 
ATOM     16  C   UNL     1       7.568   6.889 -10.389  0.00  0.00    -0.000 A 
ATOM     17  C   UNL     1       7.313   5.860  -9.513  0.00  0.00    -0.000 A 
ATOM     18  C   UNL     1       5.995   5.531  -9.233  0.00  0.00    -0.004 A 
ENDBRANCH  12  13
ENDBRANCH   2  12
TORSDOF 5
ENDMDL
MODEL 4
REMARK VINA RESULT:      -7.2      1.245      2.008
REMARK  Name = 
REMARK  5 active torsions:
REMARK  status: ('A' for Active; 'I' for Inactive)
REMARK    1  A    between atoms: C_2  and  C_3
REMARK    2  A    between atoms: C_2  and  N_10
REMARK    3  A    between atoms: C_3  and  C_4
REMARK    4  A    between atoms: N_10  and  C_12
REMARK    5  A    between atoms: C_12  and  C_13
REMARK                            x       y       z     vdW  Elec       q    Type
REMARK                         _______ _______ _______ _____ _____    ______ ____
ROOT
ATOM      1  C   UNL     1       4.217   7.061  -5.103  0.00  0.00    +0.018 C 
ATOM      2  C   UNL     1       3.246   6.777  -6.422  0.00  0.00    +0.062 C 
ENDROOT
BRANCH   2   3
ATOM      3  N   UNL     1       2.183   5.998  -5.534  0.00  0.00    -0.269 NA
ATOM      4  C   UNL     1       3.012   5.030  -4.815  0.00  0.00    +0.090 C 
BRANCH   3   5
ATOM      5  C   UNL     1       1.375   5.228  -6.430  0.00  0.00    +0.099 C 
BRANCH   5   6
ATOM      6  C   UNL     1       0.029   5.800  -6.332  0.00  0.00    -0.006 A 
ATOM      7  C   UNL     1      -0.130   6.896  -5.496  0.00  0.00    -0.003 A 
ATOM      8  C   UNL     1      -1.346   7.154  -4.875  0.00  0.00    -0.000 A 
ATOM      9  C   UNL     1      -2.435   6.372  -5.215  0.00  0.00    -0.000 A 
ATOM     10  C   UNL     1      -2.313   5.624  -6.375  0.00  0.00    -0.000 A 
ATOM     11  C   UNL     1      -1.090   5.375  -6.984  0.00  0.00    -0.003 A 
ENDBRANCH   5   6
ENDBRANCH   3   5
ENDBRANCH   2   3
BRANCH   2  12
ATOM     12  C   UNL     1       4.091   5.402  -6.818  0.00  0.00    +0.042 C 
BRANCH  12  13
ATOM     13  C   UNL     1       4.686   5.707  -8.153  0.00  0.00    -0.021 A 
ATOM     14  C   UNL     1       3.851   6.386  -9.007  0.00  0.00    -0.004 A 
ATOM     15  C   UNL     1       4.365   6.866 -10.194  0.00  0.00    -0.000 A 
ATOM     16  C   UNL     1       5.662   6.579 -10.511  0.00  0.00    -0.000 A 
ATOM     17  C   UNL     1       6.443   5.749  -9.742  0.00  0.00    -0.000 A 
ATOM     18  C   UNL     1       5.938   5.280  -8.538  0.00  0.00    -0.004 A 
ENDBRANCH  12  13
ENDBRANCH   2  12
TORSDOF 5
ENDMDL
MODEL 5
REMARK VINA RESULT:      -7.2      2.424      3.860
REMARK  Name = 
REMARK  5 active torsions:
REMARK  status: ('A' for Active; 'I' for Inactive)
REMARK    1  A    between atoms: C_2  and  C_3
REMARK    2  A    between atoms: C_2  and  N_10
REMARK    3  A    between atoms: C_3  and  C_4
REMARK    4  A    between atoms: N_10  and  C_12
REMARK    5  A    between atoms: C_12  and  C_13
REMARK                            x       y       z     vdW  Elec       q    Type
REMARK                         _______ _______ _______ _____ _____    ______ ____
ROOT
ATOM      1  C   UNL     1       3.138   6.734  -7.157  0.00  0.00    +0.018 C 
ATOM      2  C   UNL     1       2.953   6.774  -8.808  0.00  0.00    +0.062 C 
ENDROOT
BRANCH   2   3
ATOM      3  N   UNL     1       1.713   5.783  -8.744  0.00  0.00    -0.269 NA
ATOM      4  C   UNL     1       2.058   4.910  -7.620  0.00  0.00    +0.090 C 
BRANCH   3   5
ATOM      5  C   UNL     1       1.778   4.958  -9.911  0.00  0.00    +0.099 C 
BRANCH   5   6
ATOM      6  C   UNL     1       0.989   5.658 -10.929  0.00  0.00    -0.006 A 
ATOM      7  C   UNL     1       1.522   5.716 -12.209  0.00  0.00    -0.003 A 
ATOM      8  C   UNL     1       1.222   6.769 -13.064  0.00  0.00    -0.000 A 
ATOM      9  C   UNL     1       0.273   7.690 -12.663  0.00  0.00    -0.000 A 
ATOM     10  C   UNL     1      -0.536   7.313 -11.602  0.00  0.00    -0.000 A 
ATOM     11  C   UNL     1      -0.223   6.256 -10.756  0.00  0.00    -0.003 A 
ENDBRANCH   5   6
ENDBRANCH   3   5
ENDBRANCH   2   3
BRANCH   2  12
ATOM     12  C   UNL     1       4.062   5.555  -9.018  0.00  0.00    +0.042 C 
BRANCH  12  13
ATOM     13  C   UNL     1       5.185   6.201  -9.759  0.00  0.00    -0.021 A 
ATOM     14  C   UNL     1       6.429   5.706  -9.452  0.00  0.00    -0.004 A 
ATOM     15  C   UNL     1       7.509   6.113 -10.208  0.00  0.00    -0.000 A 
ATOM     16  C   UNL     1       7.313   7.052 -11.180  0.00  0.00    -0.000 A 
ATOM     17  C   UNL     1       6.104   7.679 -11.367  0.00  0.00    -0.000 A 
ATOM     18  C   UNL     1       5.011   7.260 -10.624  0.00  0.00    -0.004 A 
ENDBRANCH  12  13
ENDBRANCH   2  12
TORSDOF 5
ENDMDL
MODEL 6
REMARK VINA RESULT:      -7.1      1.130      6.937
REMARK  Name = 
REMARK  5 active torsions:
REMARK  status: ('A' for Active; 'I' for Inactive)
REMARK    1  A    between atoms: C_2  and  C_3
REMARK    2  A    between atoms: C_2  and  N_10
REMARK    3  A    between atoms: C_3  and  C_4
REMARK    4  A    between atoms: N_10  and  C_12
REMARK    5  A    between atoms: C_12  and  C_13
REMARK                            x       y       z     vdW  Elec       q    Type
REMARK                         _______ _______ _______ _____ _____    ______ ____
ROOT
ATOM      1  C   UNL     1       2.845   3.883  -8.626  0.00  0.00    +0.018 C 
ATOM      2  C   UNL     1       1.722   5.063  -8.957  0.00  0.00    +0.062 C 
ENDROOT
BRANCH   2   3
ATOM      3  N   UNL     1       2.761   5.874  -9.845  0.00  0.00    -0.269 NA
ATOM      4  C   UNL     1       2.071   5.976 -11.133  0.00  0.00    +0.090 C 
BRANCH   3   5
ATOM      5  C   UNL     1       3.879   5.010 -10.071  0.00  0.00    +0.099 C 
BRANCH   5   6
ATOM      6  C   UNL     1       5.064   5.865  -9.950  0.00  0.00    -0.006 A 
ATOM      7  C   UNL     1       5.048   7.064 -10.646  0.00  0.00    -0.003 A 
ATOM      8  C   UNL     1       6.227   7.653 -11.088  0.00  0.00    -0.000 A 
ATOM      9  C   UNL     1       7.427   7.087 -10.702  0.00  0.00    -0.000 A 
ATOM     10  C   UNL     1       7.370   6.191  -9.646  0.00  0.00    -0.000 A 
ATOM     11  C   UNL     1       6.183   5.612  -9.215  0.00  0.00    -0.003 A 
ENDBRANCH   5   6
ENDBRANCH   3   5
ENDBRANCH   2   3
BRANCH   2  12
ATOM     12  C   UNL     1       2.096   5.888  -7.564  0.00  0.00    +0.042 C 
BRANCH  12  13
ATOM     13  C   UNL     1       0.780   6.081  -6.886  0.00  0.00    -0.021 A 
ATOM     14  C   UNL     1      -0.273   5.441  -7.494  0.00  0.00    -0.004 A 
ATOM     15  C   UNL     1      -1.493   5.413  -6.850  0.00  0.00    -0.000 A 
ATOM     16  C   UNL     1      -1.628   6.091  -5.671  0.00  0.00    -0.000 A 
ATOM     17  C   UNL     1      -0.627   6.879  -5.154  0.00  0.00    -0.000 A 
ATOM     18  C   UNL     1       0.607   6.894  -5.787  0.00  0.00    -0.004 A 
ENDBRANCH  12  13
ENDBRANCH   2  12
TORSDOF 5
ENDMDL
MODEL 7
REMARK VINA RESULT:      -7.1      2.538      6.474
REMARK  Name = 
REMARK  5 active torsions:
REMARK  status: ('A' for Active; 'I' for Inactive)
REMARK    1  A    between atoms: C_2  and  C_3
REMARK    2  A    between atoms: C_2  and  N_10
REMARK    3  A    between atoms: C_3  and  C_4
REMARK    4  A    between atoms: N_10  and  C_12
REMARK    5  A    between atoms: C_12  and  C_13
REMARK                            x       y       z     vdW  Elec       q    Type
REMARK                         _______ _______ _______ _____ _____    ______ ____
ROOT
ATOM      1  C   UNL     1       2.255   7.643  -7.915  0.00  0.00    +0.018 C 
ATOM      2  C   UNL     1       2.243   6.930  -6.413  0.00  0.00    +0.062 C 
ENDROOT
BRANCH   2   3
ATOM      3  N   UNL     1       3.600   6.159  -6.714  0.00  0.00    -0.269 NA
ATOM      4  C   UNL     1       3.294   5.441  -7.953  0.00  0.00    +0.090 C 
BRANCH   3   5
ATOM      5  C   UNL     1       3.740   5.153  -5.706  0.00  0.00    +0.099 C 
BRANCH   5   6
ATOM      6  C   UNL     1       4.285   5.846  -4.535  0.00  0.00    -0.006 A 
ATOM      7  C   UNL     1       3.943   5.340  -3.289  0.00  0.00    -0.003 A 
ATOM      8  C   UNL     1       3.882   6.166  -2.173  0.00  0.00    -0.000 A 
ATOM      9  C   UNL     1       4.301   7.477  -2.302  0.00  0.00    -0.000 A 
ATOM     10  C   UNL     1       5.053   7.770  -3.429  0.00  0.00    -0.000 A 
ATOM     11  C   UNL     1       5.105   6.934  -4.537  0.00  0.00    -0.003 A 
ENDBRANCH   5   6
ENDBRANCH   3   5
ENDBRANCH   2   3
BRANCH   2  12
ATOM     12  C   UNL     1       1.284   5.685  -6.951  0.00  0.00    +0.042 C 
BRANCH  12  13
ATOM     13  C   UNL     1      -0.058   5.974  -6.365  0.00  0.00    -0.021 A 
ATOM     14  C   UNL     1      -0.035   6.813  -5.276  0.00  0.00    -0.004 A 
ATOM     15  C   UNL     1      -1.232   7.279  -4.773  0.00  0.00    -0.000 A 
ATOM     16  C   UNL     1      -2.396   6.826  -5.326  0.00  0.00    -0.000 A 
ATOM     17  C   UNL     1      -2.423   5.851  -6.295  0.00  0.00    -0.000 A 
ATOM     18  C   UNL     1      -1.223   5.394  -6.818  0.00  0.00    -0.004 A 
ENDBRANCH  12  13
ENDBRANCH   2  12
TORSDOF 5
ENDMDL
MODEL 8
REMARK VINA RESULT:      -7.1      1.952      6.394
REMARK  Name = 
REMARK  5 active torsions:
REMARK  status: ('A' for Active; 'I' for Inactive)
REMARK    1  A    between atoms: C_2  and  C_3
REMARK    2  A    between atoms: C_2  and  N_10
REMARK    3  A    between atoms: C_3  and  C_4
REMARK    4  A    between atoms: N_10  and  C_12
REMARK    5  A    between atoms: C_12  and  C_13
REMARK                            x       y       z     vdW  Elec       q    Type
REMARK                         _______ _______ _______ _____ _____    ______ ____
ROOT
ATOM      1  C   UNL     1       1.236   6.112  -8.166  0.00  0.00    +0.018 C 
ATOM      2  C   UNL     1       2.850   6.416  -7.912  0.00  0.00    +0.062 C 
ENDROOT
BRANCH   2   3
ATOM      3  N   UNL     1       3.266   5.523  -9.159  0.00  0.00    -0.269 NA
ATOM      4  C   UNL     1       2.434   4.329  -8.990  0.00  0.00    +0.090 C 
BRANCH   3   5
ATOM      5  C   UNL     1       4.613   5.093  -8.932  0.00  0.00    +0.099 C 
BRANCH   5   6
ATOM      6  C   UNL     1       5.427   5.836  -9.899  0.00  0.00    -0.006 A 
ATOM      7  C   UNL     1       6.804   5.702  -9.795  0.00  0.00    -0.003 A 
ATOM      8  C   UNL     1       7.656   6.721 -10.203  0.00  0.00    -0.000 A 
ATOM      9  C   UNL     1       7.108   7.818 -10.841  0.00  0.00    -0.000 A 
ATOM     10  C   UNL     1       5.815   7.667 -11.317  0.00  0.00    -0.000 A 
ATOM     11  C   UNL     1       4.976   6.642 -10.900  0.00  0.00    -0.003 A 
ENDBRANCH   5   6
ENDBRANCH   3   5
ENDBRANCH   2   3
BRANCH   2  12
ATOM     12  C   UNL     1       2.973   5.163  -6.828  0.00  0.00    +0.042 C 
BRANCH  12  13
ATOM     13  C   UNL     1       3.643   5.768  -5.640  0.00  0.00    -0.021 A 
ATOM     14  C   UNL     1       3.956   4.872  -4.646  0.00  0.00    -0.004 A 
ATOM     15  C   UNL     1       4.732   5.300  -3.588  0.00  0.00    -0.000 A 
ATOM     16  C   UNL     1       5.091   6.617  -3.528  0.00  0.00    -0.000 A 
ATOM     17  C   UNL     1       4.628   7.549  -4.426  0.00  0.00    -0.000 A 
ATOM     18  C   UNL     1       3.865   7.121  -5.502  0.00  0.00    -0.004 A 
ENDBRANCH  12  13
ENDBRANCH   2  12
TORSDOF 5
ENDMDL
MODEL 9
REMARK VINA RESULT:      -7.0      1.920      6.305
REMARK  Name = 
REMARK  5 active torsions:
REMARK  status: ('A' for Active; 'I' for Inactive)
REMARK    1  A    between atoms: C_2  and  C_3
REMARK    2  A    between atoms: C_2  and  N_10
REMARK    3  A    between atoms: C_3  and  C_4
REMARK    4  A    between atoms: N_10  and  C_12
REMARK    5  A    between atoms: C_12  and  C_13
REMARK                            x       y       z     vdW  Elec       q    Type
REMARK                         _______ _______ _______ _____ _____    ______ ____
ROOT
ATOM      1  C   UNL     1       1.568   6.485  -7.498  0.00  0.00    +0.018 C 
ATOM      2  C   UNL     1       3.217   6.477  -7.701  0.00  0.00    +0.062 C 
ENDROOT
BRANCH   2   3
ATOM      3  N   UNL     1       3.089   5.764  -9.116  0.00  0.00    -0.269 NA
ATOM      4  C   UNL     1       1.976   4.835  -8.908  0.00  0.00    +0.090 C 
BRANCH   3   5
ATOM      5  C   UNL     1       4.253   4.946  -9.277  0.00  0.00    +0.099 C 
BRANCH   5   6
ATOM      6  C   UNL     1       5.330   5.867  -9.648  0.00  0.00    -0.006 A 
ATOM      7  C   UNL     1       5.003   6.902 -10.513  0.00  0.00    -0.003 A 
ATOM      8  C   UNL     1       5.952   7.450 -11.367  0.00  0.00    -0.000 A 
ATOM      9  C   UNL     1       7.265   7.035 -11.242  0.00  0.00    -0.000 A 
ATOM     10  C   UNL     1       7.586   6.366 -10.072  0.00  0.00    -0.000 A 
ATOM     11  C   UNL     1       6.625   5.823  -9.228  0.00  0.00    -0.003 A 
ENDBRANCH   5   6
ENDBRANCH   3   5
ENDBRANCH   2   3
BRANCH   2  12
ATOM     12  C   UNL     1       3.369   5.048  -6.867  0.00  0.00    +0.042 C 
BRANCH  12  13
ATOM     13  C   UNL     1       3.946   5.450  -5.551  0.00  0.00    -0.021 A 
ATOM     14  C   UNL     1       4.618   6.649  -5.565  0.00  0.00    -0.004 A 
ATOM     15  C   UNL     1       5.035   7.189  -4.367  0.00  0.00    -0.000 A 
ATOM     16  C   UNL     1       4.835   6.475  -3.220  0.00  0.00    -0.000 A 
ATOM     17  C   UNL     1       4.326   5.198  -3.225  0.00  0.00    -0.000 A 
ATOM     18  C   UNL     1       3.887   4.657  -4.425  0.00  0.00    -0.004 A 
ENDBRANCH  12  13
ENDBRANCH   2  12
TORSDOF 5
ENDMDL
