MODEL 1
REMARK VINA RESULT:      -7.0      0.000      0.000
REMARK  Name = 
REMARK  3 active torsions:
REMARK  status: ('A' for Active; 'I' for Inactive)
REMARK    1  A    between atoms: N_4  and  C_5
REMARK    2  A    between atoms: C_7  and  N_8
REMARK    3  A    between atoms: C_11  and  C_12
REMARK                            x       y       z     vdW  Elec       q    Type
REMARK                         _______ _______ _______ _____ _____    ______ ____
ROOT
ATOM      1  C   UNL     1      -0.260   5.391  -1.813  0.00  0.00    +0.210 C 
ATOM      2  O   UNL     1      -0.511   6.867  -1.470  0.00  0.00    -0.333 OA
ATOM      3  C   UNL     1       0.266   6.459  -0.236  0.00  0.00    +0.180 C 
ATOM      4  C   UNL     1       1.725   6.697  -1.108  0.00  0.00    +0.221 C 
ATOM      5  C   UNL     1       1.248   5.785  -2.366  0.00  0.00    +0.088 C 
ENDROOT
BRANCH   1  13
ATOM      6  C   UNL     1      -0.076   5.580  -6.646  0.00  0.00    +0.038 C 
ATOM      7  C   UNL     1      -0.680   5.632  -5.566  0.00  0.00    +0.053 A 
ATOM      8  C   UNL     1      -2.069   5.671  -5.592  0.00  0.00    +0.280 A 
ATOM      9  O   UNL     1      -2.602   5.790  -6.712  0.00  0.00    -0.265 OA
ATOM     10  N   UNL     1      -2.817   5.642  -4.463  0.00  0.00    -0.153 NA
ATOM     11  C   UNL     1      -2.218   5.384  -3.278  0.00  0.00    +0.354 A 
ATOM     12  O   UNL     1      -2.862   4.823  -2.343  0.00  0.00    -0.244 OA
ATOM     13  N   UNL     1      -0.865   5.457  -3.274  0.00  0.00    -0.256 N 
ATOM     14  C   UNL     1      -0.094   5.596  -4.306  0.00  0.00    +0.082 A 
ENDBRANCH   1  13
BRANCH   4  15
ATOM     15  N   UNL     1       2.395   5.504  -0.359  0.00  0.00    +0.090 NA
ATOM     16  N   UNL     1       3.615   5.431  -0.403  0.00  0.00    -0.014 NA
ATOM     17  N   UNL     1       4.588   4.760  -0.791  0.00  0.00    -0.328 NA
ENDBRANCH   4  15
BRANCH   3  18
ATOM     18  C   UNL     1       0.214   7.956   0.421  0.00  0.00    +0.214 C 
ATOM     19  O   UNL     1      -0.960   8.552   0.145  0.00  0.00    -0.218 OA
ENDBRANCH   3  18
TORSDOF 3
ENDMDL
MODEL 2
REMARK VINA RESULT:      -6.8      3.963      5.627
REMARK  Name = 
REMARK  3 active torsions:
REMARK  status: ('A' for Active; 'I' for Inactive)
REMARK    1  A    between atoms: N_4  and  C_5
REMARK    2  A    between atoms: C_7  and  N_8
REMARK    3  A    between atoms: C_11  and  C_12
REMARK                            x       y       z     vdW  Elec       q    Type
REMARK                         _______ _______ _______ _____ _____    ______ ____
ROOT
ATOM      1  C   UNL     1       0.769   6.780  -6.200  0.00  0.00    +0.210 C 
ATOM      2  O   UNL     1       1.994   6.039  -5.647  0.00  0.00    -0.333 OA
ATOM      3  C   UNL     1       1.333   6.422  -4.340  0.00  0.00    +0.180 C 
ATOM      4  C   UNL     1       0.312   5.051  -4.485  0.00  0.00    +0.221 C 
ATOM      5  C   UNL     1      -0.137   5.410  -6.006  0.00  0.00    +0.088 C 
ENDROOT
BRANCH   1  13
ATOM      6  C   UNL     1       0.038   4.476 -10.394  0.00  0.00    +0.038 C 
ATOM      7  C   UNL     1       0.681   5.232  -9.652  0.00  0.00    +0.053 A 
ATOM      8  C   UNL     1       1.731   5.955 -10.203  0.00  0.00    +0.280 A 
ATOM      9  O   UNL     1       2.038   5.683 -11.380  0.00  0.00    -0.265 OA
ATOM     10  N   UNL     1       2.435   6.869  -9.493  0.00  0.00    -0.153 NA
ATOM     11  C   UNL     1       1.998   7.233  -8.265  0.00  0.00    +0.354 A 
ATOM     12  O   UNL     1       2.246   8.390  -7.813  0.00  0.00    -0.244 OA
ATOM     13  N   UNL     1       1.043   6.440  -7.721  0.00  0.00    -0.256 N 
ATOM     14  C   UNL     1       0.410   5.475  -8.311  0.00  0.00    +0.082 A 
ENDBRANCH   1  13
BRANCH   4  15
ATOM     15  N   UNL     1      -0.872   5.832  -3.836  0.00  0.00    +0.090 NA
ATOM     16  N   UNL     1      -1.534   5.244  -2.993  0.00  0.00    -0.014 NA
ATOM     17  N   UNL     1      -2.657   4.792  -2.704  0.00  0.00    -0.328 NA
ENDBRANCH   4  15
BRANCH   3  18
ATOM     18  C   UNL     1       2.473   5.691  -3.425  0.00  0.00    +0.214 C 
ATOM     19  O   UNL     1       3.699   5.908  -3.936  0.00  0.00    -0.218 OA
ENDBRANCH   3  18
TORSDOF 3
ENDMDL
MODEL 3
REMARK VINA RESULT:      -6.7      3.214      4.013
REMARK  Name = 
REMARK  3 active torsions:
REMARK  status: ('A' for Active; 'I' for Inactive)
REMARK    1  A    between atoms: N_4  and  C_5
REMARK    2  A    between atoms: C_7  and  N_8
REMARK    3  A    between atoms: C_11  and  C_12
REMARK                            x       y       z     vdW  Elec       q    Type
REMARK                         _______ _______ _______ _____ _____    ______ ____
ROOT
ATOM      1  C   UNL     1       2.050   5.372  -3.601  0.00  0.00    +0.210 C 
ATOM      2  O   UNL     1       2.220   6.817  -3.112  0.00  0.00    -0.333 OA
ATOM      3  C   UNL     1       3.658   6.514  -3.476  0.00  0.00    +0.180 C 
ATOM      4  C   UNL     1       3.296   6.891  -5.110  0.00  0.00    +0.221 C 
ATOM      5  C   UNL     1       1.997   5.914  -5.162  0.00  0.00    +0.088 C 
ENDROOT
BRANCH   1  13
ATOM      6  C   UNL     1      -2.465   5.662  -5.320  0.00  0.00    +0.038 C 
ATOM      7  C   UNL     1      -1.644   5.590  -4.397  0.00  0.00    +0.053 A 
ATOM      8  C   UNL     1      -2.120   5.381  -3.108  0.00  0.00    +0.280 A 
ATOM      9  O   UNL     1      -3.357   5.420  -2.959  0.00  0.00    -0.265 OA
ATOM     10  N   UNL     1      -1.296   5.203  -2.049  0.00  0.00    -0.153 NA
ATOM     11  C   UNL     1       0.030   5.037  -2.262  0.00  0.00    +0.354 A 
ATOM     12  O   UNL     1       0.729   4.357  -1.456  0.00  0.00    -0.244 OA
ATOM     13  N   UNL     1       0.470   5.351  -3.505  0.00  0.00    -0.256 N 
ATOM     14  C   UNL     1      -0.261   5.640  -4.535  0.00  0.00    +0.082 A 
ENDBRANCH   1  13
BRANCH   4  15
ATOM     15  N   UNL     1       4.280   5.788  -5.608  0.00  0.00    +0.090 NA
ATOM     16  N   UNL     1       4.571   5.793  -6.796  0.00  0.00    -0.014 NA
ATOM     17  N   UNL     1       4.508   5.168  -7.870  0.00  0.00    -0.328 NA
ENDBRANCH   4  15
BRANCH   3  18
ATOM     18  C   UNL     1       4.187   8.006  -3.069  0.00  0.00    +0.214 C 
ATOM     19  O   UNL     1       3.695   8.372  -1.872  0.00  0.00    -0.218 OA
ENDBRANCH   3  18
TORSDOF 3
ENDMDL
MODEL 4
REMARK VINA RESULT:      -6.6      6.544      8.920
REMARK  Name = 
REMARK  3 active torsions:
REMARK  status: ('A' for Active; 'I' for Inactive)
REMARK    1  A    between atoms: N_4  and  C_5
REMARK    2  A    between atoms: C_7  and  N_8
REMARK    3  A    between atoms: C_11  and  C_12
REMARK                            x       y       z     vdW  Elec       q    Type
REMARK                         _______ _______ _______ _____ _____    ______ ____
ROOT
ATOM      1  C   UNL     1       3.910   6.866  -9.308  0.00  0.00    +0.210 C 
ATOM      2  O   UNL     1       2.726   6.096  -9.909  0.00  0.00    -0.333 OA
ATOM      3  C   UNL     1       3.474   6.424 -11.184  0.00  0.00    +0.180 C 
ATOM      4  C   UNL     1       4.485   5.064 -10.909  0.00  0.00    +0.221 C 
ATOM      5  C   UNL     1       4.828   5.493  -9.379  0.00  0.00    +0.088 C 
ENDROOT
BRANCH   1  13
ATOM      6  C   UNL     1       4.473   4.903  -4.920  0.00  0.00    +0.038 C 
ATOM      7  C   UNL     1       3.832   5.545  -5.763  0.00  0.00    +0.053 A 
ATOM      8  C   UNL     1       2.673   6.193  -5.352  0.00  0.00    +0.280 A 
ATOM      9  O   UNL     1       2.289   5.962  -4.189  0.00  0.00    -0.265 OA
ATOM     10  N   UNL     1       1.954   6.987  -6.180  0.00  0.00    -0.153 NA
ATOM     11  C   UNL     1       2.463   7.319  -7.388  0.00  0.00    +0.354 A 
ATOM     12  O   UNL     1       2.149   8.415  -7.938  0.00  0.00    -0.244 OA
ATOM     13  N   UNL     1       3.533   6.592  -7.795  0.00  0.00    -0.256 N 
ATOM     14  C   UNL     1       4.199   5.733  -7.090  0.00  0.00    +0.082 A 
ENDBRANCH   1  13
BRANCH   4  15
ATOM     15  N   UNL     1       5.708   5.821 -11.510  0.00  0.00    +0.090 NA
ATOM     16  N   UNL     1       6.389   5.221 -12.330  0.00  0.00    -0.014 NA
ATOM     17  N   UNL     1       7.512   4.745 -12.579  0.00  0.00    -0.328 NA
ENDBRANCH   4  15
BRANCH   3  18
ATOM     18  C   UNL     1       2.399   5.647 -12.141  0.00  0.00    +0.214 C 
ATOM     19  O   UNL     1       1.200   5.568 -11.537  0.00  0.00    -0.218 OA
ENDBRANCH   3  18
TORSDOF 3
ENDMDL
MODEL 5
REMARK VINA RESULT:      -6.3      3.628      5.135
REMARK  Name = 
REMARK  3 active torsions:
REMARK  status: ('A' for Active; 'I' for Inactive)
REMARK    1  A    between atoms: N_4  and  C_5
REMARK    2  A    between atoms: C_7  and  N_8
REMARK    3  A    between atoms: C_11  and  C_12
REMARK                            x       y       z     vdW  Elec       q    Type
REMARK                         _______ _______ _______ _____ _____    ______ ____
ROOT
ATOM      1  C   UNL     1       1.809   6.447  -4.190  0.00  0.00    +0.210 C 
ATOM      2  O   UNL     1       2.680   5.695  -3.174  0.00  0.00    -0.333 OA
ATOM      3  C   UNL     1       1.605   6.206  -2.239  0.00  0.00    +0.180 C 
ATOM      4  C   UNL     1       0.619   4.875  -2.689  0.00  0.00    +0.221 C 
ATOM      5  C   UNL     1       0.802   5.138  -4.283  0.00  0.00    +0.088 C 
ENDROOT
BRANCH   1  13
ATOM      6  C   UNL     1       2.466   4.021  -8.326  0.00  0.00    +0.038 C 
ATOM      7  C   UNL     1       2.867   4.722  -7.388  0.00  0.00    +0.053 A 
ATOM      8  C   UNL     1       4.147   5.257  -7.468  0.00  0.00    +0.280 A 
ATOM      9  O   UNL     1       4.852   4.874  -8.422  0.00  0.00    -0.265 OA
ATOM     10  N   UNL     1       4.641   6.104  -6.533  0.00  0.00    -0.153 NA
ATOM     11  C   UNL     1       3.812   6.599  -5.585  0.00  0.00    +0.354 A 
ATOM     12  O   UNL     1       4.033   7.734  -5.069  0.00  0.00    -0.244 OA
ATOM     13  N   UNL     1       2.611   5.981  -5.473  0.00  0.00    -0.256 N 
ATOM     14  C   UNL     1       2.125   5.081  -6.269  0.00  0.00    +0.082 A 
ENDBRANCH   1  13
BRANCH   4  15
ATOM     15  N   UNL     1      -0.663   5.755  -2.581  0.00  0.00    +0.090 NA
ATOM     16  N   UNL     1      -1.706   5.190  -2.286  0.00  0.00    -0.014 NA
ATOM     17  N   UNL     1      -2.852   4.888  -2.665  0.00  0.00    -0.328 NA
ENDBRANCH   4  15
BRANCH   3  18
ATOM     18  C   UNL     1       2.263   5.494  -0.922  0.00  0.00    +0.214 C 
ATOM     19  O   UNL     1       2.704   6.423  -0.055  0.00  0.00    -0.218 OA
ENDBRANCH   3  18
TORSDOF 3
ENDMDL
MODEL 6
REMARK VINA RESULT:      -6.3      5.138      7.952
REMARK  Name = 
REMARK  3 active torsions:
REMARK  status: ('A' for Active; 'I' for Inactive)
REMARK    1  A    between atoms: N_4  and  C_5
REMARK    2  A    between atoms: C_7  and  N_8
REMARK    3  A    between atoms: C_11  and  C_12
REMARK                            x       y       z     vdW  Elec       q    Type
REMARK                         _______ _______ _______ _____ _____    ______ ____
ROOT
ATOM      1  C   UNL     1       1.579   4.774  -8.550  0.00  0.00    +0.210 C 
ATOM      2  O   UNL     1       2.445   6.027  -8.361  0.00  0.00    -0.333 OA
ATOM      3  C   UNL     1       2.966   5.575  -9.708  0.00  0.00    +0.180 C 
ATOM      4  C   UNL     1       1.634   6.358 -10.456  0.00  0.00    +0.221 C 
ATOM      5  C   UNL     1       0.535   5.649  -9.490  0.00  0.00    +0.088 C 
ENDROOT
BRANCH   1  13
ATOM      6  C   UNL     1      -2.440   6.002  -6.148  0.00  0.00    +0.038 C 
ATOM      7  C   UNL     1      -1.244   5.685  -6.200  0.00  0.00    +0.053 A 
ATOM      8  C   UNL     1      -0.589   5.398  -5.009  0.00  0.00    +0.280 A 
ATOM      9  O   UNL     1      -1.222   5.618  -3.958  0.00  0.00    -0.265 OA
ATOM     10  N   UNL     1       0.692   4.960  -4.972  0.00  0.00    -0.153 NA
ATOM     11  C   UNL     1       1.305   4.609  -6.126  0.00  0.00    +0.354 A 
ATOM     12  O   UNL     1       2.217   3.730  -6.126  0.00  0.00    -0.244 OA
ATOM     13  N   UNL     1       0.682   4.998  -7.265  0.00  0.00    -0.256 N 
ATOM     14  C   UNL     1      -0.497   5.527  -7.361  0.00  0.00    +0.082 A 
ENDBRANCH   1  13
BRANCH   4  15
ATOM     15  N   UNL     1       1.557   5.243 -11.543  0.00  0.00    +0.090 NA
ATOM     16  N   UNL     1       1.503   5.604 -12.711  0.00  0.00    -0.014 NA
ATOM     17  N   UNL     1       0.816   5.620 -13.748  0.00  0.00    -0.328 NA
ENDBRANCH   4  15
BRANCH   3  18
ATOM     18  C   UNL     1       4.003   6.831  -9.849  0.00  0.00    +0.214 C 
ATOM     19  O   UNL     1       5.217   6.399 -10.235  0.00  0.00    -0.218 OA
ENDBRANCH   3  18
TORSDOF 3
ENDMDL
MODEL 7
REMARK VINA RESULT:      -6.3      7.808     10.295
REMARK  Name = 
REMARK  3 active torsions:
REMARK  status: ('A' for Active; 'I' for Inactive)
REMARK    1  A    between atoms: N_4  and  C_5
REMARK    2  A    between atoms: C_7  and  N_8
REMARK    3  A    between atoms: C_11  and  C_12
REMARK                            x       y       z     vdW  Elec       q    Type
REMARK                         _______ _______ _______ _____ _____    ______ ____
ROOT
ATOM      1  C   UNL     1       4.177   6.107  -9.781  0.00  0.00    +0.210 C 
ATOM      2  O   UNL     1       4.048   4.642  -9.340  0.00  0.00    -0.333 OA
ATOM      3  C   UNL     1       2.863   5.223  -8.598  0.00  0.00    +0.180 C 
ATOM      4  C   UNL     1       1.933   5.088 -10.034  0.00  0.00    +0.221 C 
ATOM      5  C   UNL     1       3.039   5.845 -10.953  0.00  0.00    +0.088 C 
ENDROOT
BRANCH   1  13
ATOM      6  C   UNL     1       6.179   5.720 -14.170  0.00  0.00    +0.038 C 
ATOM      7  C   UNL     1       6.207   5.616 -12.937  0.00  0.00    +0.053 A 
ATOM      8  C   UNL     1       7.425   5.338 -12.328  0.00  0.00    +0.280 A 
ATOM      9  O   UNL     1       8.378   5.074 -13.086  0.00  0.00    -0.265 OA
ATOM     10  N   UNL     1       7.570   5.291 -10.983  0.00  0.00    -0.153 NA
ATOM     11  C   UNL     1       6.554   5.706 -10.192  0.00  0.00    +0.354 A 
ATOM     12  O   UNL     1       6.790   6.193  -9.047  0.00  0.00    -0.244 OA
ATOM     13  N   UNL     1       5.358   5.867 -10.808  0.00  0.00    -0.256 N 
ATOM     14  C   UNL     1       5.129   5.814 -12.082  0.00  0.00    +0.082 A 
ENDBRANCH   1  13
BRANCH   4  15
ATOM     15  N   UNL     1       1.163   6.399  -9.688  0.00  0.00    +0.090 NA
ATOM     16  N   UNL     1       0.213   6.694 -10.401  0.00  0.00    -0.014 NA
ATOM     17  N   UNL     1      -0.245   7.524 -11.206  0.00  0.00    -0.328 NA
ENDBRANCH   4  15
BRANCH   3  18
ATOM     18  C   UNL     1       2.416   3.782  -7.968  0.00  0.00    +0.214 C 
ATOM     19  O   UNL     1       1.956   3.938  -6.714  0.00  0.00    -0.218 OA
ENDBRANCH   3  18
TORSDOF 3
ENDMDL
MODEL 8
REMARK VINA RESULT:      -6.2      5.745      8.389
REMARK  Name = 
REMARK  3 active torsions:
REMARK  status: ('A' for Active; 'I' for Inactive)
REMARK    1  A    between atoms: N_4  and  C_5
REMARK    2  A    between atoms: C_7  and  N_8
REMARK    3  A    between atoms: C_11  and  C_12
REMARK                            x       y       z     vdW  Elec       q    Type
REMARK                         _______ _______ _______ _____ _____    ______ ____
ROOT
ATOM      1  C   UNL     1       3.600   4.986  -7.833  0.00  0.00    +0.210 C 
ATOM      2  O   UNL     1       4.948   5.564  -8.283  0.00  0.00    -0.333 OA
ATOM      3  C   UNL     1       4.409   5.130  -9.629  0.00  0.00    +0.180 C 
ATOM      4  C   UNL     1       3.519   6.595  -9.715  0.00  0.00    +0.221 C 
ATOM      5  C   UNL     1       2.862   6.409  -8.240  0.00  0.00    +0.088 C 
ENDROOT
BRANCH   1  13
ATOM      6  C   UNL     1       5.083   7.798  -4.183  0.00  0.00    +0.038 C 
ATOM      7  C   UNL     1       4.550   6.776  -4.637  0.00  0.00    +0.053 A 
ATOM      8  C   UNL     1       3.898   5.927  -3.752  0.00  0.00    +0.280 A 
ATOM      9  O   UNL     1       4.018   6.189  -2.539  0.00  0.00    -0.265 OA
ATOM     10  N   UNL     1       3.213   4.834  -4.165  0.00  0.00    -0.153 NA
ATOM     11  C   UNL     1       2.994   4.651  -5.487  0.00  0.00    +0.354 A 
ATOM     12  O   UNL     1       1.970   4.023  -5.886  0.00  0.00    -0.244 OA
ATOM     13  N   UNL     1       3.727   5.430  -6.319  0.00  0.00    -0.256 N 
ATOM     14  C   UNL     1       4.490   6.421  -5.980  0.00  0.00    +0.082 A 
ENDBRANCH   1  13
BRANCH   4  15
ATOM     15  N   UNL     1       2.348   5.869 -10.446  0.00  0.00    +0.090 NA
ATOM     16  N   UNL     1       1.412   6.559 -10.825  0.00  0.00    -0.014 NA
ATOM     17  N   UNL     1       0.197   6.795 -10.704  0.00  0.00    -0.328 NA
ENDBRANCH   4  15
BRANCH   3  18
ATOM     18  C   UNL     1       5.716   5.676 -10.448  0.00  0.00    +0.214 C 
ATOM     19  O   UNL     1       6.813   5.627  -9.672  0.00  0.00    -0.218 OA
ENDBRANCH   3  18
TORSDOF 3
ENDMDL
MODEL 9
REMARK VINA RESULT:      -6.2      5.244      7.120
REMARK  Name = 
REMARK  3 active torsions:
REMARK  status: ('A' for Active; 'I' for Inactive)
REMARK    1  A    between atoms: N_4  and  C_5
REMARK    2  A    between atoms: C_7  and  N_8
REMARK    3  A    between atoms: C_11  and  C_12
REMARK                            x       y       z     vdW  Elec       q    Type
REMARK                         _______ _______ _______ _____ _____    ______ ____
ROOT
ATOM      1  C   UNL     1       2.426   5.556  -8.623  0.00  0.00    +0.210 C 
ATOM      2  O   UNL     1       1.057   5.432  -7.940  0.00  0.00    -0.333 OA
ATOM      3  C   UNL     1       1.949   5.145  -6.750  0.00  0.00    +0.180 C 
ATOM      4  C   UNL     1       2.140   6.835  -6.520  0.00  0.00    +0.221 C 
ATOM      5  C   UNL     1       2.553   7.109  -8.069  0.00  0.00    +0.088 C 
ENDROOT
BRANCH   1  13
ATOM      6  C   UNL     1      -0.757   7.682 -11.587  0.00  0.00    +0.038 C 
ATOM      7  C   UNL     1       0.257   7.005 -11.365  0.00  0.00    +0.053 A 
ATOM      8  C   UNL     1       1.083   6.689 -12.437  0.00  0.00    +0.280 A 
ATOM      9  O   UNL     1       0.664   6.994 -13.571  0.00  0.00    -0.265 OA
ATOM     10  N   UNL     1       2.255   6.029 -12.281  0.00  0.00    -0.153 NA
ATOM     11  C   UNL     1       2.740   5.827 -11.034  0.00  0.00    +0.354 A 
ATOM     12  O   UNL     1       3.988   5.737 -10.838  0.00  0.00    -0.244 OA
ATOM     13  N   UNL     1       1.868   6.051 -10.020  0.00  0.00    -0.256 N 
ATOM     14  C   UNL     1       0.688   6.576 -10.115  0.00  0.00    +0.082 A 
ENDBRANCH   1  13
BRANCH   4  15
ATOM     15  N   UNL     1       3.613   6.630  -6.051  0.00  0.00    +0.090 NA
ATOM     16  N   UNL     1       3.948   7.172  -5.008  0.00  0.00    -0.014 NA
ATOM     17  N   UNL     1       4.691   8.024  -4.488  0.00  0.00    -0.328 NA
ENDBRANCH   4  15
BRANCH   3  18
ATOM     18  C   UNL     1       0.694   4.973  -5.716  0.00  0.00    +0.214 C 
ATOM     19  O   UNL     1      -0.459   4.828  -6.393  0.00  0.00    -0.218 OA
ENDBRANCH   3  18
TORSDOF 3
ENDMDL
