MODEL 1
REMARK VINA RESULT:      -8.1      0.000      0.000
REMARK  Name = 
REMARK  3 active torsions:
REMARK  status: ('A' for Active; 'I' for Inactive)
REMARK    1  A    between atoms: C_2  and  C_3
REMARK    2  A    between atoms: C_9  and  C_11
REMARK    3  A    between atoms: C_11  and  C_13
REMARK                            x       y       z     vdW  Elec       q    Type
REMARK                         _______ _______ _______ _____ _____    ______ ____
ROOT
ATOM      1  C   UNL     1       0.691   6.611  -4.160  0.00  0.00    +0.168 C 
ATOM      2  N   UNL     1       0.494   6.959  -5.709  0.00  0.00    -0.123 NA
ENDROOT
BRANCH   1   3
ATOM      3  C   UNL     1      -0.513   5.514  -3.917  0.00  0.00    +0.027 C 
ATOM      4  C   UNL     1      -0.038   5.382  -2.549  0.00  0.00    +0.002 C 
ATOM      5  C   UNL     1      -0.821   6.484  -1.605  0.00  0.00    +0.002 C 
ATOM      6  C   UNL     1      -2.188   5.614  -1.401  0.00  0.00    +0.030 C 
ATOM      7  C   UNL     1      -2.868   5.634  -2.736  0.00  0.00    +0.127 C 
ATOM      8  C   UNL     1      -3.119   5.120  -3.760  0.00  0.00    +0.030 C 
ATOM      9  C   UNL     1      -1.612   5.683  -3.341  0.00  0.00    +0.002 C 
ATOM     10  O   UNL     1      -3.946   6.467  -2.735  0.00  0.00    -0.226 OA
ATOM     11  C   UNL     1      -1.690   7.234  -2.810  0.00  0.00    +0.000 C 
ATOM     12  C   UNL     1      -1.932   6.024  -3.906  0.00  0.00    +0.032 C 
ATOM     13  C   UNL     1      -1.263   5.827  -4.936  0.00  0.00    +0.002 C 
ENDBRANCH   1   3
BRANCH   1  16
ATOM     14  C   UNL     1       3.923   6.014  -2.894  0.00  0.00    +0.167 C 
ATOM     15  N   UNL     1       3.061   5.233  -3.960  0.00  0.00    -0.269 N 
ATOM     16  C   UNL     1       1.756   5.392  -4.210  0.00  0.00    +0.244 C 
ATOM     17  O   UNL     1       1.773   5.354  -5.440  0.00  0.00    -0.273 OA
ATOM     18  C   UNL     1       4.331   5.386  -4.897  0.00  0.00    +0.076 C 
ATOM     19  C   UNL     1       4.510   7.066  -4.731  0.00  0.00    +0.023 C 
ATOM     20  C   UNL     1       3.658   6.437  -6.064  0.00  0.00    +0.022 C 
ATOM     21  C   UNL     1       3.257   7.297  -3.693  0.00  0.00    +0.037 C 
BRANCH  14  23
ATOM     22  N   UNL     1       3.135   5.321  -0.767  0.00  0.00    -0.194 NA
ATOM     23  C   UNL     1       2.802   5.857  -1.755  0.00  0.00    +0.093 C 
ENDBRANCH  14  23
ENDBRANCH   1  16
TORSDOF 3
ENDMDL
MODEL 2
REMARK VINA RESULT:      -8.0      1.297      1.729
REMARK  Name = 
REMARK  3 active torsions:
REMARK  status: ('A' for Active; 'I' for Inactive)
REMARK    1  A    between atoms: C_2  and  C_3
REMARK    2  A    between atoms: C_9  and  C_11
REMARK    3  A    between atoms: C_11  and  C_13
REMARK                            x       y       z     vdW  Elec       q    Type
REMARK                         _______ _______ _______ _____ _____    ______ ____
ROOT
ATOM      1  C   UNL     1       1.425   6.630  -4.813  0.00  0.00    +0.168 C 
ATOM      2  N   UNL     1       1.988   7.037  -6.254  0.00  0.00    -0.123 NA
ENDROOT
BRANCH   1   3
ATOM      3  C   UNL     1       0.166   5.649  -5.220  0.00  0.00    +0.027 C 
ATOM      4  C   UNL     1      -0.117   5.519  -3.801  0.00  0.00    +0.002 C 
ATOM      5  C   UNL     1      -1.163   6.714  -3.355  0.00  0.00    +0.002 C 
ATOM      6  C   UNL     1      -2.522   5.971  -3.874  0.00  0.00    +0.030 C 
ATOM      7  C   UNL     1      -2.442   6.008  -5.370  0.00  0.00    +0.127 C 
ATOM      8  C   UNL     1      -2.195   5.486  -6.390  0.00  0.00    +0.030 C 
ATOM      9  C   UNL     1      -1.053   5.930  -5.267  0.00  0.00    +0.002 C 
ATOM     10  O   UNL     1      -3.297   6.931  -5.893  0.00  0.00    -0.226 OA
ATOM     11  C   UNL     1      -1.244   7.498  -4.820  0.00  0.00    +0.000 C 
ATOM     12  C   UNL     1      -1.017   6.279  -5.910  0.00  0.00    +0.032 C 
ATOM     13  C   UNL     1       0.055   5.994  -6.472  0.00  0.00    +0.002 C 
ENDBRANCH   1   3
BRANCH   1  16
ATOM     14  C   UNL     1       3.778   5.742  -2.348  0.00  0.00    +0.167 C 
ATOM     15  N   UNL     1       3.365   5.035  -3.696  0.00  0.00    -0.269 N 
ATOM     16  C   UNL     1       2.301   5.314  -4.456  0.00  0.00    +0.244 C 
ATOM     17  O   UNL     1       2.819   5.262  -5.571  0.00  0.00    -0.273 OA
ATOM     18  C   UNL     1       4.917   5.056  -4.023  0.00  0.00    +0.076 C 
ATOM     19  C   UNL     1       5.164   6.714  -3.748  0.00  0.00    +0.023 C 
ATOM     20  C   UNL     1       4.883   6.154  -5.332  0.00  0.00    +0.022 C 
ATOM     21  C   UNL     1       3.621   7.074  -3.312  0.00  0.00    +0.037 C 
BRANCH  14  23
ATOM     22  N   UNL     1       2.109   5.074  -0.802  0.00  0.00    -0.194 NA
ATOM     23  C   UNL     1       2.278   5.704  -1.775  0.00  0.00    +0.093 C 
ENDBRANCH  14  23
ENDBRANCH   1  16
TORSDOF 3
ENDMDL
MODEL 3
REMARK VINA RESULT:      -8.0      2.327      3.310
REMARK  Name = 
REMARK  3 active torsions:
REMARK  status: ('A' for Active; 'I' for Inactive)
REMARK    1  A    between atoms: C_2  and  C_3
REMARK    2  A    between atoms: C_9  and  C_11
REMARK    3  A    between atoms: C_11  and  C_13
REMARK                            x       y       z     vdW  Elec       q    Type
REMARK                         _______ _______ _______ _____ _____    ______ ____
ROOT
ATOM      1  C   UNL     1       0.952   6.157  -7.254  0.00  0.00    +0.168 C 
ATOM      2  N   UNL     1       0.279   6.206  -8.704  0.00  0.00    -0.123 NA
ENDROOT
BRANCH   1   3
ATOM      3  C   UNL     1      -0.140   5.251  -6.418  0.00  0.00    +0.027 C 
ATOM      4  C   UNL     1       0.803   5.241  -5.312  0.00  0.00    +0.002 C 
ATOM      5  C   UNL     1       0.500   6.541  -4.343  0.00  0.00    +0.002 C 
ATOM      6  C   UNL     1      -0.743   5.872  -3.521  0.00  0.00    +0.030 C 
ATOM      7  C   UNL     1      -1.870   5.799  -4.506  0.00  0.00    +0.127 C 
ATOM      8  C   UNL     1      -2.517   5.191  -5.272  0.00  0.00    +0.030 C 
ATOM      9  C   UNL     1      -0.931   5.621  -5.522  0.00  0.00    +0.002 C 
ATOM     10  O   UNL     1      -2.816   6.747  -4.253  0.00  0.00    -0.226 OA
ATOM     11  C   UNL     1      -0.708   7.226  -5.260  0.00  0.00    +0.000 C 
ATOM     12  C   UNL     1      -1.417   5.922  -5.981  0.00  0.00    +0.032 C 
ATOM     13  C   UNL     1      -1.194   5.517  -7.136  0.00  0.00    +0.002 C 
ENDBRANCH   1   3
BRANCH   1  16
ATOM     14  C   UNL     1       4.422   5.554  -7.201  0.00  0.00    +0.167 C 
ATOM     15  N   UNL     1       3.209   4.624  -7.592  0.00  0.00    -0.269 N 
ATOM     16  C   UNL     1       1.912   4.856  -7.361  0.00  0.00    +0.244 C 
ATOM     17  O   UNL     1       1.440   4.501  -8.440  0.00  0.00    -0.273 OA
ATOM     18  C   UNL     1       4.004   4.387  -8.944  0.00  0.00    +0.076 C 
ATOM     19  C   UNL     1       4.232   6.023  -9.338  0.00  0.00    +0.023 C 
ATOM     20  C   UNL     1       2.922   5.169 -10.011  0.00  0.00    +0.022 C 
ATOM     21  C   UNL     1       3.493   6.652  -8.013  0.00  0.00    +0.037 C 
BRANCH  14  23
ATOM     22  N   UNL     1       4.100   6.861  -5.249  0.00  0.00    -0.194 NA
ATOM     23  C   UNL     1       3.845   5.822  -5.727  0.00  0.00    +0.093 C 
ENDBRANCH  14  23
ENDBRANCH   1  16
TORSDOF 3
ENDMDL
MODEL 4
REMARK VINA RESULT:      -7.9      6.445      9.976
REMARK  Name = 
REMARK  3 active torsions:
REMARK  status: ('A' for Active; 'I' for Inactive)
REMARK    1  A    between atoms: C_2  and  C_3
REMARK    2  A    between atoms: C_9  and  C_11
REMARK    3  A    between atoms: C_11  and  C_13
REMARK                            x       y       z     vdW  Elec       q    Type
REMARK                         _______ _______ _______ _____ _____    ______ ____
ROOT
ATOM      1  C   UNL     1       3.392   6.516 -10.567  0.00  0.00    +0.168 C 
ATOM      2  N   UNL     1       3.000   6.884  -9.060  0.00  0.00    -0.123 NA
ENDROOT
BRANCH   1   3
ATOM      3  C   UNL     1       4.723   5.574 -10.337  0.00  0.00    +0.027 C 
ATOM      4  C   UNL     1       4.782   5.407 -11.780  0.00  0.00    +0.002 C 
ATOM      5  C   UNL     1       5.715   6.608 -12.417  0.00  0.00    +0.002 C 
ATOM      6  C   UNL     1       7.157   5.909 -12.099  0.00  0.00    +0.030 C 
ATOM      7  C   UNL     1       7.312   5.989 -10.611  0.00  0.00    +0.127 C 
ATOM      8  C   UNL     1       7.241   5.494  -9.550  0.00  0.00    +0.030 C 
ATOM      9  C   UNL     1       5.926   5.880 -10.491  0.00  0.00    +0.002 C 
ATOM     10  O   UNL     1       8.216   6.944 -10.254  0.00  0.00    -0.226 OA
ATOM     11  C   UNL     1       6.007   7.438 -11.004  0.00  0.00    +0.000 C 
ATOM     12  C   UNL     1       5.983   6.248  -9.859  0.00  0.00    +0.032 C 
ATOM     13  C   UNL     1       5.020   5.958  -9.128  0.00  0.00    +0.002 C 
ENDBRANCH   1   3
BRANCH   1  16
ATOM     14  C   UNL     1       0.815   5.566 -12.771  0.00  0.00    +0.167 C 
ATOM     15  N   UNL     1       1.389   4.868 -11.478  0.00  0.00    -0.269 N 
ATOM     16  C   UNL     1       2.521   5.177 -10.835  0.00  0.00    +0.244 C 
ATOM     17  O   UNL     1       2.126   5.108  -9.672  0.00  0.00    -0.273 OA
ATOM     18  C   UNL     1      -0.119   4.844 -10.988  0.00  0.00    +0.076 C 
ATOM     19  C   UNL     1      -0.440   6.494 -11.226  0.00  0.00    +0.023 C 
ATOM     20  C   UNL     1       0.023   5.940  -9.684  0.00  0.00    +0.022 C 
ATOM     21  C   UNL     1       1.036   6.900 -11.823  0.00  0.00    +0.037 C 
BRANCH  14  23
ATOM     22  N   UNL     1       2.243   5.811 -14.648  0.00  0.00    -0.194 NA
ATOM     23  C   UNL     1       2.245   5.573 -13.501  0.00  0.00    +0.093 C 
ENDBRANCH  14  23
ENDBRANCH   1  16
TORSDOF 3
ENDMDL
MODEL 5
REMARK VINA RESULT:      -7.8      1.515      3.067
REMARK  Name = 
REMARK  3 active torsions:
REMARK  status: ('A' for Active; 'I' for Inactive)
REMARK    1  A    between atoms: C_2  and  C_3
REMARK    2  A    between atoms: C_9  and  C_11
REMARK    3  A    between atoms: C_11  and  C_13
REMARK                            x       y       z     vdW  Elec       q    Type
REMARK                         _______ _______ _______ _____ _____    ______ ____
ROOT
ATOM      1  C   UNL     1       0.965   5.720  -4.131  0.00  0.00    +0.168 C 
ATOM      2  N   UNL     1       1.345   4.942  -2.786  0.00  0.00    -0.123 NA
ENDROOT
BRANCH   1   3
ATOM      3  C   UNL     1      -0.122   6.824  -3.573  0.00  0.00    +0.027 C 
ATOM      4  C   UNL     1      -0.323   7.237  -4.952  0.00  0.00    +0.002 C 
ATOM      5  C   UNL     1      -1.540   6.336  -5.606  0.00  0.00    +0.002 C 
ATOM      6  C   UNL     1      -2.771   7.208  -4.979  0.00  0.00    +0.030 C 
ATOM      7  C   UNL     1      -2.757   6.909  -3.511  0.00  0.00    +0.127 C 
ATOM      8  C   UNL     1      -2.464   7.201  -2.414  0.00  0.00    +0.030 C 
ATOM      9  C   UNL     1      -1.372   6.758  -3.586  0.00  0.00    +0.002 C 
ATOM     10  O   UNL     1      -3.777   6.076  -3.162  0.00  0.00    -0.226 OA
ATOM     11  C   UNL     1      -1.812   5.345  -4.297  0.00  0.00    +0.000 C 
ATOM     12  C   UNL     1      -1.422   6.305  -3.012  0.00  0.00    +0.032 C 
ATOM     13  C   UNL     1      -0.339   6.300  -2.400  0.00  0.00    +0.002 C 
ENDBRANCH   1   3
BRANCH   1  16
ATOM     14  C   UNL     1       3.513   6.689  -6.361  0.00  0.00    +0.167 C 
ATOM     15  N   UNL     1       3.205   7.127  -4.877  0.00  0.00    -0.269 N 
ATOM     16  C   UNL     1       2.086   6.889  -4.185  0.00  0.00    +0.244 C 
ATOM     17  O   UNL     1       2.572   6.579  -3.099  0.00  0.00    -0.273 OA
ATOM     18  C   UNL     1       4.714   6.733  -4.592  0.00  0.00    +0.076 C 
ATOM     19  C   UNL     1       4.647   5.169  -5.252  0.00  0.00    +0.023 C 
ATOM     20  C   UNL     1       4.434   5.387  -3.576  0.00  0.00    +0.022 C 
ATOM     21  C   UNL     1       3.077   5.224  -5.733  0.00  0.00    +0.037 C 
BRANCH  14  23
ATOM     22  N   UNL     1       2.043   8.039  -7.640  0.00  0.00    -0.194 NA
ATOM     23  C   UNL     1       2.065   7.146  -6.882  0.00  0.00    +0.093 C 
ENDBRANCH  14  23
ENDBRANCH   1  16
TORSDOF 3
ENDMDL
MODEL 6
REMARK VINA RESULT:      -7.7      3.018      6.881
REMARK  Name = 
REMARK  3 active torsions:
REMARK  status: ('A' for Active; 'I' for Inactive)
REMARK    1  A    between atoms: C_2  and  C_3
REMARK    2  A    between atoms: C_9  and  C_11
REMARK    3  A    between atoms: C_11  and  C_13
REMARK                            x       y       z     vdW  Elec       q    Type
REMARK                         _______ _______ _______ _____ _____    ______ ____
ROOT
ATOM      1  C   UNL     1       2.291   5.646  -7.666  0.00  0.00    +0.168 C 
ATOM      2  N   UNL     1       0.932   6.075  -8.393  0.00  0.00    -0.123 NA
ENDROOT
BRANCH   1   3
ATOM      3  C   UNL     1       3.386   6.616  -8.422  0.00  0.00    +0.027 C 
ATOM      4  C   UNL     1       4.386   6.112  -7.496  0.00  0.00    +0.002 C 
ATOM      5  C   UNL     1       5.089   4.771  -8.148  0.00  0.00    +0.002 C 
ATOM      6  C   UNL     1       6.134   5.566  -9.120  0.00  0.00    +0.030 C 
ATOM      7  C   UNL     1       5.286   6.172 -10.196  0.00  0.00    +0.127 C 
ATOM      8  C   UNL     1       4.720   7.093 -10.650  0.00  0.00    +0.030 C 
ATOM      9  C   UNL     1       4.251   6.297  -9.268  0.00  0.00    +0.002 C 
ATOM     10  O   UNL     1       5.419   5.500 -11.374  0.00  0.00    -0.226 OA
ATOM     11  C   UNL     1       4.158   4.678  -9.525  0.00  0.00    +0.000 C 
ATOM     12  C   UNL     1       3.784   6.256  -9.831  0.00  0.00    +0.032 C 
ATOM     13  C   UNL     1       2.722   6.827  -9.524  0.00  0.00    +0.002 C 
ENDBRANCH   1   3
BRANCH   1  16
ATOM     14  C   UNL     1       2.168   5.283  -4.165  0.00  0.00    +0.167 C 
ATOM     15  N   UNL     1       2.038   6.558  -5.085  0.00  0.00    -0.269 N 
ATOM     16  C   UNL     1       2.330   6.641  -6.388  0.00  0.00    +0.244 C 
ATOM     17  O   UNL     1       1.369   7.303  -6.777  0.00  0.00    -0.273 OA
ATOM     18  C   UNL     1       0.688   6.821  -4.298  0.00  0.00    +0.076 C 
ATOM     19  C   UNL     1       0.004   5.286  -4.542  0.00  0.00    +0.023 C 
ATOM     20  C   UNL     1      -0.407   6.568  -5.586  0.00  0.00    +0.022 C 
ATOM     21  C   UNL     1       1.258   4.642  -5.385  0.00  0.00    +0.037 C 
BRANCH  14  23
ATOM     22  N   UNL     1       4.492   4.854  -3.971  0.00  0.00    -0.194 NA
ATOM     23  C   UNL     1       3.616   4.910  -4.748  0.00  0.00    +0.093 C 
ENDBRANCH  14  23
ENDBRANCH   1  16
TORSDOF 3
ENDMDL
MODEL 7
REMARK VINA RESULT:      -7.6      2.779      4.648
REMARK  Name = 
REMARK  3 active torsions:
REMARK  status: ('A' for Active; 'I' for Inactive)
REMARK    1  A    between atoms: C_2  and  C_3
REMARK    2  A    between atoms: C_9  and  C_11
REMARK    3  A    between atoms: C_11  and  C_13
REMARK                            x       y       z     vdW  Elec       q    Type
REMARK                         _______ _______ _______ _____ _____    ______ ____
ROOT
ATOM      1  C   UNL     1       1.430   5.572  -6.516  0.00  0.00    +0.168 C 
ATOM      2  N   UNL     1       2.486   5.834  -5.344  0.00  0.00    -0.123 NA
ENDROOT
BRANCH   1   3
ATOM      3  C   UNL     1       0.333   6.769  -6.240  0.00  0.00    +0.027 C 
ATOM      4  C   UNL     1      -0.452   6.224  -7.335  0.00  0.00    +0.002 C 
ATOM      5  C   UNL     1      -1.496   5.098  -6.734  0.00  0.00    +0.002 C 
ATOM      6  C   UNL     1      -2.628   6.156  -6.216  0.00  0.00    +0.030 C 
ATOM      7  C   UNL     1      -2.011   6.842  -5.036  0.00  0.00    +0.127 C 
ATOM      8  C   UNL     1      -1.453   7.761  -4.568  0.00  0.00    +0.030 C 
ATOM      9  C   UNL     1      -0.763   6.695  -5.639  0.00  0.00    +0.002 C 
ATOM     10  O   UNL     1      -2.549   6.401  -3.864  0.00  0.00    -0.226 OA
ATOM     11  C   UNL     1      -0.985   5.143  -5.151  0.00  0.00    +0.000 C 
ATOM     12  C   UNL     1      -0.472   6.701  -4.967  0.00  0.00    +0.032 C 
ATOM     13  C   UNL     1       0.707   7.093  -5.035  0.00  0.00    +0.002 C 
ENDBRANCH   1   3
BRANCH   1  16
ATOM     14  C   UNL     1       2.369   4.960  -9.855  0.00  0.00    +0.167 C 
ATOM     15  N   UNL     1       2.629   6.195  -8.910  0.00  0.00    -0.269 N 
ATOM     16  C   UNL     1       2.039   6.447  -7.736  0.00  0.00    +0.244 C 
ATOM     17  O   UNL     1       3.015   6.816  -7.085  0.00  0.00    -0.273 OA
ATOM     18  C   UNL     1       4.155   5.991  -9.290  0.00  0.00    +0.076 C 
ATOM     19  C   UNL     1       4.247   4.341  -8.897  0.00  0.00    +0.023 C 
ATOM     20  C   UNL     1       4.734   5.508  -7.756  0.00  0.00    +0.022 C 
ATOM     21  C   UNL     1       2.678   4.158  -8.444  0.00  0.00    +0.037 C 
BRANCH  14  23
ATOM     22  N   UNL     1       0.133   4.568 -10.539  0.00  0.00    -0.194 NA
ATOM     23  C   UNL     1       0.775   5.075  -9.700  0.00  0.00    +0.093 C 
ENDBRANCH  14  23
ENDBRANCH   1  16
TORSDOF 3
ENDMDL
MODEL 8
REMARK VINA RESULT:      -7.5      1.758      5.894
REMARK  Name = 
REMARK  3 active torsions:
REMARK  status: ('A' for Active; 'I' for Inactive)
REMARK    1  A    between atoms: C_2  and  C_3
REMARK    2  A    between atoms: C_9  and  C_11
REMARK    3  A    between atoms: C_11  and  C_13
REMARK                            x       y       z     vdW  Elec       q    Type
REMARK                         _______ _______ _______ _____ _____    ______ ____
ROOT
ATOM      1  C   UNL     1       0.806   6.439  -3.166  0.00  0.00    +0.168 C 
ATOM      2  N   UNL     1       0.926   6.493  -1.572  0.00  0.00    -0.123 NA
ENDROOT
BRANCH   1   3
ATOM      3  C   UNL     1       2.002   5.373  -3.548  0.00  0.00    +0.027 C 
ATOM      4  C   UNL     1       1.650   5.566  -4.944  0.00  0.00    +0.002 C 
ATOM      5  C   UNL     1       2.539   6.816  -5.550  0.00  0.00    +0.002 C 
ATOM      6  C   UNL     1       3.899   5.956  -5.829  0.00  0.00    +0.030 C 
ATOM      7  C   UNL     1       4.456   5.652  -4.472  0.00  0.00    +0.127 C 
ATOM      8  C   UNL     1       4.602   4.915  -3.572  0.00  0.00    +0.030 C 
ATOM      9  C   UNL     1       3.152   5.619  -3.977  0.00  0.00    +0.002 C 
ATOM     10  O   UNL     1       5.548   6.419  -4.197  0.00  0.00    -0.226 OA
ATOM     11  C   UNL     1       3.312   7.244  -4.140  0.00  0.00    +0.000 C 
ATOM     12  C   UNL     1       3.427   5.813  -3.326  0.00  0.00    +0.032 C 
ATOM     13  C   UNL     1       2.663   5.422  -2.426  0.00  0.00    +0.002 C 
ENDBRANCH   1   3
BRANCH   1  16
ATOM     14  C   UNL     1      -2.382   6.177  -4.640  0.00  0.00    +0.167 C 
ATOM     15  N   UNL     1      -1.577   5.184  -3.716  0.00  0.00    -0.269 N 
ATOM     16  C   UNL     1      -0.282   5.259  -3.393  0.00  0.00    +0.244 C 
ATOM     17  O   UNL     1      -0.348   4.985  -2.195  0.00  0.00    -0.273 OA
ATOM     18  C   UNL     1      -2.882   5.183  -2.814  0.00  0.00    +0.076 C 
ATOM     19  C   UNL     1      -3.025   6.868  -2.657  0.00  0.00    +0.023 C 
ATOM     20  C   UNL     1      -2.238   5.972  -1.441  0.00  0.00    +0.022 C 
ATOM     21  C   UNL     1      -1.728   7.265  -3.584  0.00  0.00    +0.037 C 
BRANCH  14  23
ATOM     22  N   UNL     1      -1.438   5.654  -6.752  0.00  0.00    -0.194 NA
ATOM     23  C   UNL     1      -1.220   6.216  -5.747  0.00  0.00    +0.093 C 
ENDBRANCH  14  23
ENDBRANCH   1  16
TORSDOF 3
ENDMDL
MODEL 9
REMARK VINA RESULT:      -7.3      2.474      6.454
REMARK  Name = 
REMARK  3 active torsions:
REMARK  status: ('A' for Active; 'I' for Inactive)
REMARK    1  A    between atoms: C_2  and  C_3
REMARK    2  A    between atoms: C_9  and  C_11
REMARK    3  A    between atoms: C_11  and  C_13
REMARK                            x       y       z     vdW  Elec       q    Type
REMARK                         _______ _______ _______ _____ _____    ______ ____
ROOT
ATOM      1  C   UNL     1       2.340   6.365  -6.002  0.00  0.00    +0.168 C 
ATOM      2  N   UNL     1       3.374   6.945  -4.928  0.00  0.00    -0.123 NA
ENDROOT
BRANCH   1   3
ATOM      3  C   UNL     1       3.289   5.301  -6.826  0.00  0.00    +0.027 C 
ATOM      4  C   UNL     1       2.106   4.917  -7.579  0.00  0.00    +0.002 C 
ATOM      5  C   UNL     1       1.988   5.880  -8.912  0.00  0.00    +0.002 C 
ATOM      6  C   UNL     1       3.056   5.054  -9.831  0.00  0.00    +0.030 C 
ATOM      7  C   UNL     1       4.395   5.331  -9.219  0.00  0.00    +0.127 C 
ATOM      8  C   UNL     1       5.286   5.010  -8.528  0.00  0.00    +0.030 C 
ATOM      9  C   UNL     1       3.774   5.422  -7.974  0.00  0.00    +0.002 C 
ATOM     10  O   UNL     1       5.119   6.202  -9.977  0.00  0.00    -0.226 OA
ATOM     11  C   UNL     1       3.292   6.863  -8.594  0.00  0.00    +0.000 C 
ATOM     12  C   UNL     1       4.319   5.868  -7.770  0.00  0.00    +0.032 C 
ATOM     13  C   UNL     1       4.449   5.817  -6.534  0.00  0.00    +0.002 C 
ENDBRANCH   1   3
BRANCH   1  16
ATOM     14  C   UNL     1      -0.868   5.535  -4.808  0.00  0.00    +0.167 C 
ATOM     15  N   UNL     1       0.545   4.890  -4.533  0.00  0.00    -0.269 N 
ATOM     16  C   UNL     1       1.677   5.118  -5.207  0.00  0.00    +0.244 C 
ATOM     17  O   UNL     1       2.468   5.196  -4.269  0.00  0.00    -0.273 OA
ATOM     18  C   UNL     1       0.183   5.084  -3.001  0.00  0.00    +0.076 C 
ATOM     19  C   UNL     1      -0.209   6.733  -3.089  0.00  0.00    +0.023 C 
ATOM     20  C   UNL     1       1.357   6.264  -2.614  0.00  0.00    +0.022 C 
ATOM     21  C   UNL     1       0.040   6.911  -4.703  0.00  0.00    +0.037 C 
BRANCH  14  23
ATOM     22  N   UNL     1      -1.760   5.234  -6.984  0.00  0.00    -0.194 NA
ATOM     23  C   UNL     1      -0.751   5.312  -6.394  0.00  0.00    +0.093 C 
ENDBRANCH  14  23
ENDBRANCH   1  16
TORSDOF 3
ENDMDL
