MODEL 1
REMARK VINA RESULT:      -8.9      0.000      0.000
REMARK  Name = 
REMARK  2 active torsions:
REMARK  status: ('A' for Active; 'I' for Inactive)
REMARK    1  A    between atoms: N_18  and  C_19
REMARK    2  A    between atoms: C_19  and  C_20
REMARK                            x       y       z     vdW  Elec       q    Type
REMARK                         _______ _______ _______ _____ _____    ______ ____
ROOT
ATOM      1  O   UNL     1       3.251   7.993  -2.009  0.00  0.00    -0.283 OA
ATOM      2  C   UNL     1       3.542   7.427  -2.931  0.00  0.00    +0.229 A 
ATOM      3  C   UNL     1       2.645   6.550  -3.536  0.00  0.00    +0.173 A 
ATOM      4  O   UNL     1       1.255   6.374  -3.439  0.00  0.00    -0.473 OA
ATOM      5  C   UNL     1       1.001   5.052  -4.173  0.00  0.00    +0.202 C 
ATOM      6  C   UNL     1       1.881   5.410  -5.485  0.00  0.00    +0.089 C 
ATOM      7  C   UNL     1       1.332   6.349  -6.329  0.00  0.00    +0.147 C 
ATOM      8  C   UNL     1       2.456   6.880  -7.388  0.00  0.00    +0.090 C 
ATOM      9  N   UNL     1       2.279   5.640  -8.340  0.00  0.00    -0.271 NA
ATOM     10  C   UNL     1       2.266   4.471  -7.729  0.00  0.00    +0.073 C 
ATOM     11  C   UNL     1       3.832   6.160  -6.858  0.00  0.00    +0.045 C 
ATOM     12  C   UNL     1       4.025   6.400  -5.464  0.00  0.00    -0.021 A 
ATOM     13  C   UNL     1       5.031   7.123  -4.844  0.00  0.00    -0.001 A 
ATOM     14  O   UNL     1       0.276   5.866  -7.143  0.00  0.00    -0.224 OA
ATOM     15  C   UNL     1       0.711   7.511  -5.665  0.00  0.00    +0.035 C 
ATOM     16  C   UNL     1      -0.387   7.098  -4.811  0.00  0.00    +0.039 C 
ATOM     17  C   UNL     1       2.051   4.197  -6.302  0.00  0.00    +0.027 C 
ATOM     18  C   UNL     1      -0.540   5.472  -4.821  0.00  0.00    +0.192 C 
ATOM     19  O   UNL     1      -1.105   5.411  -3.418  0.00  0.00    -0.219 OA
ATOM     20  C   UNL     1       3.032   5.839  -4.671  0.00  0.00    +0.016 A 
ATOM     21  C   UNL     1       4.761   7.615  -3.574  0.00  0.00    +0.045 A 
ENDROOT
BRANCH   9  22
ATOM     22  C   UNL     1       1.680   6.154  -9.445  0.00  0.00    +0.072 C 
BRANCH  22  23
ATOM     23  C   UNL     1       1.476   5.009 -10.440  0.00  0.00    +0.016 C 
ATOM     24  C   UNL     1      -0.029   4.785 -10.563  0.00  0.00    +0.001 C 
ATOM     25  C   UNL     1      -0.008   5.897 -11.605  0.00  0.00    +0.000 C 
ATOM     26  C   UNL     1       1.430   5.473 -11.888  0.00  0.00    +0.001 C 
ENDBRANCH  22  23
ENDBRANCH   9  22
TORSDOF 2
ENDMDL
MODEL 2
REMARK VINA RESULT:      -8.9      1.355      1.736
REMARK  Name = 
REMARK  2 active torsions:
REMARK  status: ('A' for Active; 'I' for Inactive)
REMARK    1  A    between atoms: N_18  and  C_19
REMARK    2  A    between atoms: C_19  and  C_20
REMARK                            x       y       z     vdW  Elec       q    Type
REMARK                         _______ _______ _______ _____ _____    ______ ____
ROOT
ATOM      1  O   UNL     1       2.887   7.557  -1.823  0.00  0.00    -0.283 OA
ATOM      2  C   UNL     1       3.297   6.946  -2.667  0.00  0.00    +0.229 A 
ATOM      3  C   UNL     1       2.448   6.186  -3.468  0.00  0.00    +0.173 A 
ATOM      4  O   UNL     1       1.060   6.196  -3.682  0.00  0.00    -0.473 OA
ATOM      5  C   UNL     1       0.802   4.910  -4.475  0.00  0.00    +0.202 C 
ATOM      6  C   UNL     1       1.988   5.131  -5.556  0.00  0.00    +0.089 C 
ATOM      7  C   UNL     1       1.766   6.124  -6.485  0.00  0.00    +0.147 C 
ATOM      8  C   UNL     1       3.156   6.488  -7.262  0.00  0.00    +0.090 C 
ATOM      9  N   UNL     1       3.031   5.270  -8.249  0.00  0.00    -0.271 NA
ATOM     10  C   UNL     1       2.730   4.121  -7.675  0.00  0.00    +0.073 C 
ATOM     11  C   UNL     1       4.274   5.600  -6.454  0.00  0.00    +0.045 C 
ATOM     12  C   UNL     1       4.186   5.830  -5.048  0.00  0.00    -0.021 A 
ATOM     13  C   UNL     1       5.116   6.423  -4.211  0.00  0.00    -0.001 A 
ATOM     14  O   UNL     1       0.861   5.773  -7.518  0.00  0.00    -0.224 OA
ATOM     15  C   UNL     1       1.172   7.366  -5.954  0.00  0.00    +0.035 C 
ATOM     16  C   UNL     1      -0.131   7.113  -5.369  0.00  0.00    +0.039 C 
ATOM     17  C   UNL     1       2.173   3.896  -6.335  0.00  0.00    +0.027 C 
ATOM     18  C   UNL     1      -0.491   5.520  -5.438  0.00  0.00    +0.192 C 
ATOM     19  O   UNL     1      -1.353   5.552  -4.196  0.00  0.00    -0.219 OA
ATOM     20  C   UNL     1       2.978   5.416  -4.502  0.00  0.00    +0.016 A 
ATOM     21  C   UNL     1       4.642   6.963  -3.023  0.00  0.00    +0.045 A 
ENDROOT
BRANCH   9  22
ATOM     22  C   UNL     1       2.761   5.843  -9.450  0.00  0.00    +0.072 C 
BRANCH  22  23
ATOM     23  C   UNL     1       3.798   5.333 -10.455  0.00  0.00    +0.016 C 
ATOM     24  C   UNL     1       3.895   6.376 -11.566  0.00  0.00    +0.001 C 
ATOM     25  C   UNL     1       4.890   7.096 -10.665  0.00  0.00    +0.000 C 
ATOM     26  C   UNL     1       5.224   5.722 -10.096  0.00  0.00    +0.001 C 
ENDBRANCH  22  23
ENDBRANCH   9  22
TORSDOF 2
ENDMDL
MODEL 3
REMARK VINA RESULT:      -8.8      1.477      3.559
REMARK  Name = 
REMARK  2 active torsions:
REMARK  status: ('A' for Active; 'I' for Inactive)
REMARK    1  A    between atoms: N_18  and  C_19
REMARK    2  A    between atoms: C_19  and  C_20
REMARK                            x       y       z     vdW  Elec       q    Type
REMARK                         _______ _______ _______ _____ _____    ______ ____
ROOT
ATOM      1  O   UNL     1      -0.095   4.945  -2.250  0.00  0.00    -0.283 OA
ATOM      2  C   UNL     1      -0.254   5.437  -3.244  0.00  0.00    +0.229 A 
ATOM      3  C   UNL     1       0.829   5.904  -3.985  0.00  0.00    +0.173 A 
ATOM      4  O   UNL     1       2.211   5.657  -3.930  0.00  0.00    -0.473 OA
ATOM      5  C   UNL     1       2.809   6.721  -4.858  0.00  0.00    +0.202 C 
ATOM      6  C   UNL     1       1.789   6.469  -6.092  0.00  0.00    +0.089 C 
ATOM      7  C   UNL     1       1.981   5.298  -6.790  0.00  0.00    +0.147 C 
ATOM      8  C   UNL     1       0.691   4.993  -7.744  0.00  0.00    +0.090 C 
ATOM      9  N   UNL     1       1.179   5.972  -8.874  0.00  0.00    -0.271 NA
ATOM     10  C   UNL     1       1.578   7.155  -8.447  0.00  0.00    +0.073 C 
ATOM     11  C   UNL     1      -0.371   6.166  -7.314  0.00  0.00    +0.045 C 
ATOM     12  C   UNL     1      -0.549   6.196  -5.898  0.00  0.00    -0.021 A 
ATOM     13  C   UNL     1      -1.688   5.910  -5.164  0.00  0.00    -0.001 A 
ATOM     14  O   UNL     1       3.086   5.315  -7.679  0.00  0.00    -0.224 OA
ATOM     15  C   UNL     1       2.261   4.107  -5.964  0.00  0.00    +0.035 C 
ATOM     16  C   UNL     1       3.478   4.279  -5.195  0.00  0.00    +0.039 C 
ATOM     17  C   UNL     1       1.946   7.548  -7.081  0.00  0.00    +0.027 C 
ATOM     18  C   UNL     1       4.113   5.763  -5.452  0.00  0.00    +0.192 C 
ATOM     19  O   UNL     1       4.749   5.845  -4.082  0.00  0.00    -0.219 OA
ATOM     20  C   UNL     1       0.611   6.531  -5.210  0.00  0.00    +0.016 A 
ATOM     21  C   UNL     1      -1.508   5.543  -3.838  0.00  0.00    +0.045 A 
ENDROOT
BRANCH   9  22
ATOM     22  C   UNL     1       1.533   5.150  -9.895  0.00  0.00    +0.072 C 
BRANCH  22  23
ATOM     23  C   UNL     1       0.281   4.882 -10.735  0.00  0.00    +0.016 C 
ATOM     24  C   UNL     1      -0.286   6.241 -11.138  0.00  0.00    +0.001 C 
ATOM     25  C   UNL     1       0.696   6.193 -12.302  0.00  0.00    +0.000 C 
ATOM     26  C   UNL     1       0.581   4.675 -12.211  0.00  0.00    +0.001 C 
ENDBRANCH  22  23
ENDBRANCH   9  22
TORSDOF 2
ENDMDL
MODEL 4
REMARK VINA RESULT:      -8.6      2.659      6.332
REMARK  Name = 
REMARK  2 active torsions:
REMARK  status: ('A' for Active; 'I' for Inactive)
REMARK    1  A    between atoms: N_18  and  C_19
REMARK    2  A    between atoms: C_19  and  C_20
REMARK                            x       y       z     vdW  Elec       q    Type
REMARK                         _______ _______ _______ _____ _____    ______ ____
ROOT
ATOM      1  O   UNL     1       4.334   4.912 -13.063  0.00  0.00    -0.283 OA
ATOM      2  C   UNL     1       4.540   5.399 -12.076  0.00  0.00    +0.229 A 
ATOM      3  C   UNL     1       3.495   5.899 -11.302  0.00  0.00    +0.173 A 
ATOM      4  O   UNL     1       2.105   5.696 -11.312  0.00  0.00    -0.473 OA
ATOM      5  C   UNL     1       1.570   6.777 -10.367  0.00  0.00    +0.202 C 
ATOM      6  C   UNL     1       2.620   6.495  -9.166  0.00  0.00    +0.089 C 
ATOM      7  C   UNL     1       2.414   5.330  -8.460  0.00  0.00    +0.147 C 
ATOM      8  C   UNL     1       3.723   4.986  -7.547  0.00  0.00    +0.090 C 
ATOM      9  N   UNL     1       3.302   5.980  -6.404  0.00  0.00    -0.271 NA
ATOM     10  C   UNL     1       2.926   7.174  -6.819  0.00  0.00    +0.073 C 
ATOM     11  C   UNL     1       4.807   6.126  -8.013  0.00  0.00    +0.045 C 
ATOM     12  C   UNL     1       4.941   6.150  -9.433  0.00  0.00    -0.021 A 
ATOM     13  C   UNL     1       6.047   5.828 -10.202  0.00  0.00    -0.001 A 
ATOM     14  O   UNL     1       1.339   5.382  -7.537  0.00  0.00    -0.224 OA
ATOM     15  C   UNL     1       2.072   4.148  -9.275  0.00  0.00    +0.035 C 
ATOM     16  C   UNL     1       0.836   4.358 -10.006  0.00  0.00    +0.039 C 
ATOM     17  C   UNL     1       2.527   7.579  -8.174  0.00  0.00    +0.027 C 
ATOM     18  C   UNL     1       0.256   5.860  -9.731  0.00  0.00    +0.192 C 
ATOM     19  O   UNL     1      -0.420   5.961 -11.081  0.00  0.00    -0.219 OA
ATOM     20  C   UNL     1       3.771   6.520 -10.085  0.00  0.00    +0.016 A 
ATOM     21  C   UNL     1       5.814   5.466 -11.522  0.00  0.00    +0.045 A 
ENDROOT
BRANCH   9  22
ATOM     22  C   UNL     1       2.955   5.169  -5.371  0.00  0.00    +0.072 C 
BRANCH  22  23
ATOM     23  C   UNL     1       4.220   4.882  -4.558  0.00  0.00    +0.016 C 
ATOM     24  C   UNL     1       4.866   6.230  -4.244  0.00  0.00    +0.001 C 
ATOM     25  C   UNL     1       3.922   6.290  -3.050  0.00  0.00    +0.000 C 
ATOM     26  C   UNL     1       3.960   4.766  -3.064  0.00  0.00    +0.001 C 
ENDBRANCH  22  23
ENDBRANCH   9  22
TORSDOF 2
ENDMDL
MODEL 5
REMARK VINA RESULT:      -8.4      1.908      4.001
REMARK  Name = 
REMARK  2 active torsions:
REMARK  status: ('A' for Active; 'I' for Inactive)
REMARK    1  A    between atoms: N_18  and  C_19
REMARK    2  A    between atoms: C_19  and  C_20
REMARK                            x       y       z     vdW  Elec       q    Type
REMARK                         _______ _______ _______ _____ _____    ______ ____
ROOT
ATOM      1  O   UNL     1      -0.905   5.039  -3.191  0.00  0.00    -0.283 OA
ATOM      2  C   UNL     1      -0.764   5.447  -4.225  0.00  0.00    +0.229 A 
ATOM      3  C   UNL     1       0.444   6.033  -4.595  0.00  0.00    +0.173 A 
ATOM      4  O   UNL     1       1.737   6.003  -4.049  0.00  0.00    -0.473 OA
ATOM      5  C   UNL     1       2.487   7.093  -4.821  0.00  0.00    +0.202 C 
ATOM      6  C   UNL     1       2.006   6.625  -6.296  0.00  0.00    +0.089 C 
ATOM      7  C   UNL     1       2.575   5.460  -6.763  0.00  0.00    +0.147 C 
ATOM      8  C   UNL     1       1.751   4.913  -8.062  0.00  0.00    +0.090 C 
ATOM      9  N   UNL     1       2.480   5.894  -9.053  0.00  0.00    -0.271 NA
ATOM     10  C   UNL     1       2.554   7.144  -8.639  0.00  0.00    +0.073 C 
ATOM     11  C   UNL     1       0.469   5.933  -8.142  0.00  0.00    +0.045 C 
ATOM     12  C   UNL     1      -0.198   6.011  -6.883  0.00  0.00    -0.021 A 
ATOM     13  C   UNL     1      -1.478   5.594  -6.556  0.00  0.00    -0.001 A 
ATOM     14  O   UNL     1       3.911   5.598  -7.219  0.00  0.00    -0.224 OA
ATOM     15  C   UNL     1       2.691   4.371  -5.773  0.00  0.00    +0.035 C 
ATOM     16  C   UNL     1       3.529   4.768  -4.657  0.00  0.00    +0.039 C 
ATOM     17  C   UNL     1       2.366   7.661  -7.277  0.00  0.00    +0.027 C 
ATOM     18  C   UNL     1       4.025   6.315  -4.834  0.00  0.00    +0.192 C 
ATOM     19  O   UNL     1       4.122   6.565  -3.345  0.00  0.00    -0.219 OA
ATOM     20  C   UNL     1       0.595   6.554  -5.879  0.00  0.00    +0.016 A 
ATOM     21  C   UNL     1      -1.732   5.329  -5.217  0.00  0.00    +0.045 A 
ENDROOT
BRANCH   9  22
ATOM     22  C   UNL     1       3.270   5.081  -9.802  0.00  0.00    +0.072 C 
BRANCH  22  23
ATOM     23  C   UNL     1       3.710   5.869 -11.038  0.00  0.00    +0.016 C 
ATOM     24  C   UNL     1       4.789   6.849 -10.584  0.00  0.00    +0.001 C 
ATOM     25  C   UNL     1       5.771   5.700 -10.772  0.00  0.00    +0.000 C 
ATOM     26  C   UNL     1       4.807   5.177 -11.832  0.00  0.00    +0.001 C 
ENDBRANCH  22  23
ENDBRANCH   9  22
TORSDOF 2
ENDMDL
MODEL 6
REMARK VINA RESULT:      -8.3      2.828      6.937
REMARK  Name = 
REMARK  2 active torsions:
REMARK  status: ('A' for Active; 'I' for Inactive)
REMARK    1  A    between atoms: N_18  and  C_19
REMARK    2  A    between atoms: C_19  and  C_20
REMARK                            x       y       z     vdW  Elec       q    Type
REMARK                         _______ _______ _______ _____ _____    ______ ____
ROOT
ATOM      1  O   UNL     1       1.239   7.434 -13.330  0.00  0.00    -0.283 OA
ATOM      2  C   UNL     1       0.995   6.867 -12.396  0.00  0.00    +0.229 A 
ATOM      3  C   UNL     1       1.980   6.134 -11.737  0.00  0.00    +0.173 A 
ATOM      4  O   UNL     1       3.383   6.137 -11.793  0.00  0.00    -0.473 OA
ATOM      5  C   UNL     1       3.783   4.884 -11.004  0.00  0.00    +0.202 C 
ATOM      6  C   UNL     1       2.826   5.168  -9.728  0.00  0.00    +0.089 C 
ATOM      7  C   UNL     1       3.224   6.198  -8.906  0.00  0.00    +0.147 C 
ATOM      8  C   UNL     1       2.009   6.613  -7.896  0.00  0.00    +0.090 C 
ATOM      9  N   UNL     1       2.316   5.439  -6.895  0.00  0.00    -0.271 NA
ATOM     10  C   UNL     1       2.499   4.262  -7.462  0.00  0.00    +0.073 C 
ATOM     11  C   UNL     1       0.755   5.703  -8.434  0.00  0.00    +0.045 C 
ATOM     12  C   UNL     1       0.574   5.870  -9.840  0.00  0.00    -0.021 A 
ATOM     13  C   UNL     1      -0.498   6.435 -10.512  0.00  0.00    -0.001 A 
ATOM     14  O   UNL     1       4.309   5.883  -8.049  0.00  0.00    -0.224 OA
ATOM     15  C   UNL     1       3.710   7.408  -9.597  0.00  0.00    +0.035 C 
ATOM     16  C   UNL     1       4.877   7.113 -10.407  0.00  0.00    +0.039 C 
ATOM     17  C   UNL     1       2.789   3.970  -8.873  0.00  0.00    +0.027 C 
ATOM     18  C   UNL     1       5.238   5.521 -10.334  0.00  0.00    +0.192 C 
ATOM     19  O   UNL     1       5.848   5.488 -11.718  0.00  0.00    -0.219 OA
ATOM     20  C   UNL     1       1.654   5.417 -10.587  0.00  0.00    +0.016 A 
ATOM     21  C   UNL     1      -0.256   6.916 -11.792  0.00  0.00    +0.045 A 
ENDROOT
BRANCH   9  22
ATOM     22  C   UNL     1       2.812   6.062  -5.795  0.00  0.00    +0.072 C 
BRANCH  22  23
ATOM     23  C   UNL     1       3.172   4.984  -4.770  0.00  0.00    +0.016 C 
ATOM     24  C   UNL     1       4.688   5.022  -4.595  0.00  0.00    +0.001 C 
ATOM     25  C   UNL     1       4.442   6.129  -3.578  0.00  0.00    +0.000 C 
ATOM     26  C   UNL     1       3.089   5.471  -3.331  0.00  0.00    +0.001 C 
ENDBRANCH  22  23
ENDBRANCH   9  22
TORSDOF 2
ENDMDL
MODEL 7
REMARK VINA RESULT:      -8.3      2.427      6.090
REMARK  Name = 
REMARK  2 active torsions:
REMARK  status: ('A' for Active; 'I' for Inactive)
REMARK    1  A    between atoms: N_18  and  C_19
REMARK    2  A    between atoms: C_19  and  C_20
REMARK                            x       y       z     vdW  Elec       q    Type
REMARK                         _______ _______ _______ _____ _____    ______ ____
ROOT
ATOM      1  O   UNL     1       2.546   6.126 -12.365  0.00  0.00    -0.283 OA
ATOM      2  C   UNL     1       1.882   5.731 -11.554  0.00  0.00    +0.229 A 
ATOM      3  C   UNL     1       2.423   5.274 -10.355  0.00  0.00    +0.173 A 
ATOM      4  O   UNL     1       3.672   5.443  -9.735  0.00  0.00    -0.473 OA
ATOM      5  C   UNL     1       3.648   4.435  -8.581  0.00  0.00    +0.202 C 
ATOM      6  C   UNL     1       2.183   4.844  -8.022  0.00  0.00    +0.089 C 
ATOM      7  C   UNL     1       2.113   6.060  -7.379  0.00  0.00    +0.147 C 
ATOM      8  C   UNL     1       0.554   6.513  -7.199  0.00  0.00    +0.090 C 
ATOM      9  N   UNL     1       0.343   5.611  -5.928  0.00  0.00    -0.271 NA
ATOM     10  C   UNL     1       0.795   4.377  -6.044  0.00  0.00    +0.073 C 
ATOM     11  C   UNL     1      -0.262   5.363  -8.037  0.00  0.00    +0.045 C 
ATOM     12  C   UNL     1       0.269   5.220  -9.354  0.00  0.00    -0.021 A 
ATOM     13  C   UNL     1      -0.340   5.500 -10.566  0.00  0.00    -0.001 A 
ATOM     14  O   UNL     1       2.640   6.062  -6.062  0.00  0.00    -0.224 OA
ATOM     15  C   UNL     1       2.862   7.159  -8.020  0.00  0.00    +0.035 C 
ATOM     16  C   UNL     1       4.279   6.858  -8.082  0.00  0.00    +0.039 C 
ATOM     17  C   UNL     1       1.745   3.848  -7.032  0.00  0.00    +0.027 C 
ATOM     18  C   UNL     1       4.577   5.371  -7.472  0.00  0.00    +0.192 C 
ATOM     19  O   UNL     1       5.789   5.139  -8.347  0.00  0.00    -0.219 OA
ATOM     20  C   UNL     1       1.583   4.767  -9.365  0.00  0.00    +0.016 A 
ATOM     21  C   UNL     1       0.494   5.742 -11.649  0.00  0.00    +0.045 A 
ENDROOT
BRANCH   9  22
ATOM     22  C   UNL     1       0.226   6.499  -4.907  0.00  0.00    +0.072 C 
BRANCH  22  23
ATOM     23  C   UNL     1      -1.044   6.150  -4.128  0.00  0.00    +0.016 C 
ATOM     24  C   UNL     1      -1.602   7.458  -3.573  0.00  0.00    +0.001 C 
ATOM     25  C   UNL     1      -2.288   7.621  -4.924  0.00  0.00    +0.000 C 
ATOM     26  C   UNL     1      -2.289   6.098  -4.999  0.00  0.00    +0.001 C 
ENDBRANCH  22  23
ENDBRANCH   9  22
TORSDOF 2
ENDMDL
MODEL 8
REMARK VINA RESULT:      -8.0      1.768      3.664
REMARK  Name = 
REMARK  2 active torsions:
REMARK  status: ('A' for Active; 'I' for Inactive)
REMARK    1  A    between atoms: N_18  and  C_19
REMARK    2  A    between atoms: C_19  and  C_20
REMARK                            x       y       z     vdW  Elec       q    Type
REMARK                         _______ _______ _______ _____ _____    ______ ____
ROOT
ATOM      1  O   UNL     1       3.008   4.948  -0.407  0.00  0.00    -0.283 OA
ATOM      2  C   UNL     1       2.265   5.233  -1.196  0.00  0.00    +0.229 A 
ATOM      3  C   UNL     1       2.661   5.974  -2.307  0.00  0.00    +0.173 A 
ATOM      4  O   UNL     1       3.911   6.253  -2.884  0.00  0.00    -0.473 OA
ATOM      5  C   UNL     1       3.604   7.348  -3.911  0.00  0.00    +0.202 C 
ATOM      6  C   UNL     1       2.329   6.606  -4.581  0.00  0.00    +0.089 C 
ATOM      7  C   UNL     1       2.624   5.513  -5.365  0.00  0.00    +0.147 C 
ATOM      8  C   UNL     1       1.268   4.656  -5.669  0.00  0.00    +0.090 C 
ATOM      9  N   UNL     1       0.815   5.611  -6.834  0.00  0.00    -0.271 NA
ATOM     10  C   UNL     1       0.884   6.898  -6.553  0.00  0.00    +0.073 C 
ATOM     11  C   UNL     1       0.142   5.406  -4.741  0.00  0.00    +0.045 C 
ATOM     12  C   UNL     1       0.595   5.529  -3.393  0.00  0.00    -0.021 A 
ATOM     13  C   UNL     1       0.083   4.935  -2.252  0.00  0.00    -0.001 A 
ATOM     14  O   UNL     1       3.141   5.829  -6.647  0.00  0.00    -0.224 OA
ATOM     15  C   UNL     1       3.655   4.606  -4.825  0.00  0.00    +0.035 C 
ATOM     16  C   UNL     1       4.922   5.293  -4.662  0.00  0.00    +0.039 C 
ATOM     17  C   UNL     1       1.628   7.550  -5.467  0.00  0.00    +0.027 C 
ATOM     18  C   UNL     1       4.777   6.867  -5.079  0.00  0.00    +0.192 C 
ATOM     19  O   UNL     1       5.860   7.328  -4.127  0.00  0.00    -0.219 OA
ATOM     20  C   UNL     1       1.719   6.337  -3.268  0.00  0.00    +0.016 A 
ATOM     21  C   UNL     1       0.940   4.810  -1.167  0.00  0.00    +0.045 A 
ENDROOT
BRANCH   9  22
ATOM     22  C   UNL     1       0.972   4.863  -7.956  0.00  0.00    +0.072 C 
BRANCH  22  23
ATOM     23  C   UNL     1       0.149   5.513  -9.071  0.00  0.00    +0.016 C 
ATOM     24  C   UNL     1       1.080   6.467  -9.816  0.00  0.00    +0.001 C 
ATOM     25  C   UNL     1       1.510   5.252 -10.628  0.00  0.00    +0.000 C 
ATOM     26  C   UNL     1       0.118   4.694 -10.352  0.00  0.00    +0.001 C 
ENDBRANCH  22  23
ENDBRANCH   9  22
TORSDOF 2
ENDMDL
MODEL 9
REMARK VINA RESULT:      -7.9      2.381      5.113
REMARK  Name = 
REMARK  2 active torsions:
REMARK  status: ('A' for Active; 'I' for Inactive)
REMARK    1  A    between atoms: N_18  and  C_19
REMARK    2  A    between atoms: C_19  and  C_20
REMARK                            x       y       z     vdW  Elec       q    Type
REMARK                         _______ _______ _______ _____ _____    ______ ____
ROOT
ATOM      1  O   UNL     1       6.220   5.940  -9.035  0.00  0.00    -0.283 OA
ATOM      2  C   UNL     1       5.127   5.705  -8.963  0.00  0.00    +0.229 A 
ATOM      3  C   UNL     1       4.576   5.263  -7.762  0.00  0.00    +0.173 A 
ATOM      4  O   UNL     1       5.019   5.293  -6.429  0.00  0.00    -0.473 OA
ATOM      5  C   UNL     1       4.027   4.385  -5.694  0.00  0.00    +0.202 C 
ATOM      6  C   UNL     1       2.687   5.042  -6.324  0.00  0.00    +0.089 C 
ATOM      7  C   UNL     1       2.369   6.299  -5.859  0.00  0.00    +0.147 C 
ATOM      8  C   UNL     1       1.240   6.985  -6.819  0.00  0.00    +0.090 C 
ATOM      9  N   UNL     1       0.053   6.218  -6.129  0.00  0.00    -0.271 NA
ATOM     10  C   UNL     1       0.256   4.926  -5.955  0.00  0.00    +0.073 C 
ATOM     11  C   UNL     1       1.098   5.909  -8.049  0.00  0.00    +0.045 C 
ATOM     12  C   UNL     1       2.378   5.595  -8.599  0.00  0.00    -0.021 A 
ATOM     13  C   UNL     1       2.864   5.872  -9.866  0.00  0.00    -0.001 A 
ATOM     14  O   UNL     1       1.794   6.320  -4.563  0.00  0.00    -0.224 OA
ATOM     15  C   UNL     1       3.506   7.228  -5.715  0.00  0.00    +0.035 C 
ATOM     16  C   UNL     1       4.477   6.720  -4.764  0.00  0.00    +0.039 C 
ATOM     17  C   UNL     1       1.529   4.195  -5.997  0.00  0.00    +0.027 C 
ATOM     18  C   UNL     1       4.020   5.254  -4.205  0.00  0.00    +0.192 C 
ATOM     19  O   UNL     1       5.438   4.785  -3.967  0.00  0.00    -0.219 OA
ATOM     20  C   UNL     1       3.218   4.957  -7.696  0.00  0.00    +0.016 A 
ATOM     21  C   UNL     1       4.244   5.911 -10.017  0.00  0.00    +0.045 A 
ENDROOT
BRANCH   9  22
ATOM     22  C   UNL     1      -0.617   7.185  -5.451  0.00  0.00    +0.072 C 
BRANCH  22  23
ATOM     23  C   UNL     1      -1.913   6.570  -4.917  0.00  0.00    +0.016 C 
ATOM     24  C   UNL     1      -1.694   6.283  -3.433  0.00  0.00    +0.001 C 
ATOM     25  C   UNL     1      -2.100   7.732  -3.197  0.00  0.00    +0.000 C 
ATOM     26  C   UNL     1      -2.931   7.607  -4.469  0.00  0.00    +0.001 C 
ENDBRANCH  22  23
ENDBRANCH   9  22
TORSDOF 2
ENDMDL
