MODEL 1
REMARK VINA RESULT:      -8.4      0.000      0.000
REMARK  Name = 
REMARK  7 active torsions:
REMARK  status: ('A' for Active; 'I' for Inactive)
REMARK    1  A    between atoms: C_2  and  C_4
REMARK    2  A    between atoms: C_4  and  C_5
REMARK    3  A    between atoms: C_5  and  N_6
REMARK    4  A    between atoms: C_7  and  C_9
REMARK    5  A    between atoms: C_12  and  N_13
REMARK    6  A    between atoms: N_14  and  C_15
REMARK    7  A    between atoms: C_20  and  C_21
REMARK                            x       y       z     vdW  Elec       q    Type
REMARK                         _______ _______ _______ _____ _____    ______ ____
ROOT
ATOM      1  C   UNL     1       4.704   5.010  -8.704  0.00  0.00    +0.055 A 
ATOM      2  C   UNL     1       4.660   5.470  -7.405  0.00  0.00    +0.006 A 
ATOM      3  C   UNL     1       3.447   5.462  -6.764  0.00  0.00    +0.021 A 
ATOM      4  C   UNL     1       2.556   4.430  -7.029  0.00  0.00    +0.103 A 
ATOM      5  C   UNL     1       2.588   3.961  -8.338  0.00  0.00    +0.021 A 
ATOM      6  C   UNL     1       3.717   4.165  -9.121  0.00  0.00    +0.006 A 
ENDROOT
BRANCH   1   8
ATOM      7  N   UNL     1       5.390   6.421 -10.596  0.00  0.00    -0.201 NA
ATOM      8  C   UNL     1       5.782   5.494  -9.577  0.00  0.00    +0.265 C 
ATOM      9  O   UNL     1       6.858   5.794  -8.977  0.00  0.00    -0.268 OA
BRANCH   7  10
ATOM     10  C   UNL     1       6.319   7.436 -11.084  0.00  0.00    +0.127 C 
BRANCH  10  11
ATOM     11  C   UNL     1       6.651   7.078 -12.523  0.00  0.00    +0.137 C 
BRANCH  11  13
ATOM     12  O   UNL     1       8.861   6.227 -12.090  0.00  0.00    -0.246 OA
ATOM     13  C   UNL     1       7.682   6.005 -12.484  0.00  0.00    +0.367 C 
ATOM     14  O   UNL     1       7.351   4.743 -12.983  0.00  0.00    -0.246 OA
ENDBRANCH  11  13
ENDBRANCH  10  11
ENDBRANCH   7  10
ENDBRANCH   1   8
BRANCH   4  15
ATOM     15  N   UNL     1       1.392   4.311  -6.215  0.00  0.00    -0.148 NA
ATOM     16  N   UNL     1       1.310   4.699  -5.023  0.00  0.00    -0.148 NA
BRANCH  16  17
ATOM     17  C   UNL     1       0.224   5.489  -4.518  0.00  0.00    +0.103 A 
ATOM     18  C   UNL     1      -0.147   5.430  -3.179  0.00  0.00    +0.031 A 
ATOM     19  C   UNL     1      -1.418   5.780  -2.751  0.00  0.00    +0.120 A 
ATOM     20  C   UNL     1      -2.441   5.641  -3.679  0.00  0.00    +0.202 A 
ATOM     21  O   UNL     1      -3.754   5.610  -3.233  0.00  0.00    -0.286 OA
ATOM     22  C   UNL     1      -2.145   5.690  -5.033  0.00  0.00    +0.044 A 
ATOM     23  C   UNL     1      -0.808   5.787  -5.401  0.00  0.00    +0.024 A 
BRANCH  19  24
ATOM     24  C   UNL     1      -1.660   6.392  -1.440  0.00  0.00    +0.391 C 
ATOM     25  O   UNL     1      -1.825   7.777  -1.430  0.00  0.00    -0.240 OA
ATOM     26  O   UNL     1      -1.154   5.897  -0.389  0.00  0.00    -0.240 OA
ENDBRANCH  19  24
ENDBRANCH  16  17
ENDBRANCH   4  15
TORSDOF 7
ENDMDL
MODEL 2
REMARK VINA RESULT:      -8.3      1.609      2.537
REMARK  Name = 
REMARK  7 active torsions:
REMARK  status: ('A' for Active; 'I' for Inactive)
REMARK    1  A    between atoms: C_2  and  C_4
REMARK    2  A    between atoms: C_4  and  C_5
REMARK    3  A    between atoms: C_5  and  N_6
REMARK    4  A    between atoms: C_7  and  C_9
REMARK    5  A    between atoms: C_12  and  N_13
REMARK    6  A    between atoms: N_14  and  C_15
REMARK    7  A    between atoms: C_20  and  C_21
REMARK                            x       y       z     vdW  Elec       q    Type
REMARK                         _______ _______ _______ _____ _____    ______ ____
ROOT
ATOM      1  C   UNL     1       3.660   6.347  -9.304  0.00  0.00    +0.055 A 
ATOM      2  C   UNL     1       4.307   5.507  -8.423  0.00  0.00    +0.006 A 
ATOM      3  C   UNL     1       4.134   5.730  -7.080  0.00  0.00    +0.021 A 
ATOM      4  C   UNL     1       2.899   6.181  -6.630  0.00  0.00    +0.103 A 
ATOM      5  C   UNL     1       2.241   7.034  -7.508  0.00  0.00    +0.021 A 
ATOM      6  C   UNL     1       2.560   7.021  -8.859  0.00  0.00    +0.006 A 
ENDROOT
BRANCH   1   8
ATOM      7  N   UNL     1       5.340   7.396 -10.760  0.00  0.00    -0.201 NA
ATOM      8  C   UNL     1       4.221   6.507 -10.651  0.00  0.00    +0.265 C 
ATOM      9  O   UNL     1       4.339   5.430 -11.310  0.00  0.00    -0.268 OA
BRANCH   7  10
ATOM     10  C   UNL     1       6.363   7.193 -11.781  0.00  0.00    +0.127 C 
BRANCH  10  11
ATOM     11  C   UNL     1       7.606   6.684 -11.070  0.00  0.00    +0.137 C 
BRANCH  11  13
ATOM     12  O   UNL     1       7.642   4.707 -12.443  0.00  0.00    -0.246 OA
ATOM     13  C   UNL     1       8.262   5.704 -11.978  0.00  0.00    +0.367 C 
ATOM     14  O   UNL     1       9.626   5.849 -12.242  0.00  0.00    -0.246 OA
ENDBRANCH  11  13
ENDBRANCH  10  11
ENDBRANCH   7  10
ENDBRANCH   1   8
BRANCH   4  15
ATOM     15  N   UNL     1       2.660   6.214  -5.225  0.00  0.00    -0.148 NA
ATOM     16  N   UNL     1       1.650   6.726  -4.682  0.00  0.00    -0.148 NA
BRANCH  16  17
ATOM     17  C   UNL     1       0.871   6.068  -3.673  0.00  0.00    +0.103 A 
ATOM     18  C   UNL     1      -0.474   6.370  -3.492  0.00  0.00    +0.031 A 
ATOM     19  C   UNL     1      -1.125   6.136  -2.290  0.00  0.00    +0.120 A 
ATOM     20  C   UNL     1      -0.334   6.142  -1.150  0.00  0.00    +0.202 A 
ATOM     21  O   UNL     1      -0.941   6.288   0.089  0.00  0.00    -0.286 OA
ATOM     22  C   UNL     1       1.018   5.849  -1.255  0.00  0.00    +0.044 A 
ATOM     23  C   UNL     1       1.540   5.651  -2.528  0.00  0.00    +0.024 A 
BRANCH  19  24
ATOM     24  C   UNL     1      -2.544   5.769  -2.229  0.00  0.00    +0.391 C 
ATOM     25  O   UNL     1      -2.901   4.590  -2.880  0.00  0.00    -0.240 OA
ATOM     26  O   UNL     1      -3.444   6.661  -2.185  0.00  0.00    -0.240 OA
ENDBRANCH  19  24
ENDBRANCH  16  17
ENDBRANCH   4  15
TORSDOF 7
ENDMDL
MODEL 3
REMARK VINA RESULT:      -8.3      1.930     10.618
REMARK  Name = 
REMARK  7 active torsions:
REMARK  status: ('A' for Active; 'I' for Inactive)
REMARK    1  A    between atoms: C_2  and  C_4
REMARK    2  A    between atoms: C_4  and  C_5
REMARK    3  A    between atoms: C_5  and  N_6
REMARK    4  A    between atoms: C_7  and  C_9
REMARK    5  A    between atoms: C_12  and  N_13
REMARK    6  A    between atoms: N_14  and  C_15
REMARK    7  A    between atoms: C_20  and  C_21
REMARK                            x       y       z     vdW  Elec       q    Type
REMARK                         _______ _______ _______ _____ _____    ______ ____
ROOT
ATOM      1  C   UNL     1       1.023   5.490  -6.012  0.00  0.00    +0.055 A 
ATOM      2  C   UNL     1       1.474   4.213  -6.271  0.00  0.00    +0.006 A 
ATOM      3  C   UNL     1       2.333   4.038  -7.327  0.00  0.00    +0.021 A 
ATOM      4  C   UNL     1       3.261   5.034  -7.607  0.00  0.00    +0.103 A 
ATOM      5  C   UNL     1       2.814   6.326  -7.356  0.00  0.00    +0.021 A 
ATOM      6  C   UNL     1       1.767   6.539  -6.469  0.00  0.00    +0.006 A 
ENDROOT
BRANCH   1   8
ATOM      7  N   UNL     1      -0.360   6.792  -4.452  0.00  0.00    -0.201 NA
ATOM      8  C   UNL     1      -0.255   5.646  -5.306  0.00  0.00    +0.265 C 
ATOM      9  O   UNL     1      -1.284   5.419  -6.011  0.00  0.00    -0.268 OA
BRANCH   7  10
ATOM     10  C   UNL     1      -1.649   7.432  -4.211  0.00  0.00    +0.127 C 
BRANCH  10  11
ATOM     11  C   UNL     1      -1.974   7.236  -2.739  0.00  0.00    +0.137 C 
BRANCH  11  13
ATOM     12  O   UNL     1      -4.246   6.457  -2.579  0.00  0.00    -0.246 OA
ATOM     13  C   UNL     1      -3.016   6.178  -2.655  0.00  0.00    +0.367 C 
ATOM     14  O   UNL     1      -2.608   4.845  -2.566  0.00  0.00    -0.246 OA
ENDBRANCH  11  13
ENDBRANCH  10  11
ENDBRANCH   7  10
ENDBRANCH   1   8
BRANCH   4  15
ATOM     15  N   UNL     1       4.279   4.761  -8.567  0.00  0.00    -0.148 NA
ATOM     16  N   UNL     1       4.242   5.118  -9.770  0.00  0.00    -0.148 NA
BRANCH  16  17
ATOM     17  C   UNL     1       5.335   5.761 -10.442  0.00  0.00    +0.103 A 
ATOM     18  C   UNL     1       5.499   5.650 -11.819  0.00  0.00    +0.031 A 
ATOM     19  C   UNL     1       6.730   5.834 -12.429  0.00  0.00    +0.120 A 
ATOM     20  C   UNL     1       7.849   5.569 -11.653  0.00  0.00    +0.202 A 
ATOM     21  O   UNL     1       9.070   5.369 -12.280  0.00  0.00    -0.286 OA
ATOM     22  C   UNL     1       7.759   5.661 -10.272  0.00  0.00    +0.044 A 
ATOM     23  C   UNL     1       6.512   5.929  -9.721  0.00  0.00    +0.024 A 
BRANCH  19  24
ATOM     24  C   UNL     1       6.856   6.406 -13.775  0.00  0.00    +0.391 C 
ATOM     25  O   UNL     1       6.345   7.691 -13.946  0.00  0.00    -0.240 OA
ATOM     26  O   UNL     1       6.818   5.663 -14.801  0.00  0.00    -0.240 OA
ENDBRANCH  19  24
ENDBRANCH  16  17
ENDBRANCH   4  15
TORSDOF 7
ENDMDL
MODEL 4
REMARK VINA RESULT:      -8.1      1.898     10.518
REMARK  Name = 
REMARK  7 active torsions:
REMARK  status: ('A' for Active; 'I' for Inactive)
REMARK    1  A    between atoms: C_2  and  C_4
REMARK    2  A    between atoms: C_4  and  C_5
REMARK    3  A    between atoms: C_5  and  N_6
REMARK    4  A    between atoms: C_7  and  C_9
REMARK    5  A    between atoms: C_12  and  N_13
REMARK    6  A    between atoms: N_14  and  C_15
REMARK    7  A    between atoms: C_20  and  C_21
REMARK                            x       y       z     vdW  Elec       q    Type
REMARK                         _______ _______ _______ _____ _____    ______ ____
ROOT
ATOM      1  C   UNL     1       0.053   5.145  -6.498  0.00  0.00    +0.055 A 
ATOM      2  C   UNL     1       0.343   5.723  -7.715  0.00  0.00    +0.006 A 
ATOM      3  C   UNL     1       1.656   5.752  -8.115  0.00  0.00    +0.021 A 
ATOM      4  C   UNL     1       2.480   4.683  -7.785  0.00  0.00    +0.103 A 
ATOM      5  C   UNL     1       2.200   4.095  -6.556  0.00  0.00    +0.021 A 
ATOM      6  C   UNL     1       0.944   4.247  -5.984  0.00  0.00    +0.006 A 
ENDROOT
BRANCH   1   8
ATOM      7  N   UNL     1      -0.981   6.451  -4.691  0.00  0.00    -0.201 NA
ATOM      8  C   UNL     1      -1.169   5.566  -5.802  0.00  0.00    +0.265 C 
ATOM      9  O   UNL     1      -2.136   5.875  -6.563  0.00  0.00    -0.268 OA
BRANCH   7  10
ATOM     10  C   UNL     1      -2.007   7.423  -4.324  0.00  0.00    +0.127 C 
BRANCH  10  11
ATOM     11  C   UNL     1      -3.110   6.658  -3.611  0.00  0.00    +0.137 C 
BRANCH  11  13
ATOM     12  O   UNL     1      -2.225   7.243  -1.450  0.00  0.00    -0.246 OA
ATOM     13  C   UNL     1      -2.612   6.341  -2.245  0.00  0.00    +0.367 C 
ATOM     14  O   UNL     1      -2.489   5.000  -1.874  0.00  0.00    -0.246 OA
ENDBRANCH  11  13
ENDBRANCH  10  11
ENDBRANCH   7  10
ENDBRANCH   1   8
BRANCH   4  15
ATOM     15  N   UNL     1       3.777   4.618  -8.373  0.00  0.00    -0.148 NA
ATOM     16  N   UNL     1       4.003   4.606  -9.608  0.00  0.00    -0.148 NA
BRANCH  16  17
ATOM     17  C   UNL     1       4.975   5.447 -10.246  0.00  0.00    +0.103 A 
ATOM     18  C   UNL     1       5.201   5.374 -11.617  0.00  0.00    +0.031 A 
ATOM     19  C   UNL     1       6.393   5.790 -12.188  0.00  0.00    +0.120 A 
ATOM     20  C   UNL     1       7.517   5.738 -11.376  0.00  0.00    +0.202 A 
ATOM     21  O   UNL     1       8.773   5.775 -11.964  0.00  0.00    -0.286 OA
ATOM     22  C   UNL     1       7.368   5.805  -9.999  0.00  0.00    +0.044 A 
ATOM     23  C   UNL     1       6.075   5.831  -9.488  0.00  0.00    +0.024 A 
BRANCH  19  24
ATOM     24  C   UNL     1       6.452   6.379 -13.531  0.00  0.00    +0.391 C 
ATOM     25  O   UNL     1       6.998   5.575 -14.530  0.00  0.00    -0.240 OA
ATOM     26  O   UNL     1       6.616   7.626 -13.685  0.00  0.00    -0.240 OA
ENDBRANCH  19  24
ENDBRANCH  16  17
ENDBRANCH   4  15
TORSDOF 7
ENDMDL
MODEL 5
REMARK VINA RESULT:      -8.0      2.371      2.896
REMARK  Name = 
REMARK  7 active torsions:
REMARK  status: ('A' for Active; 'I' for Inactive)
REMARK    1  A    between atoms: C_2  and  C_4
REMARK    2  A    between atoms: C_4  and  C_5
REMARK    3  A    between atoms: C_5  and  N_6
REMARK    4  A    between atoms: C_7  and  C_9
REMARK    5  A    between atoms: C_12  and  N_13
REMARK    6  A    between atoms: N_14  and  C_15
REMARK    7  A    between atoms: C_20  and  C_21
REMARK                            x       y       z     vdW  Elec       q    Type
REMARK                         _______ _______ _______ _____ _____    ______ ____
ROOT
ATOM      1  C   UNL     1       1.936   6.074 -11.207  0.00  0.00    +0.055 A 
ATOM      2  C   UNL     1       0.632   5.639 -11.309  0.00  0.00    +0.006 A 
ATOM      3  C   UNL     1       0.030   5.146 -10.179  0.00  0.00    +0.021 A 
ATOM      4  C   UNL     1       0.342   5.716  -8.951  0.00  0.00    +0.103 A 
ATOM      5  C   UNL     1       1.657   6.152  -8.834  0.00  0.00    +0.021 A 
ATOM      6  C   UNL     1       2.400   6.432  -9.974  0.00  0.00    +0.006 A 
ENDROOT
BRANCH   1   8
ATOM      7  N   UNL     1       4.117   5.635 -12.252  0.00  0.00    -0.201 NA
ATOM      8  C   UNL     1       2.765   6.077 -12.419  0.00  0.00    +0.265 C 
ATOM      9  O   UNL     1       2.190   5.632 -13.458  0.00  0.00    -0.268 OA
BRANCH   7  10
ATOM     10  C   UNL     1       4.836   4.988 -13.345  0.00  0.00    +0.127 C 
BRANCH  10  11
ATOM     11  C   UNL     1       5.917   5.954 -13.800  0.00  0.00    +0.137 C 
BRANCH  11  13
ATOM     12  O   UNL     1       7.488   6.770 -12.167  0.00  0.00    -0.246 OA
ATOM     13  C   UNL     1       7.063   5.804 -12.862  0.00  0.00    +0.367 C 
ATOM     14  O   UNL     1       7.738   4.582 -12.824  0.00  0.00    -0.246 OA
ENDBRANCH  11  13
ENDBRANCH  10  11
ENDBRANCH   7  10
ENDBRANCH   1   8
BRANCH   4  15
ATOM     15  N   UNL     1      -0.432   5.343  -7.813  0.00  0.00    -0.148 NA
ATOM     16  N   UNL     1       0.040   5.102  -6.675  0.00  0.00    -0.148 NA
BRANCH  16  17
ATOM     17  C   UNL     1      -0.490   5.657  -5.462  0.00  0.00    +0.103 A 
ATOM     18  C   UNL     1       0.096   5.384  -4.230  0.00  0.00    +0.031 A 
ATOM     19  C   UNL     1      -0.610   5.490  -3.042  0.00  0.00    +0.120 A 
ATOM     20  C   UNL     1      -1.984   5.313  -3.122  0.00  0.00    +0.202 A 
ATOM     21  O   UNL     1      -2.695   5.036  -1.964  0.00  0.00    -0.286 OA
ATOM     22  C   UNL     1      -2.635   5.567  -4.321  0.00  0.00    +0.044 A 
ATOM     23  C   UNL     1      -1.857   5.903  -5.422  0.00  0.00    +0.024 A 
BRANCH  19  24
ATOM     24  C   UNL     1       0.031   5.898  -1.786  0.00  0.00    +0.391 C 
ATOM     25  O   UNL     1       0.721   4.901  -1.098  0.00  0.00    -0.240 OA
ATOM     26  O   UNL     1      -0.476   6.807  -1.064  0.00  0.00    -0.240 OA
ENDBRANCH  19  24
ENDBRANCH  16  17
ENDBRANCH   4  15
TORSDOF 7
ENDMDL
MODEL 6
REMARK VINA RESULT:      -7.9      1.979      9.993
REMARK  Name = 
REMARK  7 active torsions:
REMARK  status: ('A' for Active; 'I' for Inactive)
REMARK    1  A    between atoms: C_2  and  C_4
REMARK    2  A    between atoms: C_4  and  C_5
REMARK    3  A    between atoms: C_5  and  N_6
REMARK    4  A    between atoms: C_7  and  C_9
REMARK    5  A    between atoms: C_12  and  N_13
REMARK    6  A    between atoms: N_14  and  C_15
REMARK    7  A    between atoms: C_20  and  C_21
REMARK                            x       y       z     vdW  Elec       q    Type
REMARK                         _______ _______ _______ _____ _____    ______ ____
ROOT
ATOM      1  C   UNL     1       1.714   5.444  -3.122  0.00  0.00    +0.055 A 
ATOM      2  C   UNL     1       1.096   5.564  -4.349  0.00  0.00    +0.006 A 
ATOM      3  C   UNL     1       1.827   6.083  -5.387  0.00  0.00    +0.021 A 
ATOM      4  C   UNL     1       3.183   5.791  -5.463  0.00  0.00    +0.103 A 
ATOM      5  C   UNL     1       3.818   5.674  -4.231  0.00  0.00    +0.021 A 
ATOM      6  C   UNL     1       3.077   5.390  -3.092  0.00  0.00    +0.006 A 
ENDROOT
BRANCH   1   8
ATOM      7  N   UNL     1      -0.054   6.519  -1.796  0.00  0.00    -0.201 NA
ATOM      8  C   UNL     1       0.873   5.434  -1.918  0.00  0.00    +0.265 C 
ATOM      9  O   UNL     1       0.399   4.298  -1.610  0.00  0.00    -0.268 OA
BRANCH   7  10
ATOM     10  C   UNL     1      -1.319   6.348  -1.087  0.00  0.00    +0.127 C 
BRANCH  10  11
ATOM     11  C   UNL     1      -2.411   6.901  -1.988  0.00  0.00    +0.137 C 
BRANCH  11  13
ATOM     12  O   UNL     1      -2.628   6.282  -4.305  0.00  0.00    -0.246 OA
ATOM     13  C   UNL     1      -2.604   5.923  -3.094  0.00  0.00    +0.367 C 
ATOM     14  O   UNL     1      -2.857   4.589  -2.768  0.00  0.00    -0.246 OA
ENDBRANCH  11  13
ENDBRANCH  10  11
ENDBRANCH   7  10
ENDBRANCH   1   8
BRANCH   4  15
ATOM     15  N   UNL     1       3.892   6.158  -6.645  0.00  0.00    -0.148 NA
ATOM     16  N   UNL     1       4.941   5.600  -7.052  0.00  0.00    -0.148 NA
BRANCH  16  17
ATOM     17  C   UNL     1       5.137   5.171  -8.407  0.00  0.00    +0.103 A 
ATOM     18  C   UNL     1       6.161   5.696  -9.187  0.00  0.00    +0.031 A 
ATOM     19  C   UNL     1       6.112   5.681 -10.572  0.00  0.00    +0.120 A 
ATOM     20  C   UNL     1       4.847   5.669 -11.144  0.00  0.00    +0.202 A 
ATOM     21  O   UNL     1       4.709   6.025 -12.478  0.00  0.00    -0.286 OA
ATOM     22  C   UNL     1       3.777   5.159 -10.423  0.00  0.00    +0.044 A 
ATOM     23  C   UNL     1       4.010   4.763  -9.112  0.00  0.00    +0.024 A 
BRANCH  19  24
ATOM     24  C   UNL     1       7.319   5.549 -11.396  0.00  0.00    +0.391 C 
ATOM     25  O   UNL     1       7.931   6.740 -11.783  0.00  0.00    -0.240 OA
ATOM     26  O   UNL     1       7.451   4.581 -12.203  0.00  0.00    -0.240 OA
ENDBRANCH  19  24
ENDBRANCH  16  17
ENDBRANCH   4  15
TORSDOF 7
ENDMDL
MODEL 7
REMARK VINA RESULT:      -7.6      3.635      4.381
REMARK  Name = 
REMARK  7 active torsions:
REMARK  status: ('A' for Active; 'I' for Inactive)
REMARK    1  A    between atoms: C_2  and  C_4
REMARK    2  A    between atoms: C_4  and  C_5
REMARK    3  A    between atoms: C_5  and  N_6
REMARK    4  A    between atoms: C_7  and  C_9
REMARK    5  A    between atoms: C_12  and  N_13
REMARK    6  A    between atoms: N_14  and  C_15
REMARK    7  A    between atoms: C_20  and  C_21
REMARK                            x       y       z     vdW  Elec       q    Type
REMARK                         _______ _______ _______ _____ _____    ______ ____
ROOT
ATOM      1  C   UNL     1       3.651   6.029  -9.646  0.00  0.00    +0.055 A 
ATOM      2  C   UNL     1       4.543   5.126  -9.109  0.00  0.00    +0.006 A 
ATOM      3  C   UNL     1       4.978   5.341  -7.825  0.00  0.00    +0.021 A 
ATOM      4  C   UNL     1       4.094   5.880  -6.900  0.00  0.00    +0.103 A 
ATOM      5  C   UNL     1       3.192   6.797  -7.429  0.00  0.00    +0.021 A 
ATOM      6  C   UNL     1       2.902   6.780  -8.787  0.00  0.00    +0.006 A 
ENDROOT
BRANCH   1   8
ATOM      7  N   UNL     1       4.818   5.910 -11.805  0.00  0.00    -0.201 NA
ATOM      8  C   UNL     1       3.594   6.166 -11.107  0.00  0.00    +0.265 C 
ATOM      9  O   UNL     1       2.563   5.663 -11.649  0.00  0.00    -0.268 OA
BRANCH   7  10
ATOM     10  C   UNL     1       4.809   5.385 -13.167  0.00  0.00    +0.127 C 
BRANCH  10  11
ATOM     11  C   UNL     1       5.986   6.016 -13.894  0.00  0.00    +0.137 C 
BRANCH  11  13
ATOM     12  O   UNL     1       7.640   4.532 -12.967  0.00  0.00    -0.246 OA
ATOM     13  C   UNL     1       7.208   5.711 -13.101  0.00  0.00    +0.367 C 
ATOM     14  O   UNL     1       7.835   6.753 -12.414  0.00  0.00    -0.246 OA
ENDBRANCH  11  13
ENDBRANCH  10  11
ENDBRANCH   7  10
ENDBRANCH   1   8
BRANCH   4  15
ATOM     15  N   UNL     1       4.481   5.910  -5.528  0.00  0.00    -0.148 NA
ATOM     16  N   UNL     1       4.408   6.920  -4.785  0.00  0.00    -0.148 NA
BRANCH  16  17
ATOM     17  C   UNL     1       3.835   6.899  -3.470  0.00  0.00    +0.103 A 
ATOM     18  C   UNL     1       4.006   7.966  -2.594  0.00  0.00    +0.031 A 
ATOM     19  C   UNL     1       3.895   7.814  -1.221  0.00  0.00    +0.120 A 
ATOM     20  C   UNL     1       4.174   6.552  -0.715  0.00  0.00    +0.202 A 
ATOM     21  O   UNL     1       4.446   6.415   0.638  0.00  0.00    -0.286 OA
ATOM     22  C   UNL     1       4.025   5.441  -1.533  0.00  0.00    +0.044 A 
ATOM     23  C   UNL     1       3.687   5.657  -2.863  0.00  0.00    +0.024 A 
BRANCH  19  24
ATOM     24  C   UNL     1       3.382   8.883  -0.356  0.00  0.00    +0.391 C 
ATOM     25  O   UNL     1       2.149   8.644   0.248  0.00  0.00    -0.240 OA
ATOM     26  O   UNL     1       3.641  10.098  -0.603  0.00  0.00    -0.240 OA
ENDBRANCH  19  24
ENDBRANCH  16  17
ENDBRANCH   4  15
TORSDOF 7
ENDMDL
MODEL 8
REMARK VINA RESULT:      -7.6      4.103     10.378
REMARK  Name = 
REMARK  7 active torsions:
REMARK  status: ('A' for Active; 'I' for Inactive)
REMARK    1  A    between atoms: C_2  and  C_4
REMARK    2  A    between atoms: C_4  and  C_5
REMARK    3  A    between atoms: C_5  and  N_6
REMARK    4  A    between atoms: C_7  and  C_9
REMARK    5  A    between atoms: C_12  and  N_13
REMARK    6  A    between atoms: N_14  and  C_15
REMARK    7  A    between atoms: C_20  and  C_21
REMARK                            x       y       z     vdW  Elec       q    Type
REMARK                         _______ _______ _______ _____ _____    ______ ____
ROOT
ATOM      1  C   UNL     1      -1.650   6.011  -4.633  0.00  0.00    +0.055 A 
ATOM      2  C   UNL     1      -0.463   6.672  -4.864  0.00  0.00    +0.006 A 
ATOM      3  C   UNL     1       0.237   6.354  -6.001  0.00  0.00    +0.021 A 
ATOM      4  C   UNL     1      -0.469   6.039  -7.155  0.00  0.00    +0.103 A 
ATOM      5  C   UNL     1      -1.666   5.367  -6.934  0.00  0.00    +0.021 A 
ATOM      6  C   UNL     1      -2.296   5.458  -5.700  0.00  0.00    +0.006 A 
ENDROOT
BRANCH   1   8
ATOM      7  N   UNL     1      -1.202   5.318  -2.318  0.00  0.00    -0.201 NA
ATOM      8  C   UNL     1      -2.125   5.898  -3.247  0.00  0.00    +0.265 C 
ATOM      9  O   UNL     1      -2.741   6.917  -2.811  0.00  0.00    -0.268 OA
BRANCH   7  10
ATOM     10  C   UNL     1      -1.220   5.696  -0.908  0.00  0.00    +0.127 C 
BRANCH  10  11
ATOM     11  C   UNL     1      -0.026   6.608  -0.678  0.00  0.00    +0.137 C 
BRANCH  11  13
ATOM     12  O   UNL     1      -0.042   7.566   1.531  0.00  0.00    -0.246 OA
ATOM     13  C   UNL     1      -0.435   7.622   0.332  0.00  0.00    +0.367 C 
ATOM     14  O   UNL     1      -1.351   8.606  -0.045  0.00  0.00    -0.246 OA
ENDBRANCH  11  13
ENDBRANCH  10  11
ENDBRANCH   7  10
ENDBRANCH   1   8
BRANCH   4  15
ATOM     15  N   UNL     1       0.252   5.912  -8.378  0.00  0.00    -0.148 NA
ATOM     16  N   UNL     1       0.017   5.050  -9.261  0.00  0.00    -0.148 NA
BRANCH  16  17
ATOM     17  C   UNL     1      -0.104   5.356 -10.658  0.00  0.00    +0.103 A 
ATOM     18  C   UNL     1       0.773   4.815 -11.592  0.00  0.00    +0.031 A 
ATOM     19  C   UNL     1       0.998   5.414 -12.821  0.00  0.00    +0.120 A 
ATOM     20  C   UNL     1       0.803   6.786 -12.884  0.00  0.00    +0.202 A 
ATOM     21  O   UNL     1       1.353   7.497 -13.941  0.00  0.00    -0.286 OA
ATOM     22  C   UNL     1      -0.060   7.395 -11.983  0.00  0.00    +0.044 A 
ATOM     23  C   UNL     1      -0.623   6.602 -10.991  0.00  0.00    +0.024 A 
BRANCH  19  24
ATOM     24  C   UNL     1       1.296   4.633 -14.028  0.00  0.00    +0.391 C 
ATOM     25  O   UNL     1       2.640   4.559 -14.393  0.00  0.00    -0.240 OA
ATOM     26  O   UNL     1       0.467   4.575 -14.984  0.00  0.00    -0.240 OA
ENDBRANCH  19  24
ENDBRANCH  16  17
ENDBRANCH   4  15
TORSDOF 7
ENDMDL
MODEL 9
REMARK VINA RESULT:      -7.5      2.171     10.363
REMARK  Name = 
REMARK  7 active torsions:
REMARK  status: ('A' for Active; 'I' for Inactive)
REMARK    1  A    between atoms: C_2  and  C_4
REMARK    2  A    between atoms: C_4  and  C_5
REMARK    3  A    between atoms: C_5  and  N_6
REMARK    4  A    between atoms: C_7  and  C_9
REMARK    5  A    between atoms: C_12  and  N_13
REMARK    6  A    between atoms: N_14  and  C_15
REMARK    7  A    between atoms: C_20  and  C_21
REMARK                            x       y       z     vdW  Elec       q    Type
REMARK                         _______ _______ _______ _____ _____    ______ ____
ROOT
ATOM      1  C   UNL     1       0.294   5.589  -6.413  0.00  0.00    +0.055 A 
ATOM      2  C   UNL     1      -0.576   5.459  -7.475  0.00  0.00    +0.006 A 
ATOM      3  C   UNL     1      -0.081   5.662  -8.738  0.00  0.00    +0.021 A 
ATOM      4  C   UNL     1       1.220   5.263  -9.020  0.00  0.00    +0.103 A 
ATOM      5  C   UNL     1       2.107   5.396  -7.959  0.00  0.00    +0.021 A 
ATOM      6  C   UNL     1       1.629   5.445  -6.656  0.00  0.00    +0.006 A 
ENDROOT
BRANCH   1   8
ATOM      7  N   UNL     1       0.453   5.409  -3.967  0.00  0.00    -0.201 NA
ATOM      8  C   UNL     1      -0.261   5.926  -5.097  0.00  0.00    +0.265 C 
ATOM      9  O   UNL     1      -0.644   7.129  -4.972  0.00  0.00    -0.268 OA
BRANCH   7  10
ATOM     10  C   UNL     1       0.454   6.118  -2.692  0.00  0.00    +0.127 C 
BRANCH  10  11
ATOM     11  C   UNL     1      -0.360   5.282  -1.718  0.00  0.00    +0.137 C 
BRANCH  11  13
ATOM     12  O   UNL     1      -2.262   6.736  -1.455  0.00  0.00    -0.246 OA
ATOM     13  C   UNL     1      -1.789   5.655  -1.906  0.00  0.00    +0.367 C 
ATOM     14  O   UNL     1      -2.643   4.736  -2.520  0.00  0.00    -0.246 OA
ENDBRANCH  11  13
ENDBRANCH  10  11
ENDBRANCH   7  10
ENDBRANCH   1   8
BRANCH   4  15
ATOM     15  N   UNL     1       1.658   5.286 -10.377  0.00  0.00    -0.148 NA
ATOM     16  N   UNL     1       2.574   6.021 -10.820  0.00  0.00    -0.148 NA
BRANCH  16  17
ATOM     17  C   UNL     1       3.643   5.544 -11.650  0.00  0.00    +0.103 A 
ATOM     18  C   UNL     1       4.972   5.801 -11.330  0.00  0.00    +0.031 A 
ATOM     19  C   UNL     1       5.975   5.786 -12.286  0.00  0.00    +0.120 A 
ATOM     20  C   UNL     1       5.590   6.071 -13.589  0.00  0.00    +0.202 A 
ATOM     21  O   UNL     1       6.558   6.437 -14.512  0.00  0.00    -0.286 OA
ATOM     22  C   UNL     1       4.279   5.839 -13.979  0.00  0.00    +0.044 A 
ATOM     23  C   UNL     1       3.381   5.411 -13.008  0.00  0.00    +0.024 A 
BRANCH  19  24
ATOM     24  C   UNL     1       7.345   5.360 -11.976  0.00  0.00    +0.391 C 
ATOM     25  O   UNL     1       8.073   6.204 -11.138  0.00  0.00    -0.240 OA
ATOM     26  O   UNL     1       8.029   4.708 -12.819  0.00  0.00    -0.240 OA
ENDBRANCH  19  24
ENDBRANCH  16  17
ENDBRANCH   4  15
TORSDOF 7
ENDMDL
