MODEL 1
REMARK VINA RESULT:      -8.0      0.000      0.000
REMARK  Name = 
REMARK  2 active torsions:
REMARK  status: ('A' for Active; 'I' for Inactive)
REMARK    1  A    between atoms: C_2  and  C_3
REMARK    2  A    between atoms: C_21  and  C_22
REMARK                            x       y       z     vdW  Elec       q    Type
REMARK                         _______ _______ _______ _____ _____    ______ ____
ROOT
ATOM      1  C   UNL     1       3.432   6.495  -6.008  0.00  0.00    +0.180 C 
ATOM      2  C   UNL     1       2.341   5.750  -5.334  0.00  0.00    +0.040 C 
ATOM      3  C   UNL     1       1.419   7.097  -5.129  0.00  0.00    +0.004 C 
ATOM      4  C   UNL     1       0.017   6.158  -4.872  0.00  0.00    +0.004 C 
ATOM      5  C   UNL     1       0.223   6.385  -3.204  0.00  0.00    +0.022 C 
ATOM      6  C   UNL     1       1.317   5.222  -3.118  0.00  0.00    -0.044 C 
ATOM      7  C   UNL     1       1.546   4.970  -1.818  0.00  0.00    -0.009 C 
ATOM      8  C   UNL     1      -1.057   5.293  -2.859  0.00  0.00    +0.022 C 
ATOM      9  C   UNL     1      -2.183   6.399  -3.229  0.00  0.00    -0.048 C 
ATOM     10  C   UNL     1      -3.166   6.511  -2.351  0.00  0.00    -0.035 C 
ATOM     11  C   UNL     1      -2.793   7.224  -1.076  0.00  0.00    +0.025 C 
ATOM     12  C   UNL     1      -1.263   7.140  -1.124  0.00  0.00    +0.005 C 
ATOM     13  C   UNL     1      -2.283   6.754  -4.667  0.00  0.00    +0.022 C 
ATOM     14  C   UNL     1      -1.015   5.673  -1.256  0.00  0.00    +0.005 C 
ATOM     15  C   UNL     1      -0.960   7.441  -5.011  0.00  0.00    +0.005 C 
ATOM     16  C   UNL     1       1.220   7.179  -6.756  0.00  0.00    +0.004 C 
ATOM     17  C   UNL     1       2.539   5.341  -3.937  0.00  0.00    +0.025 C 
ATOM     18  C   UNL     1       2.713   7.445  -6.964  0.00  0.00    +0.043 C 
ATOM     19  O   UNL     1       4.285   5.748  -6.791  0.00  0.00    -0.212 OA
ENDROOT
BRANCH   1  21
ATOM     20  C   UNL     1       5.033   7.714  -4.298  0.00  0.00    -0.012 C 
ATOM     21  C   UNL     1       4.230   7.229  -5.039  0.00  0.00    -0.049 C 
ENDBRANCH   1  21
BRANCH   2  22
ATOM     22  C   UNL     1       1.604   4.839  -6.230  0.00  0.00    +0.004 C 
ATOM     23  C   UNL     1       2.185   3.456  -6.371  0.00  0.00    +0.000 C 
ENDBRANCH   2  22
TORSDOF 2
ENDMDL
MODEL 2
REMARK VINA RESULT:      -7.8      2.288      3.778
REMARK  Name = 
REMARK  2 active torsions:
REMARK  status: ('A' for Active; 'I' for Inactive)
REMARK    1  A    between atoms: C_2  and  C_3
REMARK    2  A    between atoms: C_21  and  C_22
REMARK                            x       y       z     vdW  Elec       q    Type
REMARK                         _______ _______ _______ _____ _____    ______ ____
ROOT
ATOM      1  C   UNL     1       4.275   7.426  -1.583  0.00  0.00    +0.180 C 
ATOM      2  C   UNL     1       3.191   6.475  -1.929  0.00  0.00    +0.040 C 
ATOM      3  C   UNL     1       2.836   7.245  -3.339  0.00  0.00    +0.004 C 
ATOM      4  C   UNL     1       2.014   5.874  -3.938  0.00  0.00    +0.004 C 
ATOM      5  C   UNL     1       0.553   6.610  -3.493  0.00  0.00    +0.022 C 
ATOM      6  C   UNL     1       0.715   6.152  -1.969  0.00  0.00    -0.044 C 
ATOM      7  C   UNL     1      -0.449   6.394  -1.342  0.00  0.00    -0.009 C 
ATOM      8  C   UNL     1      -0.327   5.189  -3.890  0.00  0.00    +0.022 C 
ATOM      9  C   UNL     1      -0.241   5.507  -5.478  0.00  0.00    -0.048 C 
ATOM     10  C   UNL     1      -1.383   5.385  -6.134  0.00  0.00    -0.035 C 
ATOM     11  C   UNL     1      -2.367   6.503  -5.899  0.00  0.00    +0.025 C 
ATOM     12  C   UNL     1      -1.811   7.123  -4.612  0.00  0.00    +0.005 C 
ATOM     13  C   UNL     1       1.106   5.375  -6.085  0.00  0.00    +0.022 C 
ATOM     14  C   UNL     1      -1.767   5.961  -3.675  0.00  0.00    +0.005 C 
ATOM     15  C   UNL     1       1.954   6.473  -5.441  0.00  0.00    +0.005 C 
ATOM     16  C   UNL     1       4.296   6.786  -3.930  0.00  0.00    +0.004 C 
ATOM     17  C   UNL     1       1.909   6.596  -1.223  0.00  0.00    +0.025 C 
ATOM     18  C   UNL     1       5.029   7.642  -2.893  0.00  0.00    +0.043 C 
ATOM     19  O   UNL     1       5.214   6.976  -0.679  0.00  0.00    -0.212 OA
ENDROOT
BRANCH   1  21
ATOM     20  C   UNL     1       3.454   9.740  -0.609  0.00  0.00    -0.012 C 
ATOM     21  C   UNL     1       3.724   8.675  -1.081  0.00  0.00    -0.049 C 
ENDBRANCH   1  21
BRANCH   2  22
ATOM     22  C   UNL     1       3.676   5.124  -2.270  0.00  0.00    +0.004 C 
ATOM     23  C   UNL     1       3.708   4.138  -1.131  0.00  0.00    +0.000 C 
ENDBRANCH   2  22
TORSDOF 2
ENDMDL
MODEL 3
REMARK VINA RESULT:      -7.1      2.636      5.283
REMARK  Name = 
REMARK  2 active torsions:
REMARK  status: ('A' for Active; 'I' for Inactive)
REMARK    1  A    between atoms: C_2  and  C_3
REMARK    2  A    between atoms: C_21  and  C_22
REMARK                            x       y       z     vdW  Elec       q    Type
REMARK                         _______ _______ _______ _____ _____    ______ ____
ROOT
ATOM      1  C   UNL     1       3.446   7.186  -0.118  0.00  0.00    +0.180 C 
ATOM      2  C   UNL     1       3.128   6.215  -1.192  0.00  0.00    +0.040 C 
ATOM      3  C   UNL     1       3.316   7.330  -2.386  0.00  0.00    +0.004 C 
ATOM      4  C   UNL     1       3.483   6.109  -3.568  0.00  0.00    +0.004 C 
ATOM      5  C   UNL     1       1.856   6.350  -3.983  0.00  0.00    +0.022 C 
ATOM      6  C   UNL     1       1.348   5.445  -2.766  0.00  0.00    -0.044 C 
ATOM      7  C   UNL     1       0.033   5.228  -2.938  0.00  0.00    -0.009 C 
ATOM      8  C   UNL     1       1.891   5.004  -5.050  0.00  0.00    +0.022 C 
ATOM      9  C   UNL     1       2.674   5.849  -6.189  0.00  0.00    -0.048 C 
ATOM     10  C   UNL     1       2.177   5.735  -7.410  0.00  0.00    -0.035 C 
ATOM     11  C   UNL     1       0.894   6.491  -7.641  0.00  0.00    +0.025 C 
ATOM     12  C   UNL     1       0.429   6.736  -6.201  0.00  0.00    +0.005 C 
ATOM     13  C   UNL     1       4.082   6.197  -5.874  0.00  0.00    +0.022 C 
ATOM     14  C   UNL     1       0.389   5.358  -5.626  0.00  0.00    +0.005 C 
ATOM     15  C   UNL     1       4.009   7.157  -4.685  0.00  0.00    +0.005 C 
ATOM     16  C   UNL     1       4.919   7.393  -2.042  0.00  0.00    +0.004 C 
ATOM     17  C   UNL     1       1.724   5.836  -1.393  0.00  0.00    +0.025 C 
ATOM     18  C   UNL     1       4.638   7.975  -0.655  0.00  0.00    +0.043 C 
ATOM     19  O   UNL     1       3.860   6.650   1.084  0.00  0.00    -0.212 OA
ENDROOT
BRANCH   1  21
ATOM     20  C   UNL     1       1.459   8.800   0.531  0.00  0.00    -0.012 C 
ATOM     21  C   UNL     1       2.312   8.058   0.141  0.00  0.00    -0.049 C 
ENDBRANCH   1  21
BRANCH   2  22
ATOM     22  C   UNL     1       4.163   5.181  -1.382  0.00  0.00    +0.004 C 
ATOM     23  C   UNL     1       3.804   3.802  -0.891  0.00  0.00    +0.000 C 
ENDBRANCH   2  22
TORSDOF 2
ENDMDL
MODEL 4
REMARK VINA RESULT:      -6.6      2.435      5.413
REMARK  Name = 
REMARK  2 active torsions:
REMARK  status: ('A' for Active; 'I' for Inactive)
REMARK    1  A    between atoms: C_2  and  C_3
REMARK    2  A    between atoms: C_21  and  C_22
REMARK                            x       y       z     vdW  Elec       q    Type
REMARK                         _______ _______ _______ _____ _____    ______ ____
ROOT
ATOM      1  C   UNL     1       2.998   5.525  -0.980  0.00  0.00    +0.180 C 
ATOM      2  C   UNL     1       3.181   6.197  -2.288  0.00  0.00    +0.040 C 
ATOM      3  C   UNL     1       1.915   5.405  -2.979  0.00  0.00    +0.004 C 
ATOM      4  C   UNL     1       1.818   6.554  -4.238  0.00  0.00    +0.004 C 
ATOM      5  C   UNL     1       2.673   5.476  -5.229  0.00  0.00    +0.022 C 
ATOM      6  C   UNL     1       4.077   5.916  -4.603  0.00  0.00    -0.044 C 
ATOM      7  C   UNL     1       5.049   5.383  -5.363  0.00  0.00    -0.009 C 
ATOM      8  C   UNL     1       2.789   6.654  -6.474  0.00  0.00    +0.022 C 
ATOM      9  C   UNL     1       1.252   6.412  -6.931  0.00  0.00    -0.048 C 
ATOM     10  C   UNL     1       1.072   6.274  -8.234  0.00  0.00    -0.035 C 
ATOM     11  C   UNL     1       1.515   4.946  -8.794  0.00  0.00    +0.025 C 
ATOM     12  C   UNL     1       2.432   4.442  -7.674  0.00  0.00    +0.005 C 
ATOM     13  C   UNL     1       0.219   6.882  -5.975  0.00  0.00    +0.022 C 
ATOM     14  C   UNL     1       3.418   5.554  -7.525  0.00  0.00    +0.005 C 
ATOM     15  C   UNL     1       0.380   6.002  -4.734  0.00  0.00    +0.005 C 
ATOM     16  C   UNL     1       0.894   6.219  -1.985  0.00  0.00    +0.004 C 
ATOM     17  C   UNL     1       4.283   5.751  -3.151  0.00  0.00    +0.025 C 
ATOM     18  C   UNL     1       1.488   5.534  -0.751  0.00  0.00    +0.043 C 
ATOM     19  O   UNL     1       3.548   6.162   0.113  0.00  0.00    -0.212 OA
ENDROOT
BRANCH   1  21
ATOM     20  C   UNL     1       3.867   3.033  -0.874  0.00  0.00    -0.012 C 
ATOM     21  C   UNL     1       3.515   4.167  -1.021  0.00  0.00    -0.049 C 
ENDBRANCH   1  21
BRANCH   2  22
ATOM     22  C   UNL     1       2.849   7.634  -2.268  0.00  0.00    +0.004 C 
ATOM     23  C   UNL     1       4.015   8.569  -2.081  0.00  0.00    +0.000 C 
ENDBRANCH   2  22
TORSDOF 2
ENDMDL
MODEL 5
REMARK VINA RESULT:      -6.5      3.099      6.509
REMARK  Name = 
REMARK  2 active torsions:
REMARK  status: ('A' for Active; 'I' for Inactive)
REMARK    1  A    between atoms: C_2  and  C_3
REMARK    2  A    between atoms: C_21  and  C_22
REMARK                            x       y       z     vdW  Elec       q    Type
REMARK                         _______ _______ _______ _____ _____    ______ ____
ROOT
ATOM      1  C   UNL     1       1.348   6.426  -4.841  0.00  0.00    +0.180 C 
ATOM      2  C   UNL     1       1.414   5.670  -6.115  0.00  0.00    +0.040 C 
ATOM      3  C   UNL     1       1.845   6.996  -6.989  0.00  0.00    +0.004 C 
ATOM      4  C   UNL     1       2.423   6.026  -8.269  0.00  0.00    +0.004 C 
ATOM      5  C   UNL     1       0.963   6.307  -9.084  0.00  0.00    +0.022 C 
ATOM      6  C   UNL     1       0.205   5.177  -8.244  0.00  0.00    -0.044 C 
ATOM      7  C   UNL     1      -0.991   4.970  -8.821  0.00  0.00    -0.009 C 
ATOM      8  C   UNL     1       1.392   5.190 -10.316  0.00  0.00    +0.022 C 
ATOM      9  C   UNL     1       2.397   6.252 -11.015  0.00  0.00    -0.048 C 
ATOM     10  C   UNL     1       2.269   6.362 -12.327  0.00  0.00    -0.035 C 
ATOM     11  C   UNL     1       1.048   7.122 -12.780  0.00  0.00    +0.025 C 
ATOM     12  C   UNL     1       0.185   7.079 -11.514  0.00  0.00    +0.005 C 
ATOM     13  C   UNL     1       3.632   6.563 -10.253  0.00  0.00    +0.022 C 
ATOM     14  C   UNL     1       0.088   5.616 -11.227  0.00  0.00    +0.005 C 
ATOM     15  C   UNL     1       3.160   7.277  -8.985  0.00  0.00    +0.005 C 
ATOM     16  C   UNL     1       3.279   7.026  -6.194  0.00  0.00    +0.004 C 
ATOM     17  C   UNL     1       0.153   5.308  -6.774  0.00  0.00    +0.025 C 
ATOM     18  C   UNL     1       2.581   7.327  -4.865  0.00  0.00    +0.043 C 
ATOM     19  O   UNL     1       1.450   5.680  -3.685  0.00  0.00    -0.212 OA
ENDROOT
BRANCH   1  21
ATOM     20  C   UNL     1      -0.972   7.680  -4.706  0.00  0.00    -0.012 C 
ATOM     21  C   UNL     1       0.126   7.209  -4.769  0.00  0.00    -0.049 C 
ENDBRANCH   1  21
BRANCH   2  22
ATOM     22  C   UNL     1       2.535   4.713  -6.179  0.00  0.00    +0.004 C 
ATOM     23  C   UNL     1       2.147   3.266  -6.341  0.00  0.00    +0.000 C 
ENDBRANCH   2  22
TORSDOF 2
ENDMDL
MODEL 6
REMARK VINA RESULT:      -6.4      7.191      9.994
REMARK  Name = 
REMARK  2 active torsions:
REMARK  status: ('A' for Active; 'I' for Inactive)
REMARK    1  A    between atoms: C_2  and  C_3
REMARK    2  A    between atoms: C_21  and  C_22
REMARK                            x       y       z     vdW  Elec       q    Type
REMARK                         _______ _______ _______ _____ _____    ______ ____
ROOT
ATOM      1  C   UNL     1       0.580   6.950 -14.065  0.00  0.00    +0.180 C 
ATOM      2  C   UNL     1       1.724   6.089 -13.679  0.00  0.00    +0.040 C 
ATOM      3  C   UNL     1       2.122   7.032 -12.391  0.00  0.00    +0.004 C 
ATOM      4  C   UNL     1       3.038   5.773 -11.690  0.00  0.00    +0.004 C 
ATOM      5  C   UNL     1       4.437   6.508 -12.305  0.00  0.00    +0.022 C 
ATOM      6  C   UNL     1       4.210   5.868 -13.753  0.00  0.00    -0.044 C 
ATOM      7  C   UNL     1       5.325   6.080 -14.473  0.00  0.00    -0.009 C 
ATOM      8  C   UNL     1       5.401   5.179 -11.801  0.00  0.00    +0.022 C 
ATOM      9  C   UNL     1       5.390   5.677 -10.258  0.00  0.00    -0.048 C 
ATOM     10  C   UNL     1       6.572   5.677  -9.663  0.00  0.00    -0.035 C 
ATOM     11  C   UNL     1       7.489   6.797 -10.085  0.00  0.00    +0.025 C 
ATOM     12  C   UNL     1       6.834   7.240 -11.398  0.00  0.00    +0.005 C 
ATOM     13  C   UNL     1       4.086   5.565  -9.559  0.00  0.00    +0.022 C 
ATOM     14  C   UNL     1       6.790   5.974 -12.191  0.00  0.00    +0.005 C 
ATOM     15  C   UNL     1       3.155   6.546 -10.272  0.00  0.00    +0.005 C 
ATOM     16  C   UNL     1       0.719   6.588 -11.663  0.00  0.00    +0.004 C 
ATOM     17  C   UNL     1       2.958   6.175 -14.471  0.00  0.00    +0.025 C 
ATOM     18  C   UNL     1      -0.108   7.289 -12.744  0.00  0.00    +0.043 C 
ATOM     19  O   UNL     1      -0.386   6.361 -14.853  0.00  0.00    -0.212 OA
ENDROOT
BRANCH   1  21
ATOM     20  C   UNL     1       1.237   9.175 -15.327  0.00  0.00    -0.012 C 
ATOM     21  C   UNL     1       1.045   8.152 -14.739  0.00  0.00    -0.049 C 
ENDBRANCH   1  21
BRANCH   2  22
ATOM     22  C   UNL     1       1.321   4.769 -13.156  0.00  0.00    +0.004 C 
ATOM     23  C   UNL     1       1.167   3.681 -14.187  0.00  0.00    +0.000 C 
ENDBRANCH   2  22
TORSDOF 2
ENDMDL
MODEL 7
REMARK VINA RESULT:      -6.1      1.809      3.812
REMARK  Name = 
REMARK  2 active torsions:
REMARK  status: ('A' for Active; 'I' for Inactive)
REMARK    1  A    between atoms: C_2  and  C_3
REMARK    2  A    between atoms: C_21  and  C_22
REMARK                            x       y       z     vdW  Elec       q    Type
REMARK                         _______ _______ _______ _____ _____    ______ ____
ROOT
ATOM      1  C   UNL     1       4.165   5.590  -2.886  0.00  0.00    +0.180 C 
ATOM      2  C   UNL     1       2.953   6.442  -2.940  0.00  0.00    +0.040 C 
ATOM      3  C   UNL     1       1.956   5.218  -2.479  0.00  0.00    +0.004 C 
ATOM      4  C   UNL     1       0.728   6.318  -2.036  0.00  0.00    +0.004 C 
ATOM      5  C   UNL     1      -0.029   6.003  -3.520  0.00  0.00    +0.022 C 
ATOM      6  C   UNL     1       0.936   7.013  -4.298  0.00  0.00    -0.044 C 
ATOM      7  C   UNL     1       0.440   7.184  -5.535  0.00  0.00    -0.009 C 
ATOM      8  C   UNL     1      -1.190   7.236  -3.233  0.00  0.00    +0.022 C 
ATOM      9  C   UNL     1      -2.022   6.298  -2.206  0.00  0.00    -0.048 C 
ATOM     10  C   UNL     1      -3.331   6.280  -2.402  0.00  0.00    -0.035 C 
ATOM     11  C   UNL     1      -3.777   5.477  -3.597  0.00  0.00    +0.025 C 
ATOM     12  C   UNL     1      -2.468   5.366  -4.387  0.00  0.00    +0.005 C 
ATOM     13  C   UNL     1      -1.353   6.014  -0.913  0.00  0.00    +0.022 C 
ATOM     14  C   UNL     1      -2.062   6.794  -4.559  0.00  0.00    +0.005 C 
ATOM     15  C   UNL     1      -0.122   5.177  -1.265  0.00  0.00    +0.005 C 
ATOM     16  C   UNL     1       2.670   5.224  -1.002  0.00  0.00    +0.004 C 
ATOM     17  C   UNL     1       2.391   6.769  -4.257  0.00  0.00    +0.025 C 
ATOM     18  C   UNL     1       4.005   4.777  -1.603  0.00  0.00    +0.043 C 
ATOM     19  O   UNL     1       5.369   6.252  -2.764  0.00  0.00    -0.212 OA
ENDROOT
BRANCH   1  21
ATOM     20  C   UNL     1       4.403   4.157  -5.091  0.00  0.00    -0.012 C 
ATOM     21  C   UNL     1       4.239   4.724  -4.051  0.00  0.00    -0.049 C 
ENDBRANCH   1  21
BRANCH   2  22
ATOM     22  C   UNL     1       2.907   7.474  -1.886  0.00  0.00    +0.004 C 
ATOM     23  C   UNL     1       3.798   8.669  -2.106  0.00  0.00    +0.000 C 
ENDBRANCH   2  22
TORSDOF 2
ENDMDL
MODEL 8
REMARK VINA RESULT:      -6.1      2.861      4.819
REMARK  Name = 
REMARK  2 active torsions:
REMARK  status: ('A' for Active; 'I' for Inactive)
REMARK    1  A    between atoms: C_2  and  C_3
REMARK    2  A    between atoms: C_21  and  C_22
REMARK                            x       y       z     vdW  Elec       q    Type
REMARK                         _______ _______ _______ _____ _____    ______ ____
ROOT
ATOM      1  C   UNL     1       3.355   6.226 -10.662  0.00  0.00    +0.180 C 
ATOM      2  C   UNL     1       3.297   5.603  -9.318  0.00  0.00    +0.040 C 
ATOM      3  C   UNL     1       2.786   6.990  -8.594  0.00  0.00    +0.004 C 
ATOM      4  C   UNL     1       2.226   6.130  -7.229  0.00  0.00    +0.004 C 
ATOM      5  C   UNL     1       3.653   6.565  -6.424  0.00  0.00    +0.022 C 
ATOM      6  C   UNL     1       4.482   5.393  -7.129  0.00  0.00    -0.044 C 
ATOM      7  C   UNL     1       5.673   5.306  -6.513  0.00  0.00    -0.009 C 
ATOM      8  C   UNL     1       3.251   5.561  -5.089  0.00  0.00    +0.022 C 
ATOM      9  C   UNL     1       2.182   6.640  -4.522  0.00  0.00    -0.048 C 
ATOM     10  C   UNL     1       2.275   6.890  -3.226  0.00  0.00    -0.035 C 
ATOM     11  C   UNL     1       3.449   7.752  -2.835  0.00  0.00    +0.025 C 
ATOM     12  C   UNL     1       4.341   7.621  -4.075  0.00  0.00    +0.005 C 
ATOM     13  C   UNL     1       0.950   6.809  -5.333  0.00  0.00    +0.022 C 
ATOM     14  C   UNL     1       4.513   6.143  -4.206  0.00  0.00    +0.005 C 
ATOM     15  C   UNL     1       1.415   7.410  -6.660  0.00  0.00    +0.005 C 
ATOM     16  C   UNL     1       1.369   6.866  -9.412  0.00  0.00    +0.004 C 
ATOM     17  C   UNL     1       4.559   5.373  -8.603  0.00  0.00    +0.025 C 
ATOM     18  C   UNL     1       2.081   7.063 -10.753  0.00  0.00    +0.043 C 
ATOM     19  O   UNL     1       3.314   5.360 -11.735  0.00  0.00    -0.212 OA
ENDROOT
BRANCH   1  21
ATOM     20  C   UNL     1       5.529   7.665 -11.084  0.00  0.00    -0.012 C 
ATOM     21  C   UNL     1       4.541   7.057 -10.794  0.00  0.00    -0.049 C 
ENDBRANCH   1  21
BRANCH   2  22
ATOM     22  C   UNL     1       2.222   4.604  -9.173  0.00  0.00    +0.004 C 
ATOM     23  C   UNL     1       2.650   3.258  -8.648  0.00  0.00    +0.000 C 
ENDBRANCH   2  22
TORSDOF 2
ENDMDL
MODEL 9
REMARK VINA RESULT:      -5.9      3.012      4.386
REMARK  Name = 
REMARK  2 active torsions:
REMARK  status: ('A' for Active; 'I' for Inactive)
REMARK    1  A    between atoms: C_2  and  C_3
REMARK    2  A    between atoms: C_21  and  C_22
REMARK                            x       y       z     vdW  Elec       q    Type
REMARK                         _______ _______ _______ _____ _____    ______ ____
ROOT
ATOM      1  C   UNL     1       4.062   5.779  -3.394  0.00  0.00    +0.180 C 
ATOM      2  C   UNL     1       3.720   5.889  -1.956  0.00  0.00    +0.040 C 
ATOM      3  C   UNL     1       2.339   6.734  -2.252  0.00  0.00    +0.004 C 
ATOM      4  C   UNL     1       1.727   6.373  -0.700  0.00  0.00    +0.004 C 
ATOM      5  C   UNL     1       2.228   7.911  -0.192  0.00  0.00    +0.022 C 
ATOM      6  C   UNL     1       3.735   7.418   0.019  0.00  0.00    -0.044 C 
ATOM      7  C   UNL     1       4.397   8.391   0.668  0.00  0.00    -0.009 C 
ATOM      8  C   UNL     1       1.817   7.548   1.436  0.00  0.00    +0.022 C 
ATOM      9  C   UNL     1       0.237   7.769   1.150  0.00  0.00    -0.048 C 
ATOM     10  C   UNL     1      -0.393   8.516   2.042  0.00  0.00    -0.035 C 
ATOM     11  C   UNL     1      -0.104   9.993   1.943  0.00  0.00    +0.025 C 
ATOM     12  C   UNL     1       1.183   9.989   1.111  0.00  0.00    +0.005 C 
ATOM     13  C   UNL     1      -0.408   6.743   0.294  0.00  0.00    +0.022 C 
ATOM     14  C   UNL     1       2.089   9.104   1.904  0.00  0.00    +0.005 C 
ATOM     15  C   UNL     1       0.242   6.892  -1.082  0.00  0.00    +0.005 C 
ATOM     16  C   UNL     1       1.700   5.397  -2.955  0.00  0.00    +0.004 C 
ATOM     17  C   UNL     1       4.461   6.858  -1.137  0.00  0.00    +0.025 C 
ATOM     18  C   UNL     1       2.738   5.444  -4.079  0.00  0.00    +0.043 C 
ATOM     19  O   UNL     1       4.930   4.764  -3.737  0.00  0.00    -0.212 OA
ENDROOT
BRANCH   1  21
ATOM     20  C   UNL     1       5.205   7.950  -4.371  0.00  0.00    -0.012 C 
ATOM     21  C   UNL     1       4.609   7.031  -3.892  0.00  0.00    -0.049 C 
ENDBRANCH   1  21
BRANCH   2  22
ATOM     22  C   UNL     1       3.332   4.606  -1.339  0.00  0.00    +0.004 C 
ATOM     23  C   UNL     1       4.460   3.802  -0.747  0.00  0.00    +0.000 C 
ENDBRANCH   2  22
TORSDOF 2
ENDMDL
