MODEL 1
REMARK VINA RESULT:      -9.2      0.000      0.000
REMARK  Name = 
REMARK  2 active torsions:
REMARK  status: ('A' for Active; 'I' for Inactive)
REMARK    1  A    between atoms: C_24  and  C_26
REMARK    2  A    between atoms: C_26  and  C_28
REMARK                            x       y       z     vdW  Elec       q    Type
REMARK                         _______ _______ _______ _____ _____    ______ ____
ROOT
ATOM      1  C   UNL     1       4.422   4.470  -4.274  0.00  0.00    +0.003 C 
ATOM      2  C   UNL     1       4.683   5.938  -4.938  0.00  0.00    +0.035 C 
ATOM      3  C   UNL     1       3.136   6.420  -4.923  0.00  0.00    +0.180 C 
ATOM      4  O   UNL     1       3.315   7.791  -5.066  0.00  0.00    -0.218 OA
ATOM      5  C   UNL     1       2.523   5.864  -6.125  0.00  0.00    +0.035 C 
ATOM      6  C   UNL     1       3.678   6.454  -7.079  0.00  0.00    +0.006 C 
ATOM      7  C   UNL     1       3.164   5.481  -8.366  0.00  0.00    +0.036 C 
ATOM      8  C   UNL     1       1.920   6.423  -8.713  0.00  0.00    +0.168 C 
ATOM      9  C   UNL     1       0.642   5.859  -7.857  0.00  0.00    +0.182 C 
ATOM     10  O   UNL     1       1.159   4.436  -7.737  0.00  0.00    -0.220 OA
ATOM     11  F   UNL     1       2.105   7.692  -8.389  0.00  0.00    -0.237 F 
ATOM     12  C   UNL     1       1.442   6.137 -10.088  0.00  0.00    +0.066 C 
ATOM     13  C   UNL     1       2.520   6.350 -11.095  0.00  0.00    -0.003 C 
ATOM     14  C   UNL     1       2.133   6.264 -12.361  0.00  0.00    +0.036 C 
ATOM     15  C   UNL     1       0.806   6.779 -12.716  0.00  0.00    +0.195 C 
ATOM     16  C   UNL     1      -0.139   7.037 -11.623  0.00  0.00    +0.038 C 
ATOM     17  O   UNL     1       0.532   7.197 -13.863  0.00  0.00    -0.287 OA
ATOM     18  C   UNL     1       3.701   5.305 -10.704  0.00  0.00    +0.180 C 
ATOM     19  F   UNL     1       4.678   6.011 -11.613  0.00  0.00    -0.233 F 
ATOM     20  C   UNL     1       0.917   4.711 -10.212  0.00  0.00    +0.011 C 
ATOM     21  C   UNL     1       0.272   6.987 -10.355  0.00  0.00    -0.017 C 
ATOM     22  C   UNL     1       4.141   6.246  -9.414  0.00  0.00    +0.042 C 
ATOM     23  C   UNL     1       2.630   4.399  -5.978  0.00  0.00    +0.003 C 
ATOM     24  C   UNL     1       1.242   6.384  -6.422  0.00  0.00    +0.038 C 
ATOM     25  C   UNL     1       4.684   5.347  -6.468  0.00  0.00    +0.003 C 
ENDROOT
BRANCH   3  26
ATOM     26  C   UNL     1       2.480   6.152  -3.687  0.00  0.00    +0.211 C 
ATOM     27  O   UNL     1       1.474   5.569  -3.393  0.00  0.00    -0.291 OA
BRANCH  26  28
ATOM     28  C   UNL     1       2.987   7.028  -2.571  0.00  0.00    +0.248 C 
ATOM     29  O   UNL     1       3.231   6.309  -1.423  0.00  0.00    -0.212 OA
ENDBRANCH  26  28
ENDBRANCH   3  26
TORSDOF 2
ENDMDL
MODEL 2
REMARK VINA RESULT:      -9.1      1.866      7.046
REMARK  Name = 
REMARK  2 active torsions:
REMARK  status: ('A' for Active; 'I' for Inactive)
REMARK    1  A    between atoms: C_24  and  C_26
REMARK    2  A    between atoms: C_26  and  C_28
REMARK                            x       y       z     vdW  Elec       q    Type
REMARK                         _______ _______ _______ _____ _____    ______ ____
ROOT
ATOM      1  C   UNL     1       0.241   4.144 -10.615  0.00  0.00    +0.003 C 
ATOM      2  C   UNL     1      -0.113   5.624 -10.026  0.00  0.00    +0.035 C 
ATOM      3  C   UNL     1       1.383   6.234 -10.157  0.00  0.00    +0.180 C 
ATOM      4  O   UNL     1       1.092   7.591 -10.086  0.00  0.00    -0.218 OA
ATOM      5  C   UNL     1       2.104   5.810  -8.962  0.00  0.00    +0.035 C 
ATOM      6  C   UNL     1       0.953   6.360  -7.979  0.00  0.00    +0.006 C 
ATOM      7  C   UNL     1       1.616   5.518  -6.669  0.00  0.00    +0.036 C 
ATOM      8  C   UNL     1       2.788   6.583  -6.450  0.00  0.00    +0.168 C 
ATOM      9  C   UNL     1       4.065   6.074  -7.342  0.00  0.00    +0.182 C 
ATOM     10  O   UNL     1       3.670   4.608  -7.347  0.00  0.00    -0.220 OA
ATOM     11  F   UNL     1       2.477   7.807  -6.838  0.00  0.00    -0.237 F 
ATOM     12  C   UNL     1       3.360   6.427  -5.090  0.00  0.00    +0.066 C 
ATOM     13  C   UNL     1       2.322   6.612  -4.037  0.00  0.00    -0.003 C 
ATOM     14  C   UNL     1       2.780   6.641  -2.792  0.00  0.00    +0.036 C 
ATOM     15  C   UNL     1       4.073   7.287  -2.545  0.00  0.00    +0.195 C 
ATOM     16  C   UNL     1       4.934   7.554  -3.704  0.00  0.00    +0.038 C 
ATOM     17  O   UNL     1       4.368   7.799  -1.442  0.00  0.00    -0.287 OA
ATOM     18  C   UNL     1       1.218   5.448  -4.297  0.00  0.00    +0.180 C 
ATOM     19  F   UNL     1       0.231   6.125  -3.377  0.00  0.00    -0.233 F 
ATOM     20  C   UNL     1       4.015   5.061  -4.912  0.00  0.00    +0.011 C 
ATOM     21  C   UNL     1       4.464   7.388  -4.941  0.00  0.00    -0.017 C 
ATOM     22  C   UNL     1       0.632   6.264  -5.614  0.00  0.00    +0.042 C 
ATOM     23  C   UNL     1       2.119   4.335  -9.014  0.00  0.00    +0.003 C 
ATOM     24  C   UNL     1       3.348   6.454  -8.770  0.00  0.00    +0.038 C 
ATOM     25  C   UNL     1       0.018   5.135  -8.465  0.00  0.00    +0.003 C 
ENDROOT
BRANCH   3  26
ATOM     26  C   UNL     1       1.995   5.943 -11.411  0.00  0.00    +0.211 C 
ATOM     27  O   UNL     1       3.052   5.471 -11.727  0.00  0.00    -0.291 OA
BRANCH  26  28
ATOM     28  C   UNL     1       1.309   6.643 -12.555  0.00  0.00    +0.248 C 
ATOM     29  O   UNL     1       1.146   5.813 -13.641  0.00  0.00    -0.212 OA
ENDBRANCH  26  28
ENDBRANCH   3  26
TORSDOF 2
ENDMDL
MODEL 3
REMARK VINA RESULT:      -9.1      2.022      6.884
REMARK  Name = 
REMARK  2 active torsions:
REMARK  status: ('A' for Active; 'I' for Inactive)
REMARK    1  A    between atoms: C_24  and  C_26
REMARK    2  A    between atoms: C_26  and  C_28
REMARK                            x       y       z     vdW  Elec       q    Type
REMARK                         _______ _______ _______ _____ _____    ______ ____
ROOT
ATOM      1  C   UNL     1       3.724   6.696 -10.832  0.00  0.00    +0.003 C 
ATOM      2  C   UNL     1       3.589   5.188 -10.226  0.00  0.00    +0.035 C 
ATOM      3  C   UNL     1       2.049   5.325  -9.741  0.00  0.00    +0.180 C 
ATOM      4  O   UNL     1       1.723   3.980  -9.608  0.00  0.00    -0.218 OA
ATOM      5  C   UNL     1       2.088   5.966  -8.431  0.00  0.00    +0.035 C 
ATOM      6  C   UNL     1       3.158   4.907  -7.859  0.00  0.00    +0.006 C 
ATOM      7  C   UNL     1       3.469   5.889  -6.515  0.00  0.00    +0.036 C 
ATOM      8  C   UNL     1       2.127   5.456  -5.764  0.00  0.00    +0.168 C 
ATOM      9  C   UNL     1       0.969   6.530  -6.202  0.00  0.00    +0.182 C 
ATOM     10  O   UNL     1       1.930   7.659  -6.531  0.00  0.00    -0.220 OA
ATOM     11  F   UNL     1       1.704   4.244  -6.080  0.00  0.00    -0.237 F 
ATOM     12  C   UNL     1       2.233   5.783  -4.320  0.00  0.00    +0.066 C 
ATOM     13  C   UNL     1       3.395   5.095  -3.690  0.00  0.00    -0.003 C 
ATOM     14  C   UNL     1       3.471   5.213  -2.370  0.00  0.00    +0.036 C 
ATOM     15  C   UNL     1       2.222   5.206  -1.601  0.00  0.00    +0.195 C 
ATOM     16  C   UNL     1       0.968   5.416  -2.337  0.00  0.00    +0.038 C 
ATOM     17  O   UNL     1       2.168   4.826  -0.411  0.00  0.00    -0.287 OA
ATOM     18  C   UNL     1       4.709   5.649  -4.468  0.00  0.00    +0.180 C 
ATOM     19  F   UNL     1       5.566   4.554  -3.880  0.00  0.00    -0.233 F 
ATOM     20  C   UNL     1       2.357   7.286  -4.095  0.00  0.00    +0.011 C 
ATOM     21  C   UNL     1       0.965   5.416  -3.670  0.00  0.00    -0.017 C 
ATOM     22  C   UNL     1       4.344   4.726  -5.793  0.00  0.00    +0.042 C 
ATOM     23  C   UNL     1       2.699   7.290  -8.659  0.00  0.00    +0.003 C 
ATOM     24  C   UNL     1       0.860   5.942  -7.731  0.00  0.00    +0.038 C 
ATOM     25  C   UNL     1       4.277   5.602  -8.795  0.00  0.00    +0.003 C 
ENDROOT
BRANCH   3  26
ATOM     26  C   UNL     1       1.206   5.923 -10.722  0.00  0.00    +0.211 C 
ATOM     27  O   UNL     1       0.660   6.988 -10.805  0.00  0.00    -0.291 OA
BRANCH  26  28
ATOM     28  C   UNL     1       0.654   4.912 -11.692  0.00  0.00    +0.248 C 
ATOM     29  O   UNL     1       1.143   5.100 -12.965  0.00  0.00    -0.212 OA
ENDBRANCH  26  28
ENDBRANCH   3  26
TORSDOF 2
ENDMDL
MODEL 4
REMARK VINA RESULT:      -8.9      2.173      3.773
REMARK  Name = 
REMARK  2 active torsions:
REMARK  status: ('A' for Active; 'I' for Inactive)
REMARK    1  A    between atoms: C_24  and  C_26
REMARK    2  A    between atoms: C_26  and  C_28
REMARK                            x       y       z     vdW  Elec       q    Type
REMARK                         _______ _______ _______ _____ _____    ______ ____
ROOT
ATOM      1  C   UNL     1      -1.200   6.704  -5.626  0.00  0.00    +0.003 C 
ATOM      2  C   UNL     1      -0.806   5.216  -6.167  0.00  0.00    +0.035 C 
ATOM      3  C   UNL     1       0.716   5.218  -5.610  0.00  0.00    +0.180 C 
ATOM      4  O   UNL     1       0.981   3.853  -5.645  0.00  0.00    -0.218 OA
ATOM      5  C   UNL     1       1.517   5.914  -6.611  0.00  0.00    +0.035 C 
ATOM      6  C   UNL     1       0.961   4.992  -7.808  0.00  0.00    +0.006 C 
ATOM      7  C   UNL     1       1.586   6.055  -8.968  0.00  0.00    +0.036 C 
ATOM      8  C   UNL     1       3.083   5.522  -8.794  0.00  0.00    +0.168 C 
ATOM      9  C   UNL     1       3.791   6.455  -7.648  0.00  0.00    +0.182 C 
ATOM     10  O   UNL     1       2.891   7.660  -7.860  0.00  0.00    -0.220 OA
ATOM     11  F   UNL     1       3.159   4.261  -8.403  0.00  0.00    -0.237 F 
ATOM     12  C   UNL     1       3.896   5.918  -9.971  0.00  0.00    +0.066 C 
ATOM     13  C   UNL     1       3.323   5.377 -11.236  0.00  0.00    -0.003 C 
ATOM     14  C   UNL     1       4.073   5.556 -12.316  0.00  0.00    +0.036 C 
ATOM     15  C   UNL     1       5.529   5.457 -12.172  0.00  0.00    +0.195 C 
ATOM     16  C   UNL     1       6.084   5.509 -10.814  0.00  0.00    +0.038 C 
ATOM     17  O   UNL     1       6.276   5.123 -13.118  0.00  0.00    -0.287 OA
ATOM     18  C   UNL     1       1.839   6.027 -11.360  0.00  0.00    +0.180 C 
ATOM     19  F   UNL     1       1.459   5.049 -12.445  0.00  0.00    -0.233 F 
ATOM     20  C   UNL     1       4.016   7.434 -10.083  0.00  0.00    +0.011 C 
ATOM     21  C   UNL     1       5.275   5.453  -9.756  0.00  0.00    -0.017 C 
ATOM     22  C   UNL     1       1.270   5.017 -10.177  0.00  0.00    +0.042 C 
ATOM     23  C   UNL     1       0.967   7.282  -6.673  0.00  0.00    +0.003 C 
ATOM     24  C   UNL     1       2.914   5.796  -6.426  0.00  0.00    +0.038 C 
ATOM     25  C   UNL     1      -0.456   5.757  -7.676  0.00  0.00    +0.003 C 
ENDROOT
BRANCH   3  26
ATOM     26  C   UNL     1       0.817   5.687  -4.268  0.00  0.00    +0.211 C 
ATOM     27  O   UNL     1       1.651   6.308  -3.669  0.00  0.00    -0.291 OA
BRANCH  26  28
ATOM     28  C   UNL     1      -0.171   5.013  -3.352  0.00  0.00    +0.248 C 
ATOM     29  O   UNL     1       0.367   4.762  -2.111  0.00  0.00    -0.212 OA
ENDBRANCH  26  28
ENDBRANCH   3  26
TORSDOF 2
ENDMDL
MODEL 5
REMARK VINA RESULT:      -8.9      1.361      1.798
REMARK  Name = 
REMARK  2 active torsions:
REMARK  status: ('A' for Active; 'I' for Inactive)
REMARK    1  A    between atoms: C_24  and  C_26
REMARK    2  A    between atoms: C_26  and  C_28
REMARK                            x       y       z     vdW  Elec       q    Type
REMARK                         _______ _______ _______ _____ _____    ______ ____
ROOT
ATOM      1  C   UNL     1       4.178   4.675  -2.263  0.00  0.00    +0.003 C 
ATOM      2  C   UNL     1       4.715   6.007  -3.038  0.00  0.00    +0.035 C 
ATOM      3  C   UNL     1       3.255   6.653  -3.320  0.00  0.00    +0.180 C 
ATOM      4  O   UNL     1       3.626   7.966  -3.586  0.00  0.00    -0.218 OA
ATOM      5  C   UNL     1       2.753   6.015  -4.533  0.00  0.00    +0.035 C 
ATOM      6  C   UNL     1       4.097   6.347  -5.355  0.00  0.00    +0.006 C 
ATOM      7  C   UNL     1       3.651   5.276  -6.589  0.00  0.00    +0.036 C 
ATOM      8  C   UNL     1       2.599   6.296  -7.229  0.00  0.00    +0.168 C 
ATOM      9  C   UNL     1       1.151   5.989  -6.526  0.00  0.00    +0.182 C 
ATOM     10  O   UNL     1       1.461   4.546  -6.168  0.00  0.00    -0.220 OA
ATOM     11  F   UNL     1       2.895   7.568  -7.024  0.00  0.00    -0.237 F 
ATOM     12  C   UNL     1       2.288   5.887  -8.621  0.00  0.00    +0.066 C 
ATOM     13  C   UNL     1       3.516   5.849  -9.465  0.00  0.00    -0.003 C 
ATOM     14  C   UNL     1       3.304   5.642 -10.759  0.00  0.00    +0.036 C 
ATOM     15  C   UNL     1       2.117   6.247 -11.372  0.00  0.00    +0.195 C 
ATOM     16  C   UNL     1       1.067   6.747 -10.475  0.00  0.00    +0.038 C 
ATOM     17  O   UNL     1       2.064   6.540 -12.587  0.00  0.00    -0.287 OA
ATOM     18  C   UNL     1       4.487   4.742  -8.780  0.00  0.00    +0.180 C 
ATOM     19  F   UNL     1       5.665   5.212  -9.599  0.00  0.00    -0.233 F 
ATOM     20  C   UNL     1       1.609   4.523  -8.665  0.00  0.00    +0.011 C 
ATOM     21  C   UNL     1       1.285   6.817  -9.162  0.00  0.00    -0.017 C 
ATOM     22  C   UNL     1       4.856   5.789  -7.551  0.00  0.00    +0.042 C 
ATOM     23  C   UNL     1       2.651   4.579  -4.208  0.00  0.00    +0.003 C 
ATOM     24  C   UNL     1       1.604   6.629  -5.082  0.00  0.00    +0.038 C 
ATOM     25  C   UNL     1       4.857   5.226  -4.475  0.00  0.00    +0.003 C 
ENDROOT
BRANCH   3  26
ATOM     26  C   UNL     1       2.402   6.621  -2.179  0.00  0.00    +0.211 C 
ATOM     27  O   UNL     1       1.254   6.316  -2.012  0.00  0.00    -0.291 OA
BRANCH  26  28
ATOM     28  C   UNL     1       2.965   7.408  -1.025  0.00  0.00    +0.248 C 
ATOM     29  O   UNL     1       2.674   6.823   0.187  0.00  0.00    -0.212 OA
ENDBRANCH  26  28
ENDBRANCH   3  26
TORSDOF 2
ENDMDL
MODEL 6
REMARK VINA RESULT:      -8.7      2.655      7.488
REMARK  Name = 
REMARK  2 active torsions:
REMARK  status: ('A' for Active; 'I' for Inactive)
REMARK    1  A    between atoms: C_24  and  C_26
REMARK    2  A    between atoms: C_26  and  C_28
REMARK                            x       y       z     vdW  Elec       q    Type
REMARK                         _______ _______ _______ _____ _____    ______ ____
ROOT
ATOM      1  C   UNL     1       1.581   4.541  -9.009  0.00  0.00    +0.003 C 
ATOM      2  C   UNL     1       1.334   6.055  -8.455  0.00  0.00    +0.035 C 
ATOM      3  C   UNL     1       2.886   6.384  -8.126  0.00  0.00    +0.180 C 
ATOM      4  O   UNL     1       2.825   7.771  -8.059  0.00  0.00    -0.218 OA
ATOM      5  C   UNL     1       3.151   5.825  -6.804  0.00  0.00    +0.035 C 
ATOM      6  C   UNL     1       1.879   6.568  -6.152  0.00  0.00    +0.006 C 
ATOM      7  C   UNL     1       1.985   5.608  -4.761  0.00  0.00    +0.036 C 
ATOM      8  C   UNL     1       3.211   6.440  -4.160  0.00  0.00    +0.168 C 
ATOM      9  C   UNL     1       4.582   5.715  -4.688  0.00  0.00    +0.182 C 
ATOM     10  O   UNL     1       3.958   4.346  -4.892  0.00  0.00    -0.220 OA
ATOM     11  F   UNL     1       3.239   7.704  -4.546  0.00  0.00    -0.237 F 
ATOM     12  C   UNL     1       3.334   6.171  -2.706  0.00  0.00    +0.066 C 
ATOM     13  C   UNL     1       2.086   6.534  -1.977  0.00  0.00    -0.003 C 
ATOM     14  C   UNL     1       2.167   6.468  -0.654  0.00  0.00    +0.036 C 
ATOM     15  C   UNL     1       3.427   6.867  -0.017  0.00  0.00    +0.195 C 
ATOM     16  C   UNL     1       4.616   6.981  -0.871  0.00  0.00    +0.038 C 
ATOM     17  O   UNL     1       3.478   7.307   1.153  0.00  0.00    -0.287 OA
ATOM     18  C   UNL     1       0.920   5.593  -2.605  0.00  0.00    +0.180 C 
ATOM     19  F   UNL     1      -0.157   6.430  -1.958  0.00  0.00    -0.233 F 
ATOM     20  C   UNL     1       3.665   4.708  -2.434  0.00  0.00    +0.011 C 
ATOM     21  C   UNL     1       4.498   6.914  -2.197  0.00  0.00    -0.017 C 
ATOM     22  C   UNL     1       0.884   6.513  -3.981  0.00  0.00    +0.042 C 
ATOM     23  C   UNL     1       2.926   4.373  -6.939  0.00  0.00    +0.003 C 
ATOM     24  C   UNL     1       4.380   6.231  -6.234  0.00  0.00    +0.038 C 
ATOM     25  C   UNL     1       0.926   5.538  -6.952  0.00  0.00    +0.003 C 
ENDROOT
BRANCH   3  26
ATOM     26  C   UNL     1       3.772   5.997  -9.174  0.00  0.00    +0.211 C 
ATOM     27  O   UNL     1       4.672   5.208  -9.248  0.00  0.00    -0.291 OA
BRANCH  26  28
ATOM     28  C   UNL     1       3.773   6.984 -10.312  0.00  0.00    +0.248 C 
ATOM     29  O   UNL     1       5.042   7.431 -10.604  0.00  0.00    -0.212 OA
ENDBRANCH  26  28
ENDBRANCH   3  26
TORSDOF 2
ENDMDL
MODEL 7
REMARK VINA RESULT:      -8.5      2.757      6.573
REMARK  Name = 
REMARK  2 active torsions:
REMARK  status: ('A' for Active; 'I' for Inactive)
REMARK    1  A    between atoms: C_24  and  C_26
REMARK    2  A    between atoms: C_26  and  C_28
REMARK                            x       y       z     vdW  Elec       q    Type
REMARK                         _______ _______ _______ _____ _____    ______ ____
ROOT
ATOM      1  C   UNL     1       5.232   6.491  -8.973  0.00  0.00    +0.003 C 
ATOM      2  C   UNL     1       4.826   5.019  -8.397  0.00  0.00    +0.035 C 
ATOM      3  C   UNL     1       3.332   4.985  -9.024  0.00  0.00    +0.180 C 
ATOM      4  O   UNL     1       3.077   3.620  -8.951  0.00  0.00    -0.218 OA
ATOM      5  C   UNL     1       2.479   5.708  -8.087  0.00  0.00    +0.035 C 
ATOM      6  C   UNL     1       2.987   4.836  -6.832  0.00  0.00    +0.006 C 
ATOM      7  C   UNL     1       2.298   5.934  -5.743  0.00  0.00    +0.036 C 
ATOM      8  C   UNL     1       0.816   5.378  -5.966  0.00  0.00    +0.168 C 
ATOM      9  C   UNL     1       0.155   6.263  -7.177  0.00  0.00    +0.182 C 
ATOM     10  O   UNL     1       1.033   7.484  -6.967  0.00  0.00    -0.220 OA
ATOM     11  F   UNL     1       0.769   4.104  -6.314  0.00  0.00    -0.237 F 
ATOM     12  C   UNL     1      -0.055   5.808  -4.843  0.00  0.00    +0.066 C 
ATOM     13  C   UNL     1       0.464   5.320  -3.534  0.00  0.00    -0.003 C 
ATOM     14  C   UNL     1      -0.337   5.529  -2.498  0.00  0.00    +0.036 C 
ATOM     15  C   UNL     1      -1.784   5.409  -2.705  0.00  0.00    +0.195 C 
ATOM     16  C   UNL     1      -2.276   5.407  -4.089  0.00  0.00    +0.038 C 
ATOM     17  O   UNL     1      -2.572   5.102  -1.783  0.00  0.00    -0.287 OA
ATOM     18  C   UNL     1       1.935   5.989  -3.366  0.00  0.00    +0.180 C 
ATOM     19  F   UNL     1       2.272   5.055  -2.229  0.00  0.00    -0.233 F 
ATOM     20  C   UNL     1      -0.193   7.326  -4.793  0.00  0.00    +0.011 C 
ATOM     21  C   UNL     1      -1.418   5.321  -5.105  0.00  0.00    -0.017 C 
ATOM     22  C   UNL     1       2.566   4.943  -4.483  0.00  0.00    +0.042 C 
ATOM     23  C   UNL     1       3.014   7.083  -8.050  0.00  0.00    +0.003 C 
ATOM     24  C   UNL     1       1.093   5.569  -8.332  0.00  0.00    +0.038 C 
ATOM     25  C   UNL     1       4.402   5.610  -6.926  0.00  0.00    +0.003 C 
ENDROOT
BRANCH   3  26
ATOM     26  C   UNL     1       3.289   5.405 -10.385  0.00  0.00    +0.211 C 
ATOM     27  O   UNL     1       2.410   5.783 -11.107  0.00  0.00    -0.291 OA
BRANCH  26  28
ATOM     28  C   UNL     1       4.529   5.008 -11.143  0.00  0.00    +0.248 C 
ATOM     29  O   UNL     1       4.484   5.421 -12.455  0.00  0.00    -0.212 OA
ENDBRANCH  26  28
ENDBRANCH   3  26
TORSDOF 2
ENDMDL
MODEL 8
REMARK VINA RESULT:      -8.4      1.413      1.682
REMARK  Name = 
REMARK  2 active torsions:
REMARK  status: ('A' for Active; 'I' for Inactive)
REMARK    1  A    between atoms: C_24  and  C_26
REMARK    2  A    between atoms: C_26  and  C_28
REMARK                            x       y       z     vdW  Elec       q    Type
REMARK                         _______ _______ _______ _____ _____    ______ ____
ROOT
ATOM      1  C   UNL     1       4.744   5.366  -2.818  0.00  0.00    +0.003 C 
ATOM      2  C   UNL     1       4.189   6.758  -3.463  0.00  0.00    +0.035 C 
ATOM      3  C   UNL     1       2.634   6.308  -3.553  0.00  0.00    +0.180 C 
ATOM      4  O   UNL     1       2.035   7.556  -3.684  0.00  0.00    -0.218 OA
ATOM      5  C   UNL     1       2.498   5.551  -4.793  0.00  0.00    +0.035 C 
ATOM      6  C   UNL     1       3.188   6.713  -5.668  0.00  0.00    +0.006 C 
ATOM      7  C   UNL     1       3.369   5.666  -6.986  0.00  0.00    +0.036 C 
ATOM      8  C   UNL     1       1.834   5.780  -7.415  0.00  0.00    +0.168 C 
ATOM      9  C   UNL     1       1.033   4.574  -6.647  0.00  0.00    +0.182 C 
ATOM     10  O   UNL     1       2.242   3.668  -6.492  0.00  0.00    -0.220 OA
ATOM     11  F   UNL     1       1.269   6.928  -7.080  0.00  0.00    -0.237 F 
ATOM     12  C   UNL     1       1.671   5.329  -8.820  0.00  0.00    +0.066 C 
ATOM     13  C   UNL     1       2.507   6.137  -9.752  0.00  0.00    -0.003 C 
ATOM     14  C   UNL     1       2.303   5.898 -11.042  0.00  0.00    +0.036 C 
ATOM     15  C   UNL     1       0.935   5.610 -11.485  0.00  0.00    +0.195 C 
ATOM     16  C   UNL     1      -0.055   5.265 -10.457  0.00  0.00    +0.038 C 
ATOM     17  O   UNL     1       0.541   5.849 -12.648  0.00  0.00    -0.287 OA
ATOM     18  C   UNL     1       4.044   5.901  -9.282  0.00  0.00    +0.180 C 
ATOM     19  F   UNL     1       4.520   7.060 -10.124  0.00  0.00    -0.233 F 
ATOM     20  C   UNL     1       2.027   3.854  -8.977  0.00  0.00    +0.011 C 
ATOM     21  C   UNL     1       0.243   5.403  -9.165  0.00  0.00    -0.017 C 
ATOM     22  C   UNL     1       3.818   6.880  -7.966  0.00  0.00    +0.042 C 
ATOM     23  C   UNL     1       3.387   4.382  -4.639  0.00  0.00    +0.003 C 
ATOM     24  C   UNL     1       1.162   5.291  -5.175  0.00  0.00    +0.038 C 
ATOM     25  C   UNL     1       4.601   6.321  -4.990  0.00  0.00    +0.003 C 
ENDROOT
BRANCH   3  26
ATOM     26  C   UNL     1       2.166   5.679  -2.363  0.00  0.00    +0.211 C 
ATOM     27  O   UNL     1       1.471   4.724  -2.150  0.00  0.00    -0.291 OA
BRANCH  26  28
ATOM     28  C   UNL     1       2.327   6.559  -1.152  0.00  0.00    +0.248 C 
ATOM     29  O   UNL     1       1.623   6.080  -0.070  0.00  0.00    -0.212 OA
ENDBRANCH  26  28
ENDBRANCH   3  26
TORSDOF 2
ENDMDL
MODEL 9
REMARK VINA RESULT:      -8.3      1.997      3.208
REMARK  Name = 
REMARK  2 active torsions:
REMARK  status: ('A' for Active; 'I' for Inactive)
REMARK    1  A    between atoms: C_24  and  C_26
REMARK    2  A    between atoms: C_26  and  C_28
REMARK                            x       y       z     vdW  Elec       q    Type
REMARK                         _______ _______ _______ _____ _____    ______ ____
ROOT
ATOM      1  C   UNL     1       0.184   6.736  -4.556  0.00  0.00    +0.003 C 
ATOM      2  C   UNL     1       0.488   5.235  -5.118  0.00  0.00    +0.035 C 
ATOM      3  C   UNL     1       2.055   5.480  -5.452  0.00  0.00    +0.180 C 
ATOM      4  O   UNL     1       2.489   4.162  -5.528  0.00  0.00    -0.218 OA
ATOM      5  C   UNL     1       2.099   6.102  -6.772  0.00  0.00    +0.035 C 
ATOM      6  C   UNL     1       1.171   4.959  -7.425  0.00  0.00    +0.006 C 
ATOM      7  C   UNL     1       0.924   5.900  -8.811  0.00  0.00    +0.036 C 
ATOM      8  C   UNL     1       2.362   5.560  -9.419  0.00  0.00    +0.168 C 
ATOM      9  C   UNL     1       3.389   6.722  -8.890  0.00  0.00    +0.182 C 
ATOM     10  O   UNL     1       2.320   7.780  -8.678  0.00  0.00    -0.220 OA
ATOM     11  F   UNL     1       2.839   4.386  -9.041  0.00  0.00    -0.237 F 
ATOM     12  C   UNL     1       2.376   5.861 -10.873  0.00  0.00    +0.066 C 
ATOM     13  C   UNL     1       1.335   5.082 -11.601  0.00  0.00    -0.003 C 
ATOM     14  C   UNL     1       1.383   5.178 -12.923  0.00  0.00    +0.036 C 
ATOM     15  C   UNL     1       2.699   5.256 -13.566  0.00  0.00    +0.195 C 
ATOM     16  C   UNL     1       3.854   5.567 -12.715  0.00  0.00    +0.038 C 
ATOM     17  O   UNL     1       2.898   4.867 -14.738  0.00  0.00    -0.287 OA
ATOM     18  C   UNL     1      -0.086   5.545 -10.965  0.00  0.00    +0.180 C 
ATOM     19  F   UNL     1      -0.799   4.383 -11.614  0.00  0.00    -0.233 F 
ATOM     20  C   UNL     1       2.165   7.348 -11.137  0.00  0.00    +0.011 C 
ATOM     21  C   UNL     1       3.725   5.582 -11.388  0.00  0.00    -0.017 C 
ATOM     22  C   UNL     1       0.212   4.667  -9.594  0.00  0.00    +0.042 C 
ATOM     23  C   UNL     1       1.374   7.379  -6.629  0.00  0.00    +0.003 C 
ATOM     24  C   UNL     1       3.389   6.161  -7.347  0.00  0.00    +0.038 C 
ATOM     25  C   UNL     1      -0.083   5.580  -6.617  0.00  0.00    +0.003 C 
ENDROOT
BRANCH   3  26
ATOM     26  C   UNL     1       2.750   6.151  -4.405  0.00  0.00    +0.211 C 
ATOM     27  O   UNL     1       3.325   7.201  -4.333  0.00  0.00    -0.291 OA
BRANCH  26  28
ATOM     28  C   UNL     1       3.084   5.229  -3.261  0.00  0.00    +0.248 C 
ATOM     29  O   UNL     1       4.441   5.141  -3.052  0.00  0.00    -0.212 OA
ENDBRANCH  26  28
ENDBRANCH   3  26
TORSDOF 2
ENDMDL
