MODEL 1
REMARK VINA RESULT:     -10.2      0.000      0.000
REMARK  Name = 
REMARK  14 active torsions:
REMARK  status: ('A' for Active; 'I' for Inactive)
REMARK    1  A    between atoms: N_14  and  C_15
REMARK    2  A    between atoms: C_15  and  C_16
REMARK    3  A    between atoms: C_16  and  C_17
REMARK    4  A    between atoms: C_17  and  C_18
REMARK    5  A    between atoms: C_18  and  S_19
REMARK    6  A    between atoms: C_23  and  C_24
REMARK    7  A    between atoms: C_25  and  C_26
REMARK    8  A    between atoms: C_27  and  C_28
REMARK    9  A    between atoms: C_29  and  C_30
REMARK   10  A    between atoms: N_32  and  C_33
REMARK   11  A    between atoms: C_33  and  C_34
REMARK   12  A    between atoms: C_34  and  C_35
REMARK   13  A    between atoms: C_35  and  C_36
REMARK   14  A    between atoms: C_36  and  S_37
REMARK                            x       y       z     vdW  Elec       q    Type
REMARK                         _______ _______ _______ _____ _____    ______ ____
ROOT
ATOM      1  C   UNL     1       0.078   5.626  -5.814  0.00  0.00    +0.000 C 
ATOM      2  C   UNL     1       0.818   5.464  -4.741  0.00  0.00    +0.000 C 
ENDROOT
BRANCH   1   4
ATOM      3  C   UNL     1       0.811   5.402  -8.108  0.00  0.00    +0.065 C 
ATOM      4  C   UNL     1       0.715   6.130  -7.013  0.00  0.00    +0.006 C 
BRANCH   3   7
ATOM      5  C   UNL     1       4.048   5.880  -7.667  0.00  0.00    +0.015 C 
ATOM      6  C   UNL     1       3.319   5.165  -8.780  0.00  0.00    +0.102 C 
ATOM      7  C   UNL     1       1.951   5.680  -8.992  0.00  0.00    +0.206 C 
ATOM      8  N   UNL     1       1.808   6.153 -10.187  0.00  0.00    -0.173 N 
ATOM      9  C   UNL     1       2.926   5.703 -10.958  0.00  0.00    +0.222 A 
ATOM     10  C   UNL     1       3.215   5.824 -12.309  0.00  0.00    +0.069 A 
ATOM     11  C   UNL     1       4.550   5.853 -12.692  0.00  0.00    +0.006 A 
ATOM     12  C   UNL     1       5.571   5.933 -11.754  0.00  0.00    +0.000 A 
ATOM     13  C   UNL     1       5.298   5.486 -10.468  0.00  0.00    +0.002 A 
ATOM     14  C   UNL     1       6.308   5.648  -9.527  0.00  0.00    -0.000 A 
ATOM     15  C   UNL     1       7.365   6.526  -9.729  0.00  0.00    -0.000 A 
ATOM     16  C   UNL     1       7.523   7.128 -10.971  0.00  0.00    -0.000 A 
ATOM     17  C   UNL     1       6.747   6.627 -12.008  0.00  0.00    -0.000 A 
ATOM     18  C   UNL     1       3.968   5.371 -10.102  0.00  0.00    +0.050 A 
ATOM     19  C   UNL     1       3.362   3.693  -8.483  0.00  0.00    +0.015 C 
BRANCH   8  20
ATOM     20  C   UNL     1       0.759   7.089 -10.582  0.00  0.00    +0.322 C 
BRANCH  20  21
ATOM     21  C   UNL     1      -0.134   6.450 -11.628  0.00  0.00    +0.087 C 
BRANCH  21  22
ATOM     22  C   UNL     1      -0.480   7.398 -12.745  0.00  0.00    +0.030 C 
BRANCH  22  23
ATOM     23  C   UNL     1       0.702   7.767 -13.598  0.00  0.00    +0.126 C 
BRANCH  23  24
ATOM     24  S   UNL     1       0.734   6.888 -15.134  0.00  0.00    -0.107 S 
ATOM     25  O   UNL     1      -0.498   7.486 -16.114  0.00  0.00    -0.291 OA
ATOM     26  O   UNL     1       0.571   5.413 -14.938  0.00  0.00    -0.371 OA
ATOM     27  O   UNL     1       2.075   7.121 -15.781  0.00  0.00    -0.371 OA
ENDBRANCH  23  24
ENDBRANCH  22  23
ENDBRANCH  21  22
ENDBRANCH  20  21
ENDBRANCH   8  20
ENDBRANCH   3   7
ENDBRANCH   1   4
BRANCH   2  28
ATOM     28  C   UNL     1       2.269   5.297  -4.784  0.00  0.00    +0.000 C 
ATOM     29  C   UNL     1       2.936   5.614  -3.673  0.00  0.00    +0.001 C 
BRANCH  29  30
ATOM     30  C   UNL     1       2.222   5.355  -2.416  0.00  0.00    +0.011 C 
ATOM     31  C   UNL     1       2.404   6.188  -1.392  0.00  0.00    +0.032 C 
ATOM     32  C   UNL     1       3.753   6.663  -0.997  0.00  0.00    +0.052 C 
ATOM     33  C   UNL     1       4.680   5.499  -0.676  0.00  0.00    +0.010 C 
ATOM     34  C   UNL     1       4.362   7.598  -2.005  0.00  0.00    +0.010 C 
ATOM     35  C   UNL     1       3.448   7.413   0.258  0.00  0.00    -0.004 A 
ATOM     36  C   UNL     1       2.082   7.645   0.350  0.00  0.00    +0.048 A 
ATOM     37  C   UNL     1       1.629   8.713   1.093  0.00  0.00    +0.015 A 
ATOM     38  C   UNL     1       2.328   9.055   2.244  0.00  0.00    +0.001 A 
ATOM     39  C   UNL     1       3.631   8.623   2.345  0.00  0.00    -0.000 A 
ATOM     40  C   UNL     1       4.398   9.178   3.360  0.00  0.00    -0.000 A 
ATOM     41  C   UNL     1       5.781   9.103   3.279  0.00  0.00    -0.000 A 
ATOM     42  C   UNL     1       6.294   8.199   2.358  0.00  0.00    -0.000 A 
ATOM     43  C   UNL     1       5.514   7.575   1.410  0.00  0.00    -0.000 A 
ATOM     44  C   UNL     1       4.220   7.993   1.256  0.00  0.00    -0.002 A 
ATOM     45  N   UNL     1       1.427   6.658  -0.456  0.00  0.00    -0.290 N 
BRANCH  45  46
ATOM     46  C   UNL     1      -0.003   6.375  -0.485  0.00  0.00    +0.095 C 
BRANCH  46  47
ATOM     47  C   UNL     1      -0.751   7.676  -0.368  0.00  0.00    +0.024 C 
BRANCH  47  48
ATOM     48  C   UNL     1      -2.050   7.513  -1.138  0.00  0.00    +0.025 C 
BRANCH  48  49
ATOM     49  C   UNL     1      -1.753   7.085  -2.548  0.00  0.00    +0.126 C 
BRANCH  49  50
ATOM     50  S   UNL     1      -2.986   5.958  -3.162  0.00  0.00    -0.107 S 
ATOM     51  O   UNL     1      -2.943   5.895  -4.843  0.00  0.00    -0.291 OA
ATOM     52  O   UNL     1      -2.728   4.600  -2.598  0.00  0.00    -0.371 OA
ATOM     53  O   UNL     1      -4.323   6.476  -2.686  0.00  0.00    -0.371 OA
ENDBRANCH  49  50
ENDBRANCH  48  49
ENDBRANCH  47  48
ENDBRANCH  46  47
ENDBRANCH  45  46
ENDBRANCH  29  30
ENDBRANCH   2  28
TORSDOF 14
ENDMDL
MODEL 2
REMARK VINA RESULT:     -10.2      3.843     13.237
REMARK  Name = 
REMARK  14 active torsions:
REMARK  status: ('A' for Active; 'I' for Inactive)
REMARK    1  A    between atoms: N_14  and  C_15
REMARK    2  A    between atoms: C_15  and  C_16
REMARK    3  A    between atoms: C_16  and  C_17
REMARK    4  A    between atoms: C_17  and  C_18
REMARK    5  A    between atoms: C_18  and  S_19
REMARK    6  A    between atoms: C_23  and  C_24
REMARK    7  A    between atoms: C_25  and  C_26
REMARK    8  A    between atoms: C_27  and  C_28
REMARK    9  A    between atoms: C_29  and  C_30
REMARK   10  A    between atoms: N_32  and  C_33
REMARK   11  A    between atoms: C_33  and  C_34
REMARK   12  A    between atoms: C_34  and  C_35
REMARK   13  A    between atoms: C_35  and  C_36
REMARK   14  A    between atoms: C_36  and  S_37
REMARK                            x       y       z     vdW  Elec       q    Type
REMARK                         _______ _______ _______ _____ _____    ______ ____
ROOT
ATOM      1  C   UNL     1       4.788   5.424  -9.123  0.00  0.00    +0.000 C 
ATOM      2  C   UNL     1       4.056   5.394 -10.214  0.00  0.00    +0.000 C 
ENDROOT
BRANCH   1   4
ATOM      3  C   UNL     1       4.228   5.366  -6.770  0.00  0.00    +0.065 C 
ATOM      4  C   UNL     1       4.207   5.999  -7.927  0.00  0.00    +0.006 C 
BRANCH   3   7
ATOM      5  C   UNL     1       1.238   6.744  -7.022  0.00  0.00    +0.015 C 
ATOM      6  C   UNL     1       1.702   5.588  -6.168  0.00  0.00    +0.102 C 
ATOM      7  C   UNL     1       3.138   5.663  -5.832  0.00  0.00    +0.206 C 
ATOM      8  N   UNL     1       3.318   5.732  -4.553  0.00  0.00    -0.173 N 
ATOM      9  C   UNL     1       2.078   5.380  -3.931  0.00  0.00    +0.222 A 
ATOM     10  C   UNL     1       1.744   5.187  -2.599  0.00  0.00    +0.069 A 
ATOM     11  C   UNL     1       0.435   5.441  -2.209  0.00  0.00    +0.006 A 
ATOM     12  C   UNL     1      -0.475   6.033  -3.074  0.00  0.00    +0.000 A 
ATOM     13  C   UNL     1      -0.240   5.910  -4.437  0.00  0.00    +0.002 A 
ATOM     14  C   UNL     1      -1.121   6.576  -5.282  0.00  0.00    -0.000 A 
ATOM     15  C   UNL     1      -1.943   7.599  -4.827  0.00  0.00    -0.000 A 
ATOM     16  C   UNL     1      -2.026   7.849  -3.463  0.00  0.00    -0.000 A 
ATOM     17  C   UNL     1      -1.461   6.901  -2.620  0.00  0.00    -0.000 A 
ATOM     18  C   UNL     1       1.042   5.572  -4.835  0.00  0.00    +0.050 A 
ATOM     19  C   UNL     1       1.321   4.317  -6.872  0.00  0.00    +0.015 C 
BRANCH   8  20
ATOM     20  C   UNL     1       4.536   6.227  -3.919  0.00  0.00    +0.322 C 
BRANCH  20  21
ATOM     21  C   UNL     1       4.423   7.722  -3.686  0.00  0.00    +0.087 C 
BRANCH  21  22
ATOM     22  C   UNL     1       3.947   8.053  -2.298  0.00  0.00    +0.030 C 
BRANCH  22  23
ATOM     23  C   UNL     1       4.535   7.162  -1.239  0.00  0.00    +0.126 C 
BRANCH  23  24
ATOM     24  S   UNL     1       3.873   7.490   0.371  0.00  0.00    -0.107 S 
ATOM     25  O   UNL     1       2.278   6.951   0.408  0.00  0.00    -0.291 OA
ATOM     26  O   UNL     1       3.938   8.944   0.717  0.00  0.00    -0.371 OA
ATOM     27  O   UNL     1       4.702   6.738   1.381  0.00  0.00    -0.371 OA
ENDBRANCH  23  24
ENDBRANCH  22  23
ENDBRANCH  21  22
ENDBRANCH  20  21
ENDBRANCH   8  20
ENDBRANCH   3   7
ENDBRANCH   1   4
BRANCH   2  28
ATOM     28  C   UNL     1       2.596   5.448 -10.203  0.00  0.00    +0.000 C 
ATOM     29  C   UNL     1       2.008   5.835 -11.336  0.00  0.00    +0.001 C 
BRANCH  29  30
ATOM     30  C   UNL     1       2.701   5.442 -12.569  0.00  0.00    +0.011 C 
ATOM     31  C   UNL     1       2.426   6.097 -13.696  0.00  0.00    +0.032 C 
ATOM     32  C   UNL     1       1.033   6.412 -14.100  0.00  0.00    +0.052 C 
ATOM     33  C   UNL     1       0.187   5.150 -14.208  0.00  0.00    +0.010 C 
ATOM     34  C   UNL     1       0.386   7.441 -13.216  0.00  0.00    +0.010 C 
ATOM     35  C   UNL     1       1.242   6.985 -15.463  0.00  0.00    -0.004 A 
ATOM     36  C   UNL     1       2.583   7.296 -15.645  0.00  0.00    +0.048 A 
ATOM     37  C   UNL     1       2.931   8.270 -16.554  0.00  0.00    +0.015 A 
ATOM     38  C   UNL     1       2.174   8.387 -17.714  0.00  0.00    +0.001 A 
ATOM     39  C   UNL     1       0.904   7.854 -17.697  0.00  0.00    -0.000 A 
ATOM     40  C   UNL     1       0.068   8.195 -18.749  0.00  0.00    -0.000 A 
ATOM     41  C   UNL     1      -1.302   8.036 -18.601  0.00  0.00    -0.000 A 
ATOM     42  C   UNL     1      -1.718   7.247 -17.537  0.00  0.00    -0.000 A 
ATOM     43  C   UNL     1      -0.864   6.827 -16.541  0.00  0.00    -0.000 A 
ATOM     44  C   UNL     1       0.398   7.354 -16.503  0.00  0.00    -0.002 A 
ATOM     45  N   UNL     1       3.335   6.489 -14.730  0.00  0.00    -0.290 N 
BRANCH  45  46
ATOM     46  C   UNL     1       4.783   6.315 -14.719  0.00  0.00    +0.095 C 
BRANCH  46  47
ATOM     47  C   UNL     1       5.378   7.318 -13.767  0.00  0.00    +0.024 C 
BRANCH  47  48
ATOM     48  C   UNL     1       6.852   6.979 -13.628  0.00  0.00    +0.025 C 
BRANCH  48  49
ATOM     49  C   UNL     1       7.240   6.994 -12.176  0.00  0.00    +0.126 C 
BRANCH  49  50
ATOM     50  S   UNL     1       8.213   5.568 -11.744  0.00  0.00    -0.107 S 
ATOM     51  O   UNL     1       8.062   5.225 -10.104  0.00  0.00    -0.291 OA
ATOM     52  O   UNL     1       7.749   4.400 -12.550  0.00  0.00    -0.371 OA
ATOM     53  O   UNL     1       9.646   5.901 -12.085  0.00  0.00    -0.371 OA
ENDBRANCH  49  50
ENDBRANCH  48  49
ENDBRANCH  47  48
ENDBRANCH  46  47
ENDBRANCH  45  46
ENDBRANCH  29  30
ENDBRANCH   2  28
TORSDOF 14
ENDMDL
MODEL 3
REMARK VINA RESULT:      -9.9      3.892      6.227
REMARK  Name = 
REMARK  14 active torsions:
REMARK  status: ('A' for Active; 'I' for Inactive)
REMARK    1  A    between atoms: N_14  and  C_15
REMARK    2  A    between atoms: C_15  and  C_16
REMARK    3  A    between atoms: C_16  and  C_17
REMARK    4  A    between atoms: C_17  and  C_18
REMARK    5  A    between atoms: C_18  and  S_19
REMARK    6  A    between atoms: C_23  and  C_24
REMARK    7  A    between atoms: C_25  and  C_26
REMARK    8  A    between atoms: C_27  and  C_28
REMARK    9  A    between atoms: C_29  and  C_30
REMARK   10  A    between atoms: N_32  and  C_33
REMARK   11  A    between atoms: C_33  and  C_34
REMARK   12  A    between atoms: C_34  and  C_35
REMARK   13  A    between atoms: C_35  and  C_36
REMARK   14  A    between atoms: C_36  and  S_37
REMARK                            x       y       z     vdW  Elec       q    Type
REMARK                         _______ _______ _______ _____ _____    ______ ____
ROOT
ATOM      1  C   UNL     1       5.029   7.512  -4.434  0.00  0.00    +0.000 C 
ATOM      2  C   UNL     1       5.524   6.721  -3.509  0.00  0.00    +0.000 C 
ENDROOT
BRANCH   1   4
ATOM      3  C   UNL     1       4.531   5.920  -6.186  0.00  0.00    +0.065 C 
ATOM      4  C   UNL     1       4.152   6.933  -5.431  0.00  0.00    +0.006 C 
BRANCH   3   7
ATOM      5  C   UNL     1       1.614   4.881  -7.332  0.00  0.00    +0.015 C 
ATOM      6  C   UNL     1       2.478   6.033  -7.788  0.00  0.00    +0.102 C 
ATOM      7  C   UNL     1       3.913   5.816  -7.514  0.00  0.00    +0.206 C 
ATOM      8  N   UNL     1       4.605   5.817  -8.607  0.00  0.00    -0.173 N 
ATOM      9  C   UNL     1       3.768   6.351  -9.638  0.00  0.00    +0.222 A 
ATOM     10  C   UNL     1       4.036   6.673 -10.960  0.00  0.00    +0.069 A 
ATOM     11  C   UNL     1       2.994   6.599 -11.876  0.00  0.00    +0.006 A 
ATOM     12  C   UNL     1       1.764   6.057 -11.529  0.00  0.00    +0.000 A 
ATOM     13  C   UNL     1       1.417   6.057 -10.185  0.00  0.00    +0.002 A 
ATOM     14  C   UNL     1       0.217   5.440  -9.853  0.00  0.00    -0.000 A 
ATOM     15  C   UNL     1      -0.415   4.552 -10.714  0.00  0.00    -0.000 A 
ATOM     16  C   UNL     1       0.060   4.409 -12.012  0.00  0.00    -0.000 A 
ATOM     17  C   UNL     1       0.995   5.342 -12.439  0.00  0.00    -0.000 A 
ATOM     18  C   UNL     1       2.438   6.217  -9.263  0.00  0.00    +0.050 A 
ATOM     19  C   UNL     1       1.935   7.287  -7.164  0.00  0.00    +0.015 C 
BRANCH   8  20
ATOM     20  C   UNL     1       5.935   5.231  -8.740  0.00  0.00    +0.322 C 
BRANCH  20  21
ATOM     21  C   UNL     1       6.911   6.278  -9.242  0.00  0.00    +0.087 C 
BRANCH  21  22
ATOM     22  C   UNL     1       7.610   5.853 -10.505  0.00  0.00    +0.030 C 
BRANCH  22  23
ATOM     23  C   UNL     1       7.225   6.676 -11.703  0.00  0.00    +0.126 C 
BRANCH  23  24
ATOM     24  S   UNL     1       7.024   5.697 -13.165  0.00  0.00    -0.107 S 
ATOM     25  O   UNL     1       7.153   6.711 -14.504  0.00  0.00    -0.291 OA
ATOM     26  O   UNL     1       5.711   4.979 -13.182  0.00  0.00    -0.371 OA
ATOM     27  O   UNL     1       8.117   4.659 -13.189  0.00  0.00    -0.371 OA
ENDBRANCH  23  24
ENDBRANCH  22  23
ENDBRANCH  21  22
ENDBRANCH  20  21
ENDBRANCH   8  20
ENDBRANCH   3   7
ENDBRANCH   1   4
BRANCH   2  28
ATOM     28  C   UNL     1       4.911   5.451  -3.127  0.00  0.00    +0.000 C 
ATOM     29  C   UNL     1       4.309   5.418  -1.937  0.00  0.00    +0.001 C 
BRANCH  29  30
ATOM     30  C   UNL     1       3.675   6.674  -1.519  0.00  0.00    +0.011 C 
ATOM     31  C   UNL     1       2.363   6.685  -1.288  0.00  0.00    +0.032 C 
ATOM     32  C   UNL     1       1.398   6.035  -2.210  0.00  0.00    +0.052 C 
ATOM     33  C   UNL     1       1.514   6.598  -3.621  0.00  0.00    +0.010 C 
ATOM     34  C   UNL     1       1.498   4.535  -2.200  0.00  0.00    +0.010 C 
ATOM     35  C   UNL     1       0.093   6.453  -1.618  0.00  0.00    -0.004 A 
ATOM     36  C   UNL     1       0.293   6.947  -0.336  0.00  0.00    +0.048 A 
ATOM     37  C   UNL     1      -0.743   6.903   0.572  0.00  0.00    +0.015 A 
ATOM     38  C   UNL     1      -2.037   7.090   0.102  0.00  0.00    +0.001 A 
ATOM     39  C   UNL     1      -2.260   6.874  -1.240  0.00  0.00    -0.000 A 
ATOM     40  C   UNL     1      -3.583   6.809  -1.651  0.00  0.00    -0.000 A 
ATOM     41  C   UNL     1      -3.883   6.211  -2.867  0.00  0.00    -0.000 A 
ATOM     42  C   UNL     1      -2.816   6.011  -3.733  0.00  0.00    -0.000 A 
ATOM     43  C   UNL     1      -1.503   6.169  -3.348  0.00  0.00    -0.000 A 
ATOM     44  C   UNL     1      -1.233   6.358  -2.020  0.00  0.00    -0.002 A 
ATOM     45  N   UNL     1       1.657   7.378  -0.252  0.00  0.00    -0.290 N 
BRANCH  45  46
ATOM     46  C   UNL     1       2.252   8.162   0.823  0.00  0.00    +0.095 C 
BRANCH  46  47
ATOM     47  C   UNL     1       2.095   9.622   0.493  0.00  0.00    +0.024 C 
BRANCH  47  48
ATOM     48  C   UNL     1       3.332  10.038  -0.284  0.00  0.00    +0.025 C 
BRANCH  48  49
ATOM     49  C   UNL     1       3.553  11.518  -0.128  0.00  0.00    +0.126 C 
BRANCH  49  50
ATOM     50  S   UNL     1       4.645  11.876   1.231  0.00  0.00    -0.107 S 
ATOM     51  O   UNL     1       5.239  10.452   1.902  0.00  0.00    -0.291 OA
ATOM     52  O   UNL     1       5.777  12.714   0.737  0.00  0.00    -0.371 OA
ATOM     53  O   UNL     1       3.833  12.642   2.249  0.00  0.00    -0.371 OA
ENDBRANCH  49  50
ENDBRANCH  48  49
ENDBRANCH  47  48
ENDBRANCH  46  47
ENDBRANCH  45  46
ENDBRANCH  29  30
ENDBRANCH   2  28
TORSDOF 14
ENDMDL
MODEL 4
REMARK VINA RESULT:      -9.7      3.879      7.419
REMARK  Name = 
REMARK  14 active torsions:
REMARK  status: ('A' for Active; 'I' for Inactive)
REMARK    1  A    between atoms: N_14  and  C_15
REMARK    2  A    between atoms: C_15  and  C_16
REMARK    3  A    between atoms: C_16  and  C_17
REMARK    4  A    between atoms: C_17  and  C_18
REMARK    5  A    between atoms: C_18  and  S_19
REMARK    6  A    between atoms: C_23  and  C_24
REMARK    7  A    between atoms: C_25  and  C_26
REMARK    8  A    between atoms: C_27  and  C_28
REMARK    9  A    between atoms: C_29  and  C_30
REMARK   10  A    between atoms: N_32  and  C_33
REMARK   11  A    between atoms: C_33  and  C_34
REMARK   12  A    between atoms: C_34  and  C_35
REMARK   13  A    between atoms: C_35  and  C_36
REMARK   14  A    between atoms: C_36  and  S_37
REMARK                            x       y       z     vdW  Elec       q    Type
REMARK                         _______ _______ _______ _____ _____    ______ ____
ROOT
ATOM      1  C   UNL     1       4.322   6.461 -10.769  0.00  0.00    +0.000 C 
ATOM      2  C   UNL     1       4.317   5.485  -9.890  0.00  0.00    +0.000 C 
ENDROOT
BRANCH   1   4
ATOM      3  C   UNL     1       3.596   5.813 -12.983  0.00  0.00    +0.065 C 
ATOM      4  C   UNL     1       3.348   6.421 -11.840  0.00  0.00    +0.006 C 
BRANCH   3   7
ATOM      5  C   UNL     1       0.631   5.334 -14.355  0.00  0.00    +0.015 C 
ATOM      6  C   UNL     1       1.454   6.595 -14.246  0.00  0.00    +0.102 C 
ATOM      7  C   UNL     1       2.905   6.329 -14.172  0.00  0.00    +0.206 C 
ATOM      8  N   UNL     1       3.533   6.874 -15.162  0.00  0.00    -0.173 N 
ATOM      9  C   UNL     1       2.633   7.802 -15.776  0.00  0.00    +0.222 A 
ATOM     10  C   UNL     1       2.822   8.723 -16.796  0.00  0.00    +0.069 A 
ATOM     11  C   UNL     1       1.731   9.053 -17.589  0.00  0.00    +0.006 A 
ATOM     12  C   UNL     1       0.529   8.366 -17.489  0.00  0.00    +0.000 A 
ATOM     13  C   UNL     1       0.258   7.715 -16.293  0.00  0.00    +0.002 A 
ATOM     14  C   UNL     1      -0.913   6.969 -16.242  0.00  0.00    -0.000 A 
ATOM     15  C   UNL     1      -1.583   6.574 -17.393  0.00  0.00    -0.000 A 
ATOM     16  C   UNL     1      -1.180   7.082 -18.622  0.00  0.00    -0.000 A 
ATOM     17  C   UNL     1      -0.282   8.141 -18.595  0.00  0.00    -0.000 A 
ATOM     18  C   UNL     1       1.328   7.456 -15.453  0.00  0.00    +0.050 A 
ATOM     19  C   UNL     1       0.932   7.382 -13.077  0.00  0.00    +0.015 C 
BRANCH   8  20
ATOM     20  C   UNL     1       4.861   6.472 -15.617  0.00  0.00    +0.322 C 
BRANCH  20  21
ATOM     21  C   UNL     1       5.904   7.425 -15.065  0.00  0.00    +0.087 C 
BRANCH  21  22
ATOM     22  C   UNL     1       7.030   6.705 -14.373  0.00  0.00    +0.030 C 
BRANCH  22  23
ATOM     23  C   UNL     1       7.075   6.957 -12.892  0.00  0.00    +0.126 C 
BRANCH  23  24
ATOM     24  S   UNL     1       8.113   5.804 -12.037  0.00  0.00    -0.107 S 
ATOM     25  O   UNL     1       7.813   5.943 -10.386  0.00  0.00    -0.291 OA
ATOM     26  O   UNL     1       9.563   6.038 -12.322  0.00  0.00    -0.371 OA
ATOM     27  O   UNL     1       7.767   4.417 -12.515  0.00  0.00    -0.371 OA
ENDBRANCH  23  24
ENDBRANCH  22  23
ENDBRANCH  21  22
ENDBRANCH  20  21
ENDBRANCH   8  20
ENDBRANCH   3   7
ENDBRANCH   1   4
BRANCH   2  28
ATOM     28  C   UNL     1       3.150   4.645  -9.629  0.00  0.00    +0.000 C 
ATOM     29  C   UNL     1       2.943   4.293  -8.360  0.00  0.00    +0.001 C 
BRANCH  29  30
ATOM     30  C   UNL     1       3.348   5.288  -7.358  0.00  0.00    +0.011 C 
ATOM     31  C   UNL     1       2.594   5.447  -6.272  0.00  0.00    +0.032 C 
ATOM     32  C   UNL     1       1.114   5.532  -6.348  0.00  0.00    +0.052 C 
ATOM     33  C   UNL     1       0.670   6.671  -7.257  0.00  0.00    +0.010 C 
ATOM     34  C   UNL     1       0.472   4.229  -6.735  0.00  0.00    +0.010 C 
ATOM     35  C   UNL     1       0.762   5.862  -4.935  0.00  0.00    -0.004 A 
ATOM     36  C   UNL     1       1.852   5.623  -4.108  0.00  0.00    +0.048 A 
ATOM     37  C   UNL     1       1.639   5.353  -2.775  0.00  0.00    +0.015 A 
ATOM     38  C   UNL     1       0.588   5.998  -2.133  0.00  0.00    +0.001 A 
ATOM     39  C   UNL     1      -0.418   6.507  -2.923  0.00  0.00    -0.000 A 
ATOM     40  C   UNL     1      -1.576   6.915  -2.277  0.00  0.00    -0.000 A 
ATOM     41  C   UNL     1      -2.745   7.053  -3.010  0.00  0.00    -0.000 A 
ATOM     42  C   UNL     1      -2.604   7.089  -4.391  0.00  0.00    -0.000 A 
ATOM     43  C   UNL     1      -1.424   6.776  -5.029  0.00  0.00    -0.000 A 
ATOM     44  C   UNL     1      -0.406   6.240  -4.286  0.00  0.00    -0.002 A 
ATOM     45  N   UNL     1       3.027   5.677  -4.926  0.00  0.00    -0.290 N 
BRANCH  45  46
ATOM     46  C   UNL     1       4.407   5.707  -4.456  0.00  0.00    +0.095 C 
BRANCH  46  47
ATOM     47  C   UNL     1       4.796   7.138  -4.202  0.00  0.00    +0.024 C 
BRANCH  47  48
ATOM     48  C   UNL     1       5.330   7.209  -2.783  0.00  0.00    +0.025 C 
BRANCH  48  49
ATOM     49  C   UNL     1       4.242   7.673  -1.855  0.00  0.00    +0.126 C 
BRANCH  49  50
ATOM     50  S   UNL     1       4.242   6.749  -0.334  0.00  0.00    -0.107 S 
ATOM     51  O   UNL     1       4.473   5.110  -0.639  0.00  0.00    -0.291 OA
ATOM     52  O   UNL     1       5.336   7.259   0.545  0.00  0.00    -0.371 OA
ATOM     53  O   UNL     1       2.898   6.982   0.316  0.00  0.00    -0.371 OA
ENDBRANCH  49  50
ENDBRANCH  48  49
ENDBRANCH  47  48
ENDBRANCH  46  47
ENDBRANCH  45  46
ENDBRANCH  29  30
ENDBRANCH   2  28
TORSDOF 14
ENDMDL
MODEL 5
REMARK VINA RESULT:      -9.5      0.770     11.325
REMARK  Name = 
REMARK  14 active torsions:
REMARK  status: ('A' for Active; 'I' for Inactive)
REMARK    1  A    between atoms: N_14  and  C_15
REMARK    2  A    between atoms: C_15  and  C_16
REMARK    3  A    between atoms: C_16  and  C_17
REMARK    4  A    between atoms: C_17  and  C_18
REMARK    5  A    between atoms: C_18  and  S_19
REMARK    6  A    between atoms: C_23  and  C_24
REMARK    7  A    between atoms: C_25  and  C_26
REMARK    8  A    between atoms: C_27  and  C_28
REMARK    9  A    between atoms: C_29  and  C_30
REMARK   10  A    between atoms: N_32  and  C_33
REMARK   11  A    between atoms: C_33  and  C_34
REMARK   12  A    between atoms: C_34  and  C_35
REMARK   13  A    between atoms: C_35  and  C_36
REMARK   14  A    between atoms: C_36  and  S_37
REMARK                            x       y       z     vdW  Elec       q    Type
REMARK                         _______ _______ _______ _____ _____    ______ ____
ROOT
ATOM      1  C   UNL     1       0.314   6.394  -4.774  0.00  0.00    +0.000 C 
ATOM      2  C   UNL     1       0.384   5.331  -5.542  0.00  0.00    +0.000 C 
ENDROOT
BRANCH   1   4
ATOM      3  C   UNL     1       1.239   5.831  -2.611  0.00  0.00    +0.065 C 
ATOM      4  C   UNL     1       1.297   6.541  -3.720  0.00  0.00    +0.006 C 
BRANCH   3   7
ATOM      5  C   UNL     1       4.179   5.725  -1.112  0.00  0.00    +0.015 C 
ATOM      6  C   UNL     1       3.217   6.878  -1.275  0.00  0.00    +0.102 C 
ATOM      7  C   UNL     1       1.813   6.438  -1.403  0.00  0.00    +0.206 C 
ATOM      8  N   UNL     1       1.083   6.916  -0.448  0.00  0.00    -0.173 N 
ATOM      9  C   UNL     1       1.839   7.951   0.187  0.00  0.00    +0.222 A 
ATOM     10  C   UNL     1       1.499   8.854   1.184  0.00  0.00    +0.069 A 
ATOM     11  C   UNL     1       2.508   9.322   2.015  0.00  0.00    +0.006 A 
ATOM     12  C   UNL     1       3.787   8.782   1.975  0.00  0.00    +0.000 A 
ATOM     13  C   UNL     1       4.183   8.155   0.801  0.00  0.00    +0.002 A 
ATOM     14  C   UNL     1       5.436   7.555   0.810  0.00  0.00    -0.000 A 
ATOM     15  C   UNL     1       6.099   7.255   1.993  0.00  0.00    -0.000 A 
ATOM     16  C   UNL     1       5.587   7.724   3.197  0.00  0.00    -0.000 A 
ATOM     17  C   UNL     1       4.571   8.668   3.116  0.00  0.00    -0.000 A 
ATOM     18  C   UNL     1       3.188   7.761  -0.078  0.00  0.00    +0.050 A 
ATOM     19  C   UNL     1       3.690   7.708  -2.434  0.00  0.00    +0.015 C 
BRANCH   8  20
ATOM     20  C   UNL     1      -0.205   6.362  -0.042  0.00  0.00    +0.322 C 
BRANCH  20  21
ATOM     21  C   UNL     1      -1.191   7.486   0.215  0.00  0.00    +0.087 C 
BRANCH  21  22
ATOM     22  C   UNL     1      -2.398   7.408  -0.681  0.00  0.00    +0.030 C 
BRANCH  22  23
ATOM     23  C   UNL     1      -2.051   7.356  -2.142  0.00  0.00    +0.126 C 
BRANCH  23  24
ATOM     24  S   UNL     1      -3.094   6.250  -3.051  0.00  0.00    -0.107 S 
ATOM     25  O   UNL     1      -2.634   4.671  -2.691  0.00  0.00    -0.291 OA
ATOM     26  O   UNL     1      -3.014   6.491  -4.526  0.00  0.00    -0.371 OA
ATOM     27  O   UNL     1      -4.519   6.490  -2.622  0.00  0.00    -0.371 OA
ENDBRANCH  23  24
ENDBRANCH  22  23
ENDBRANCH  21  22
ENDBRANCH  20  21
ENDBRANCH   8  20
ENDBRANCH   3   7
ENDBRANCH   1   4
BRANCH   2  28
ATOM     28  C   UNL     1       1.608   4.554  -5.728  0.00  0.00    +0.000 C 
ATOM     29  C   UNL     1       1.930   4.246  -6.985  0.00  0.00    +0.001 C 
BRANCH  29  30
ATOM     30  C   UNL     1       1.556   5.246  -7.993  0.00  0.00    +0.011 C 
ATOM     31  C   UNL     1       2.301   5.360  -9.091  0.00  0.00    +0.032 C 
ATOM     32  C   UNL     1       3.784   5.381  -9.035  0.00  0.00    +0.052 C 
ATOM     33  C   UNL     1       4.289   6.509  -8.145  0.00  0.00    +0.010 C 
ATOM     34  C   UNL     1       4.373   4.055  -8.641  0.00  0.00    +0.010 C 
ATOM     35  C   UNL     1       4.131   5.679 -10.456  0.00  0.00    -0.004 A 
ATOM     36  C   UNL     1       3.021   5.479 -11.266  0.00  0.00    +0.048 A 
ATOM     37  C   UNL     1       3.204   5.185 -12.599  0.00  0.00    +0.015 A 
ATOM     38  C   UNL     1       4.273   5.777 -13.261  0.00  0.00    +0.001 A 
ATOM     39  C   UNL     1       5.311   6.250 -12.490  0.00  0.00    -0.000 A 
ATOM     40  C   UNL     1       6.477   6.599 -13.157  0.00  0.00    -0.000 A 
ATOM     41  C   UNL     1       7.661   6.694 -12.440  0.00  0.00    -0.000 A 
ATOM     42  C   UNL     1       7.539   6.751 -11.058  0.00  0.00    -0.000 A 
ATOM     43  C   UNL     1       6.355   6.498 -10.401  0.00  0.00    -0.000 A 
ATOM     44  C   UNL     1       5.306   5.999 -11.124  0.00  0.00    -0.002 A 
ATOM     45  N   UNL     1       1.860   5.594 -10.433  0.00  0.00    -0.290 N 
BRANCH  45  46
ATOM     46  C   UNL     1       0.476   5.679 -10.885  0.00  0.00    +0.095 C 
BRANCH  46  47
ATOM     47  C   UNL     1       0.150   7.122 -11.159  0.00  0.00    +0.024 C 
BRANCH  47  48
ATOM     48  C   UNL     1      -0.333   7.205 -12.596  0.00  0.00    +0.025 C 
BRANCH  48  49
ATOM     49  C   UNL     1       0.791   7.665 -13.482  0.00  0.00    +0.126 C 
BRANCH  49  50
ATOM     50  S   UNL     1       0.745   6.860 -15.069  0.00  0.00    -0.107 S 
ATOM     51  O   UNL     1       0.550   5.199 -14.882  0.00  0.00    -0.291 OA
ATOM     52  O   UNL     1      -0.391   7.416 -15.863  0.00  0.00    -0.371 OA
ATOM     53  O   UNL     1       2.058   7.166 -15.749  0.00  0.00    -0.371 OA
ENDBRANCH  49  50
ENDBRANCH  48  49
ENDBRANCH  47  48
ENDBRANCH  46  47
ENDBRANCH  45  46
ENDBRANCH  29  30
ENDBRANCH   2  28
TORSDOF 14
ENDMDL
MODEL 6
REMARK VINA RESULT:      -9.4      2.576      4.142
REMARK  Name = 
REMARK  14 active torsions:
REMARK  status: ('A' for Active; 'I' for Inactive)
REMARK    1  A    between atoms: N_14  and  C_15
REMARK    2  A    between atoms: C_15  and  C_16
REMARK    3  A    between atoms: C_16  and  C_17
REMARK    4  A    between atoms: C_17  and  C_18
REMARK    5  A    between atoms: C_18  and  S_19
REMARK    6  A    between atoms: C_23  and  C_24
REMARK    7  A    between atoms: C_25  and  C_26
REMARK    8  A    between atoms: C_27  and  C_28
REMARK    9  A    between atoms: C_29  and  C_30
REMARK   10  A    between atoms: N_32  and  C_33
REMARK   11  A    between atoms: C_33  and  C_34
REMARK   12  A    between atoms: C_34  and  C_35
REMARK   13  A    between atoms: C_35  and  C_36
REMARK   14  A    between atoms: C_36  and  S_37
REMARK                            x       y       z     vdW  Elec       q    Type
REMARK                         _______ _______ _______ _____ _____    ______ ____
ROOT
ATOM      1  C   UNL     1       1.692   5.093  -5.206  0.00  0.00    +0.000 C 
ATOM      2  C   UNL     1       2.482   5.466  -4.225  0.00  0.00    +0.000 C 
ENDROOT
BRANCH   1   4
ATOM      3  C   UNL     1       2.832   5.733  -7.241  0.00  0.00    +0.065 C 
ATOM      4  C   UNL     1       2.291   4.794  -6.490  0.00  0.00    +0.006 C 
BRANCH   3   7
ATOM      5  C   UNL     1       0.596   4.681  -9.430  0.00  0.00    +0.015 C 
ATOM      6  C   UNL     1       1.659   5.745  -9.568  0.00  0.00    +0.102 C 
ATOM      7  C   UNL     1       2.824   5.508  -8.692  0.00  0.00    +0.206 C 
ATOM      8  N   UNL     1       3.909   5.366  -9.382  0.00  0.00    -0.173 N 
ATOM      9  C   UNL     1       3.628   5.816 -10.712  0.00  0.00    +0.222 A 
ATOM     10  C   UNL     1       4.451   5.983 -11.815  0.00  0.00    +0.069 A 
ATOM     11  C   UNL     1       3.888   5.848 -13.078  0.00  0.00    +0.006 A 
ATOM     12  C   UNL     1       2.588   5.390 -13.245  0.00  0.00    +0.000 A 
ATOM     13  C   UNL     1       1.709   5.548 -12.182  0.00  0.00    +0.002 A 
ATOM     14  C   UNL     1       0.437   5.013 -12.343  0.00  0.00    -0.000 A 
ATOM     15  C   UNL     1       0.158   4.060 -13.315  0.00  0.00    -0.000 A 
ATOM     16  C   UNL     1       1.122   3.761 -14.270  0.00  0.00    -0.000 A 
ATOM     17  C   UNL     1       2.220   4.609 -14.334  0.00  0.00    -0.000 A 
ATOM     18  C   UNL     1       2.257   5.770 -10.930  0.00  0.00    +0.050 A 
ATOM     19  C   UNL     1       1.003   7.077  -9.342  0.00  0.00    +0.015 C 
BRANCH   8  20
ATOM     20  C   UNL     1       5.121   4.722  -8.887  0.00  0.00    +0.322 C 
BRANCH  20  21
ATOM     21  C   UNL     1       6.228   5.750  -8.745  0.00  0.00    +0.087 C 
BRANCH  21  22
ATOM     22  C   UNL     1       7.411   5.445  -9.624  0.00  0.00    +0.030 C 
BRANCH  22  23
ATOM     23  C   UNL     1       7.724   6.543 -10.601  0.00  0.00    +0.126 C 
BRANCH  23  24
ATOM     24  S   UNL     1       8.142   5.926 -12.208  0.00  0.00    -0.107 S 
ATOM     25  O   UNL     1       7.372   6.881 -13.361  0.00  0.00    -0.291 OA
ATOM     26  O   UNL     1       7.750   4.491 -12.375  0.00  0.00    -0.371 OA
ATOM     27  O   UNL     1       9.638   6.016 -12.370  0.00  0.00    -0.371 OA
ENDBRANCH  23  24
ENDBRANCH  22  23
ENDBRANCH  21  22
ENDBRANCH  20  21
ENDBRANCH   8  20
ENDBRANCH   3   7
ENDBRANCH   1   4
BRANCH   2  28
ATOM     28  C   UNL     1       3.909   5.154  -4.181  0.00  0.00    +0.000 C 
ATOM     29  C   UNL     1       4.510   5.292  -2.999  0.00  0.00    +0.001 C 
BRANCH  29  30
ATOM     30  C   UNL     1       3.674   4.991  -1.830  0.00  0.00    +0.011 C 
ATOM     31  C   UNL     1       3.123   6.001  -1.159  0.00  0.00    +0.032 C 
ATOM     32  C   UNL     1       3.892   7.219  -0.800  0.00  0.00    +0.052 C 
ATOM     33  C   UNL     1       5.123   6.873   0.028  0.00  0.00    +0.010 C 
ATOM     34  C   UNL     1       4.244   8.062  -1.994  0.00  0.00    +0.010 C 
ATOM     35  C   UNL     1       2.911   7.950   0.055  0.00  0.00    -0.004 A 
ATOM     36  C   UNL     1       1.644   7.406  -0.109  0.00  0.00    +0.048 A 
ATOM     37  C   UNL     1       0.538   8.188   0.140  0.00  0.00    +0.015 A 
ATOM     38  C   UNL     1       0.611   9.121   1.168  0.00  0.00    +0.001 A 
ATOM     39  C   UNL     1       1.866   9.516   1.575  0.00  0.00    -0.000 A 
ATOM     40  C   UNL     1       1.933  10.623   2.408  0.00  0.00    -0.000 A 
ATOM     41  C   UNL     1       3.136  11.305   2.528  0.00  0.00    -0.000 A 
ATOM     42  C   UNL     1       4.265  10.645   2.063  0.00  0.00    -0.000 A 
ATOM     43  C   UNL     1       4.200   9.491   1.314  0.00  0.00    -0.000 A 
ATOM     44  C   UNL     1       2.976   9.077   0.865  0.00  0.00    -0.002 A 
ATOM     45  N   UNL     1       1.814   6.063  -0.580  0.00  0.00    -0.290 N 
BRANCH  45  46
ATOM     46  C   UNL     1       0.777   5.043  -0.679  0.00  0.00    +0.095 C 
BRANCH  46  47
ATOM     47  C   UNL     1       0.282   5.001  -2.100  0.00  0.00    +0.024 C 
BRANCH  47  48
ATOM     48  C   UNL     1      -0.818   6.041  -2.219  0.00  0.00    +0.025 C 
BRANCH  48  49
ATOM     49  C   UNL     1      -1.599   5.809  -3.482  0.00  0.00    +0.126 C 
BRANCH  49  50
ATOM     50  S   UNL     1      -1.658   7.272  -4.493  0.00  0.00    -0.107 S 
ATOM     51  O   UNL     1      -2.000   8.626  -3.554  0.00  0.00    -0.291 OA
ATOM     52  O   UNL     1      -0.339   7.448  -5.172  0.00  0.00    -0.371 OA
ATOM     53  O   UNL     1      -2.747   7.050  -5.517  0.00  0.00    -0.371 OA
ENDBRANCH  49  50
ENDBRANCH  48  49
ENDBRANCH  47  48
ENDBRANCH  46  47
ENDBRANCH  45  46
ENDBRANCH  29  30
ENDBRANCH   2  28
TORSDOF 14
ENDMDL
MODEL 7
REMARK VINA RESULT:      -9.4      3.131     11.431
REMARK  Name = 
REMARK  14 active torsions:
REMARK  status: ('A' for Active; 'I' for Inactive)
REMARK    1  A    between atoms: N_14  and  C_15
REMARK    2  A    between atoms: C_15  and  C_16
REMARK    3  A    between atoms: C_16  and  C_17
REMARK    4  A    between atoms: C_17  and  C_18
REMARK    5  A    between atoms: C_18  and  S_19
REMARK    6  A    between atoms: C_23  and  C_24
REMARK    7  A    between atoms: C_25  and  C_26
REMARK    8  A    between atoms: C_27  and  C_28
REMARK    9  A    between atoms: C_29  and  C_30
REMARK   10  A    between atoms: N_32  and  C_33
REMARK   11  A    between atoms: C_33  and  C_34
REMARK   12  A    between atoms: C_34  and  C_35
REMARK   13  A    between atoms: C_35  and  C_36
REMARK   14  A    between atoms: C_36  and  S_37
REMARK                            x       y       z     vdW  Elec       q    Type
REMARK                         _______ _______ _______ _____ _____    ______ ____
ROOT
ATOM      1  C   UNL     1      -1.579   5.708  -7.523  0.00  0.00    +0.000 C 
ATOM      2  C   UNL     1      -0.639   5.019  -8.128  0.00  0.00    +0.000 C 
ENDROOT
BRANCH   1   4
ATOM      3  C   UNL     1      -1.778   6.810  -5.379  0.00  0.00    +0.065 C 
ATOM      4  C   UNL     1      -1.606   5.703  -6.075  0.00  0.00    +0.006 C 
BRANCH   3   7
ATOM      5  C   UNL     1      -2.533   8.291  -2.526  0.00  0.00    +0.015 C 
ATOM      6  C   UNL     1      -1.952   6.921  -2.781  0.00  0.00    +0.102 C 
ATOM      7  C   UNL     1      -1.181   6.850  -4.038  0.00  0.00    +0.206 C 
ATOM      8  N   UNL     1       0.053   6.531  -3.814  0.00  0.00    -0.173 N 
ATOM      9  C   UNL     1       0.129   6.049  -2.469  0.00  0.00    +0.222 A 
ATOM     10  C   UNL     1       1.176   5.481  -1.758  0.00  0.00    +0.069 A 
ATOM     11  C   UNL     1       1.196   5.648  -0.379  0.00  0.00    +0.006 A 
ATOM     12  C   UNL     1       0.302   6.497   0.260  0.00  0.00    +0.000 A 
ATOM     13  C   UNL     1      -0.895   6.776  -0.386  0.00  0.00    +0.002 A 
ATOM     14  C   UNL     1      -1.739   7.688   0.235  0.00  0.00    -0.000 A 
ATOM     15  C   UNL     1      -1.285   8.555   1.221  0.00  0.00    -0.000 A 
ATOM     16  C   UNL     1      -0.003   8.393   1.732  0.00  0.00    -0.000 A 
ATOM     17  C   UNL     1       0.660   7.221   1.391  0.00  0.00    -0.000 A 
ATOM     18  C   UNL     1      -0.954   6.532  -1.748  0.00  0.00    +0.050 A 
ATOM     19  C   UNL     1      -3.077   5.927  -2.715  0.00  0.00    +0.015 C 
BRANCH   8  20
ATOM     20  C   UNL     1       1.149   6.779  -4.746  0.00  0.00    +0.322 C 
BRANCH  20  21
ATOM     21  C   UNL     1       2.079   5.581  -4.776  0.00  0.00    +0.087 C 
BRANCH  21  22
ATOM     22  C   UNL     1       3.394   5.891  -5.437  0.00  0.00    +0.030 C 
BRANCH  22  23
ATOM     23  C   UNL     1       3.957   7.228  -5.042  0.00  0.00    +0.126 C 
BRANCH  23  24
ATOM     24  S   UNL     1       4.795   7.181  -3.483  0.00  0.00    -0.107 S 
ATOM     25  O   UNL     1       4.599   5.645  -2.822  0.00  0.00    -0.291 OA
ATOM     26  O   UNL     1       4.279   8.222  -2.539  0.00  0.00    -0.371 OA
ATOM     27  O   UNL     1       6.256   7.463  -3.726  0.00  0.00    -0.371 OA
ENDBRANCH  23  24
ENDBRANCH  22  23
ENDBRANCH  21  22
ENDBRANCH  20  21
ENDBRANCH   8  20
ENDBRANCH   3   7
ENDBRANCH   1   4
BRANCH   2  28
ATOM     28  C   UNL     1       0.624   4.652  -7.490  0.00  0.00    +0.000 C 
ATOM     29  C   UNL     1       1.706   4.657  -8.269  0.00  0.00    +0.001 C 
BRANCH  29  30
ATOM     30  C   UNL     1       1.708   5.669  -9.334  0.00  0.00    +0.011 C 
ATOM     31  C   UNL     1       2.678   5.637 -10.247  0.00  0.00    +0.032 C 
ATOM     32  C   UNL     1       4.101   5.442  -9.874  0.00  0.00    +0.052 C 
ATOM     33  C   UNL     1       4.570   6.512  -8.897  0.00  0.00    +0.010 C 
ATOM     34  C   UNL     1       4.388   4.058  -9.363  0.00  0.00    +0.010 C 
ATOM     35  C   UNL     1       4.783   5.640 -11.188  0.00  0.00    -0.004 A 
ATOM     36  C   UNL     1       3.852   5.579 -12.217  0.00  0.00    +0.048 A 
ATOM     37  C   UNL     1       4.267   5.218 -13.480  0.00  0.00    +0.015 A 
ATOM     38  C   UNL     1       5.529   5.625 -13.898  0.00  0.00    +0.001 A 
ATOM     39  C   UNL     1       6.439   5.966 -12.922  0.00  0.00    -0.000 A 
ATOM     40  C   UNL     1       7.758   6.119 -13.323  0.00  0.00    -0.000 A 
ATOM     41  C   UNL     1       8.764   6.063 -12.369  0.00  0.00    -0.000 A 
ATOM     42  C   UNL     1       8.362   6.182 -11.045  0.00  0.00    -0.000 A 
ATOM     43  C   UNL     1       7.042   6.125 -10.657  0.00  0.00    -0.000 A 
ATOM     44  C   UNL     1       6.107   5.763 -11.589  0.00  0.00    -0.002 A 
ATOM     45  N   UNL     1       2.572   5.889 -11.653  0.00  0.00    -0.290 N 
BRANCH  45  46
ATOM     46  C   UNL     1       1.344   6.161 -12.391  0.00  0.00    +0.095 C 
BRANCH  46  47
ATOM     47  C   UNL     1       0.900   4.891 -13.065  0.00  0.00    +0.024 C 
BRANCH  47  48
ATOM     48  C   UNL     1       0.691   5.216 -14.534  0.00  0.00    +0.025 C 
BRANCH  48  49
ATOM     49  C   UNL     1       1.090   6.641 -14.798  0.00  0.00    +0.126 C 
BRANCH  49  50
ATOM     50  S   UNL     1       0.323   7.271 -16.275  0.00  0.00    -0.107 S 
ATOM     51  O   UNL     1       1.374   7.150 -17.583  0.00  0.00    -0.291 OA
ATOM     52  O   UNL     1      -0.919   6.489 -16.550  0.00  0.00    -0.371 OA
ATOM     53  O   UNL     1      -0.020   8.717 -16.003  0.00  0.00    -0.371 OA
ENDBRANCH  49  50
ENDBRANCH  48  49
ENDBRANCH  47  48
ENDBRANCH  46  47
ENDBRANCH  45  46
ENDBRANCH  29  30
ENDBRANCH   2  28
TORSDOF 14
ENDMDL
MODEL 8
REMARK VINA RESULT:      -9.2      2.109     11.985
REMARK  Name = 
REMARK  14 active torsions:
REMARK  status: ('A' for Active; 'I' for Inactive)
REMARK    1  A    between atoms: N_14  and  C_15
REMARK    2  A    between atoms: C_15  and  C_16
REMARK    3  A    between atoms: C_16  and  C_17
REMARK    4  A    between atoms: C_17  and  C_18
REMARK    5  A    between atoms: C_18  and  S_19
REMARK    6  A    between atoms: C_23  and  C_24
REMARK    7  A    between atoms: C_25  and  C_26
REMARK    8  A    between atoms: C_27  and  C_28
REMARK    9  A    between atoms: C_29  and  C_30
REMARK   10  A    between atoms: N_32  and  C_33
REMARK   11  A    between atoms: C_33  and  C_34
REMARK   12  A    between atoms: C_34  and  C_35
REMARK   13  A    between atoms: C_35  and  C_36
REMARK   14  A    between atoms: C_36  and  S_37
REMARK                            x       y       z     vdW  Elec       q    Type
REMARK                         _______ _______ _______ _____ _____    ______ ____
ROOT
ATOM      1  C   UNL     1       0.174   6.350  -4.897  0.00  0.00    +0.000 C 
ATOM      2  C   UNL     1       0.234   5.294  -5.676  0.00  0.00    +0.000 C 
ENDROOT
BRANCH   1   4
ATOM      3  C   UNL     1       1.023   5.798  -2.700  0.00  0.00    +0.065 C 
ATOM      4  C   UNL     1       1.145   6.468  -3.829  0.00  0.00    +0.006 C 
BRANCH   3   7
ATOM      5  C   UNL     1       3.940   5.589  -1.168  0.00  0.00    +0.015 C 
ATOM      6  C   UNL     1       3.035   6.781  -1.367  0.00  0.00    +0.102 C 
ATOM      7  C   UNL     1       1.613   6.406  -1.501  0.00  0.00    +0.206 C 
ATOM      8  N   UNL     1       0.897   6.938  -0.564  0.00  0.00    -0.173 N 
ATOM      9  C   UNL     1       1.695   7.951   0.055  0.00  0.00    +0.222 A 
ATOM     10  C   UNL     1       1.388   8.892   1.028  0.00  0.00    +0.069 A 
ATOM     11  C   UNL     1       2.411   9.330   1.859  0.00  0.00    +0.006 A 
ATOM     12  C   UNL     1       3.663   8.731   1.844  0.00  0.00    +0.000 A 
ATOM     13  C   UNL     1       4.040   8.059   0.689  0.00  0.00    +0.002 A 
ATOM     14  C   UNL     1       5.264   7.401   0.725  0.00  0.00    -0.000 A 
ATOM     15  C   UNL     1       5.900   7.098   1.922  0.00  0.00    -0.000 A 
ATOM     16  C   UNL     1       5.399   7.618   3.109  0.00  0.00    -0.000 A 
ATOM     17  C   UNL     1       4.430   8.606   2.996  0.00  0.00    -0.000 A 
ATOM     18  C   UNL     1       3.036   7.692  -0.191  0.00  0.00    +0.050 A 
ATOM     19  C   UNL     1       3.558   7.562  -2.540  0.00  0.00    +0.015 C 
BRANCH   8  20
ATOM     20  C   UNL     1      -0.420   6.455  -0.159  0.00  0.00    +0.322 C 
BRANCH  20  21
ATOM     21  C   UNL     1      -1.478   7.477  -0.526  0.00  0.00    +0.087 C 
BRANCH  21  22
ATOM     22  C   UNL     1      -2.582   7.552   0.493  0.00  0.00    +0.030 C 
BRANCH  22  23
ATOM     23  C   UNL     1      -2.083   7.554   1.911  0.00  0.00    +0.126 C 
BRANCH  23  24
ATOM     24  S   UNL     1      -2.079   9.172   2.630  0.00  0.00    -0.107 S 
ATOM     25  O   UNL     1      -3.601   9.463   3.290  0.00  0.00    -0.291 OA
ATOM     26  O   UNL     1      -1.738  10.229   1.627  0.00  0.00    -0.371 OA
ATOM     27  O   UNL     1      -1.027   9.204   3.709  0.00  0.00    -0.371 OA
ENDBRANCH  23  24
ENDBRANCH  22  23
ENDBRANCH  21  22
ENDBRANCH  20  21
ENDBRANCH   8  20
ENDBRANCH   3   7
ENDBRANCH   1   4
BRANCH   2  28
ATOM     28  C   UNL     1       1.446   4.497  -5.854  0.00  0.00    +0.000 C 
ATOM     29  C   UNL     1       1.776   4.193  -7.110  0.00  0.00    +0.001 C 
BRANCH  29  30
ATOM     30  C   UNL     1       1.433   5.209  -8.113  0.00  0.00    +0.011 C 
ATOM     31  C   UNL     1       2.213   5.341  -9.186  0.00  0.00    +0.032 C 
ATOM     32  C   UNL     1       3.693   5.362  -9.082  0.00  0.00    +0.052 C 
ATOM     33  C   UNL     1       4.169   6.476  -8.159  0.00  0.00    +0.010 C 
ATOM     34  C   UNL     1       4.271   4.030  -8.691  0.00  0.00    +0.010 C 
ATOM     35  C   UNL     1       4.085   5.683 -10.487  0.00  0.00    -0.004 A 
ATOM     36  C   UNL     1       3.000   5.495 -11.334  0.00  0.00    +0.048 A 
ATOM     37  C   UNL     1       3.225   5.222 -12.666  0.00  0.00    +0.015 A 
ATOM     38  C   UNL     1       4.315   5.825 -13.285  0.00  0.00    +0.001 A 
ATOM     39  C   UNL     1       5.327   6.286 -12.474  0.00  0.00    -0.000 A 
ATOM     40  C   UNL     1       6.513   6.647 -13.098  0.00  0.00    -0.000 A 
ATOM     41  C   UNL     1       7.674   6.731 -12.343  0.00  0.00    -0.000 A 
ATOM     42  C   UNL     1       7.509   6.766 -10.964  0.00  0.00    -0.000 A 
ATOM     43  C   UNL     1       6.305   6.501 -10.349  0.00  0.00    -0.000 A 
ATOM     44  C   UNL     1       5.280   6.013 -11.113  0.00  0.00    -0.002 A 
ATOM     45  N   UNL     1       1.814   5.596 -10.537  0.00  0.00    -0.290 N 
BRANCH  45  46
ATOM     46  C   UNL     1       0.445   5.687 -11.031  0.00  0.00    +0.095 C 
BRANCH  46  47
ATOM     47  C   UNL     1       0.097   7.140 -11.211  0.00  0.00    +0.024 C 
BRANCH  47  48
ATOM     48  C   UNL     1      -0.368   7.312 -12.647  0.00  0.00    +0.025 C 
BRANCH  48  49
ATOM     49  C   UNL     1       0.801   7.680 -13.517  0.00  0.00    +0.126 C 
BRANCH  49  50
ATOM     50  S   UNL     1       0.741   6.838 -15.084  0.00  0.00    -0.107 S 
ATOM     51  O   UNL     1       0.533   5.184 -14.857  0.00  0.00    -0.291 OA
ATOM     52  O   UNL     1      -0.393   7.385 -15.887  0.00  0.00    -0.371 OA
ATOM     53  O   UNL     1       2.054   7.117 -15.777  0.00  0.00    -0.371 OA
ENDBRANCH  49  50
ENDBRANCH  48  49
ENDBRANCH  47  48
ENDBRANCH  46  47
ENDBRANCH  45  46
ENDBRANCH  29  30
ENDBRANCH   2  28
TORSDOF 14
ENDMDL
MODEL 9
REMARK VINA RESULT:      -8.7      2.498     11.856
REMARK  Name = 
REMARK  14 active torsions:
REMARK  status: ('A' for Active; 'I' for Inactive)
REMARK    1  A    between atoms: N_14  and  C_15
REMARK    2  A    between atoms: C_15  and  C_16
REMARK    3  A    between atoms: C_16  and  C_17
REMARK    4  A    between atoms: C_17  and  C_18
REMARK    5  A    between atoms: C_18  and  S_19
REMARK    6  A    between atoms: C_23  and  C_24
REMARK    7  A    between atoms: C_25  and  C_26
REMARK    8  A    between atoms: C_27  and  C_28
REMARK    9  A    between atoms: C_29  and  C_30
REMARK   10  A    between atoms: N_32  and  C_33
REMARK   11  A    between atoms: C_33  and  C_34
REMARK   12  A    between atoms: C_34  and  C_35
REMARK   13  A    between atoms: C_35  and  C_36
REMARK   14  A    between atoms: C_36  and  S_37
REMARK                            x       y       z     vdW  Elec       q    Type
REMARK                         _______ _______ _______ _____ _____    ______ ____
ROOT
ATOM      1  C   UNL     1      -0.901   6.213  -5.850  0.00  0.00    +0.000 C 
ATOM      2  C   UNL     1      -0.508   5.117  -6.459  0.00  0.00    +0.000 C 
ENDROOT
BRANCH   1   4
ATOM      3  C   UNL     1      -0.274   5.867  -3.539  0.00  0.00    +0.065 C 
ATOM      4  C   UNL     1      -0.217   6.601  -4.634  0.00  0.00    +0.006 C 
BRANCH   3   7
ATOM      5  C   UNL     1      -2.218   7.830  -1.731  0.00  0.00    +0.015 C 
ATOM      6  C   UNL     1      -1.233   6.772  -1.291  0.00  0.00    +0.102 C 
ATOM      7  C   UNL     1      -0.136   6.573  -2.259  0.00  0.00    +0.206 C 
ATOM      8  N   UNL     1       1.013   6.829  -1.725  0.00  0.00    -0.173 N 
ATOM      9  C   UNL     1       0.818   6.892  -0.308  0.00  0.00    +0.222 A 
ATOM     10  C   UNL     1       1.721   7.027   0.736  0.00  0.00    +0.069 A 
ATOM     11  C   UNL     1       1.285   7.643   1.902  0.00  0.00    +0.006 A 
ATOM     12  C   UNL     1       0.044   8.263   1.973  0.00  0.00    +0.000 A 
ATOM     13  C   UNL     1      -0.935   7.844   1.083  0.00  0.00    +0.002 A 
ATOM     14  C   UNL     1      -2.143   8.530   1.120  0.00  0.00    -0.000 A 
ATOM     15  C   UNL     1      -2.259   9.781   1.713  0.00  0.00    -0.000 A 
ATOM     16  C   UNL     1      -1.193  10.287   2.447  0.00  0.00    -0.000 A 
ATOM     17  C   UNL     1      -0.163   9.403   2.740  0.00  0.00    -0.000 A 
ATOM     18  C   UNL     1      -0.520   7.152  -0.043  0.00  0.00    +0.050 A 
ATOM     19  C   UNL     1      -2.008   5.518  -1.002  0.00  0.00    +0.015 C 
BRANCH   8  20
ATOM     20  C   UNL     1       2.223   7.136  -2.481  0.00  0.00    +0.322 C 
BRANCH  20  21
ATOM     21  C   UNL     1       3.206   7.884  -1.600  0.00  0.00    +0.087 C 
BRANCH  21  22
ATOM     22  C   UNL     1       4.533   7.185  -1.497  0.00  0.00    +0.030 C 
BRANCH  22  23
ATOM     23  C   UNL     1       4.572   6.139  -0.417  0.00  0.00    +0.126 C 
BRANCH  23  24
ATOM     24  S   UNL     1       4.266   4.509  -1.038  0.00  0.00    -0.107 S 
ATOM     25  O   UNL     1       2.667   4.103  -0.699  0.00  0.00    -0.291 OA
ATOM     26  O   UNL     1       5.195   3.499  -0.440  0.00  0.00    -0.371 OA
ATOM     27  O   UNL     1       4.496   4.522  -2.528  0.00  0.00    -0.371 OA
ENDBRANCH  23  24
ENDBRANCH  22  23
ENDBRANCH  21  22
ENDBRANCH  20  21
ENDBRANCH   8  20
ENDBRANCH   3   7
ENDBRANCH   1   4
BRANCH   2  28
ATOM     28  C   UNL     1       0.822   4.536  -6.288  0.00  0.00    +0.000 C 
ATOM     29  C   UNL     1       1.533   4.343  -7.399  0.00  0.00    +0.001 C 
BRANCH  29  30
ATOM     30  C   UNL     1       1.314   5.330  -8.464  0.00  0.00    +0.011 C 
ATOM     31  C   UNL     1       2.202   5.413  -9.454  0.00  0.00    +0.032 C 
ATOM     32  C   UNL     1       3.664   5.414  -9.198  0.00  0.00    +0.052 C 
ATOM     33  C   UNL     1       4.064   6.551  -8.267  0.00  0.00    +0.010 C 
ATOM     34  C   UNL     1       4.173   4.087  -8.707  0.00  0.00    +0.010 C 
ATOM     35  C   UNL     1       4.204   5.681 -10.564  0.00  0.00    -0.004 A 
ATOM     36  C   UNL     1       3.210   5.482 -11.513  0.00  0.00    +0.048 A 
ATOM     37  C   UNL     1       3.566   5.161 -12.804  0.00  0.00    +0.015 A 
ATOM     38  C   UNL     1       4.724   5.726 -13.326  0.00  0.00    +0.001 A 
ATOM     39  C   UNL     1       5.656   6.198 -12.430  0.00  0.00    -0.000 A 
ATOM     40  C   UNL     1       6.907   6.519 -12.938  0.00  0.00    -0.000 A 
ATOM     41  C   UNL     1       7.985   6.610 -12.070  0.00  0.00    -0.000 A 
ATOM     42  C   UNL     1       7.680   6.694 -10.718  0.00  0.00    -0.000 A 
ATOM     43  C   UNL     1       6.414   6.469 -10.223  0.00  0.00    -0.000 A 
ATOM     44  C   UNL     1       5.464   5.972 -11.073  0.00  0.00    -0.002 A 
ATOM     45  N   UNL     1       1.950   5.629 -10.847  0.00  0.00    -0.290 N 
BRANCH  45  46
ATOM     46  C   UNL     1       0.641   5.725 -11.483  0.00  0.00    +0.095 C 
BRANCH  46  47
ATOM     47  C   UNL     1       0.175   7.154 -11.404  0.00  0.00    +0.024 C 
BRANCH  47  48
ATOM     48  C   UNL     1       0.293   7.737 -12.801  0.00  0.00    +0.025 C 
BRANCH  48  49
ATOM     49  C   UNL     1       0.476   6.628 -13.799  0.00  0.00    +0.126 C 
BRANCH  49  50
ATOM     50  S   UNL     1       0.918   7.259 -15.404  0.00  0.00    -0.107 S 
ATOM     51  O   UNL     1       2.558   7.024 -15.698  0.00  0.00    -0.291 OA
ATOM     52  O   UNL     1       0.112   6.552 -16.443  0.00  0.00    -0.371 OA
ATOM     53  O   UNL     1       0.587   8.732 -15.397  0.00  0.00    -0.371 OA
ENDBRANCH  49  50
ENDBRANCH  48  49
ENDBRANCH  47  48
ENDBRANCH  46  47
ENDBRANCH  45  46
ENDBRANCH  29  30
ENDBRANCH   2  28
TORSDOF 14
ENDMDL
