MODEL 1
REMARK VINA RESULT:      -3.7      0.000      0.000
REMARK  Name = 
REMARK  7 active torsions:
REMARK  status: ('A' for Active; 'I' for Inactive)
REMARK    1  A    between atoms: C_2  and  C_3
REMARK    2  A    between atoms: C_3  and  N_4
REMARK    3  A    between atoms: N_4  and  C_5
REMARK    4  A    between atoms: C_5  and  C_6
REMARK    5  A    between atoms: C_6  and  N_7
REMARK    6  A    between atoms: N_7  and  C_8
REMARK    7  A    between atoms: C_8  and  C_9
REMARK                            x       y       z     vdW  Elec       q    Type
REMARK                         _______ _______ _______ _____ _____    ______ ____
ROOT
ATOM      1  C   UNL     1       5.776   5.617  -9.612  0.00  0.00    +0.108 C 
ENDROOT
BRANCH   1   2
ATOM      2  N   UNL     1       6.348   5.706 -10.948  0.00  0.00    -0.215 NA
BRANCH   2   3
ATOM      3  C   UNL     1       7.690   6.257 -10.804  0.00  0.00    +0.109 C 
BRANCH   3   5
ATOM      4  N   UNL     1       7.659   4.689 -12.587  0.00  0.00    -0.130 NA
ATOM      5  C   UNL     1       8.540   5.636 -11.906  0.00  0.00    +0.128 C 
ENDBRANCH   3   5
ENDBRANCH   2   3
ENDBRANCH   1   2
BRANCH   1   6
ATOM      6  C   UNL     1       4.329   5.170  -9.778  0.00  0.00    +0.108 C 
BRANCH   6   7
ATOM      7  N   UNL     1       3.524   6.212  -9.140  0.00  0.00    -0.215 NA
BRANCH   7   8
ATOM      8  C   UNL     1       3.462   6.031  -7.710  0.00  0.00    +0.109 C 
BRANCH   8   9
ATOM      9  C   UNL     1       2.745   7.137  -6.996  0.00  0.00    +0.128 C 
ATOM     10  N   UNL     1       2.235   8.162  -7.872  0.00  0.00    -0.130 NA
ENDBRANCH   8   9
ENDBRANCH   7   8
ENDBRANCH   6   7
ENDBRANCH   1   6
TORSDOF 7
ENDMDL
MODEL 2
REMARK VINA RESULT:      -3.7      1.964      2.137
REMARK  Name = 
REMARK  7 active torsions:
REMARK  status: ('A' for Active; 'I' for Inactive)
REMARK    1  A    between atoms: C_2  and  C_3
REMARK    2  A    between atoms: C_3  and  N_4
REMARK    3  A    between atoms: N_4  and  C_5
REMARK    4  A    between atoms: C_5  and  C_6
REMARK    5  A    between atoms: C_6  and  N_7
REMARK    6  A    between atoms: N_7  and  C_8
REMARK    7  A    between atoms: C_8  and  C_9
REMARK                            x       y       z     vdW  Elec       q    Type
REMARK                         _______ _______ _______ _____ _____    ______ ____
ROOT
ATOM      1  C   UNL     1       4.233   5.353 -12.682  0.00  0.00    +0.108 C 
ENDROOT
BRANCH   1   2
ATOM      2  N   UNL     1       5.476   4.875 -13.269  0.00  0.00    -0.215 NA
BRANCH   2   3
ATOM      3  C   UNL     1       6.111   6.018 -13.916  0.00  0.00    +0.109 C 
BRANCH   3   5
ATOM      4  N   UNL     1       7.752   4.730 -12.780  0.00  0.00    -0.130 NA
ATOM      5  C   UNL     1       7.591   5.957 -13.559  0.00  0.00    +0.128 C 
ENDBRANCH   3   5
ENDBRANCH   2   3
ENDBRANCH   1   2
BRANCH   1   6
ATOM      6  C   UNL     1       4.517   5.634 -11.211  0.00  0.00    +0.108 C 
BRANCH   6   7
ATOM      7  N   UNL     1       3.346   6.361 -10.720  0.00  0.00    -0.215 NA
BRANCH   7   8
ATOM      8  C   UNL     1       3.366   6.488  -9.283  0.00  0.00    +0.109 C 
BRANCH   8   9
ATOM      9  C   UNL     1       2.071   6.973  -8.705  0.00  0.00    +0.128 C 
ATOM     10  N   UNL     1       2.202   8.159  -7.896  0.00  0.00    -0.130 NA
ENDBRANCH   8   9
ENDBRANCH   7   8
ENDBRANCH   6   7
ENDBRANCH   1   6
TORSDOF 7
ENDMDL
MODEL 3
REMARK VINA RESULT:      -3.7      7.813      9.275
REMARK  Name = 
REMARK  7 active torsions:
REMARK  status: ('A' for Active; 'I' for Inactive)
REMARK    1  A    between atoms: C_2  and  C_3
REMARK    2  A    between atoms: C_3  and  N_4
REMARK    3  A    between atoms: N_4  and  C_5
REMARK    4  A    between atoms: C_5  and  C_6
REMARK    5  A    between atoms: C_6  and  N_7
REMARK    6  A    between atoms: N_7  and  C_8
REMARK    7  A    between atoms: C_8  and  C_9
REMARK                            x       y       z     vdW  Elec       q    Type
REMARK                         _______ _______ _______ _____ _____    ______ ____
ROOT
ATOM      1  C   UNL     1       0.679   6.186  -3.553  0.00  0.00    +0.108 C 
ENDROOT
BRANCH   1   2
ATOM      2  N   UNL     1       0.381   5.302  -4.670  0.00  0.00    -0.215 NA
BRANCH   2   3
ATOM      3  C   UNL     1      -0.676   5.937  -5.449  0.00  0.00    +0.109 C 
BRANCH   3   5
ATOM      4  N   UNL     1      -2.346   7.556  -4.970  0.00  0.00    -0.130 NA
ATOM      5  C   UNL     1      -0.911   7.310  -4.831  0.00  0.00    +0.128 C 
ENDBRANCH   3   5
ENDBRANCH   2   3
ENDBRANCH   1   2
BRANCH   1   6
ATOM      6  C   UNL     1       1.127   5.301  -2.396  0.00  0.00    +0.108 C 
BRANCH   6   7
ATOM      7  N   UNL     1      -0.105   4.840  -1.757  0.00  0.00    -0.215 NA
BRANCH   7   8
ATOM      8  C   UNL     1      -0.931   5.946  -1.338  0.00  0.00    +0.109 C 
BRANCH   8   9
ATOM      9  C   UNL     1      -2.393   5.730  -1.585  0.00  0.00    +0.128 C 
ATOM     10  N   UNL     1      -2.674   4.785  -2.637  0.00  0.00    -0.130 NA
ENDBRANCH   8   9
ENDBRANCH   7   8
ENDBRANCH   6   7
ENDBRANCH   1   6
TORSDOF 7
ENDMDL
MODEL 4
REMARK VINA RESULT:      -3.6      4.848      7.014
REMARK  Name = 
REMARK  7 active torsions:
REMARK  status: ('A' for Active; 'I' for Inactive)
REMARK    1  A    between atoms: C_2  and  C_3
REMARK    2  A    between atoms: C_3  and  N_4
REMARK    3  A    between atoms: N_4  and  C_5
REMARK    4  A    between atoms: C_5  and  C_6
REMARK    5  A    between atoms: C_6  and  N_7
REMARK    6  A    between atoms: N_7  and  C_8
REMARK    7  A    between atoms: C_8  and  C_9
REMARK                            x       y       z     vdW  Elec       q    Type
REMARK                         _______ _______ _______ _____ _____    ______ ____
ROOT
ATOM      1  C   UNL     1       0.157   5.287  -6.092  0.00  0.00    +0.108 C 
ENDROOT
BRANCH   1   2
ATOM      2  N   UNL     1       1.240   6.017  -6.734  0.00  0.00    -0.215 NA
BRANCH   2   3
ATOM      3  C   UNL     1       0.991   5.977  -8.170  0.00  0.00    +0.109 C 
BRANCH   3   5
ATOM      4  N   UNL     1       2.079   8.057  -7.809  0.00  0.00    -0.130 NA
ATOM      5  C   UNL     1       1.926   6.998  -8.806  0.00  0.00    +0.128 C 
ENDBRANCH   3   5
ENDBRANCH   2   3
ENDBRANCH   1   2
BRANCH   1   6
ATOM      6  C   UNL     1      -1.118   5.619  -6.858  0.00  0.00    +0.108 C 
BRANCH   6   7
ATOM      7  N   UNL     1      -2.215   5.339  -5.931  0.00  0.00    -0.215 NA
BRANCH   7   8
ATOM      8  C   UNL     1      -2.038   6.029  -4.677  0.00  0.00    +0.109 C 
BRANCH   8   9
ATOM      9  C   UNL     1      -3.086   5.699  -3.658  0.00  0.00    +0.128 C 
ATOM     10  N   UNL     1      -2.634   4.800  -2.626  0.00  0.00    -0.130 NA
ENDBRANCH   8   9
ENDBRANCH   7   8
ENDBRANCH   6   7
ENDBRANCH   1   6
TORSDOF 7
ENDMDL
MODEL 5
REMARK VINA RESULT:      -3.6      2.154      2.342
REMARK  Name = 
REMARK  7 active torsions:
REMARK  status: ('A' for Active; 'I' for Inactive)
REMARK    1  A    between atoms: C_2  and  C_3
REMARK    2  A    between atoms: C_3  and  N_4
REMARK    3  A    between atoms: N_4  and  C_5
REMARK    4  A    between atoms: C_5  and  C_6
REMARK    5  A    between atoms: C_6  and  N_7
REMARK    6  A    between atoms: N_7  and  C_8
REMARK    7  A    between atoms: C_8  and  C_9
REMARK                            x       y       z     vdW  Elec       q    Type
REMARK                         _______ _______ _______ _____ _____    ______ ____
ROOT
ATOM      1  C   UNL     1       5.350   7.384 -11.073  0.00  0.00    +0.108 C 
ENDROOT
BRANCH   1   2
ATOM      2  N   UNL     1       6.769   7.479 -11.385  0.00  0.00    -0.215 NA
BRANCH   2   3
ATOM      3  C   UNL     1       6.954   6.909 -12.715  0.00  0.00    +0.109 C 
BRANCH   3   5
ATOM      4  N   UNL     1       7.752   4.673 -12.777  0.00  0.00    -0.130 NA
ATOM      5  C   UNL     1       8.214   6.055 -12.655  0.00  0.00    +0.128 C 
ENDBRANCH   3   5
ENDBRANCH   2   3
ENDBRANCH   1   2
BRANCH   1   6
ATOM      6  C   UNL     1       5.075   5.931 -10.703  0.00  0.00    +0.108 C 
BRANCH   6   7
ATOM      7  N   UNL     1       5.821   5.695  -9.467  0.00  0.00    -0.215 NA
BRANCH   7   8
ATOM      8  C   UNL     1       4.994   5.077  -8.459  0.00  0.00    +0.109 C 
BRANCH   8   9
ATOM      9  C   UNL     1       3.864   4.270  -9.023  0.00  0.00    +0.128 C 
ATOM     10  N   UNL     1       2.674   4.284  -8.209  0.00  0.00    -0.130 NA
ENDBRANCH   8   9
ENDBRANCH   7   8
ENDBRANCH   6   7
ENDBRANCH   1   6
TORSDOF 7
ENDMDL
MODEL 6
REMARK VINA RESULT:      -3.6      1.874      5.563
REMARK  Name = 
REMARK  7 active torsions:
REMARK  status: ('A' for Active; 'I' for Inactive)
REMARK    1  A    between atoms: C_2  and  C_3
REMARK    2  A    between atoms: C_3  and  N_4
REMARK    3  A    between atoms: N_4  and  C_5
REMARK    4  A    between atoms: C_5  and  C_6
REMARK    5  A    between atoms: C_6  and  N_7
REMARK    6  A    between atoms: N_7  and  C_8
REMARK    7  A    between atoms: C_8  and  C_9
REMARK                            x       y       z     vdW  Elec       q    Type
REMARK                         _______ _______ _______ _____ _____    ______ ____
ROOT
ATOM      1  C   UNL     1       5.544   6.241 -10.354  0.00  0.00    +0.108 C 
ENDROOT
BRANCH   1   2
ATOM      2  N   UNL     1       4.462   5.268 -10.383  0.00  0.00    -0.215 NA
BRANCH   2   3
ATOM      3  C   UNL     1       3.717   5.419  -9.138  0.00  0.00    +0.109 C 
BRANCH   3   5
ATOM      4  N   UNL     1       2.130   4.219  -7.841  0.00  0.00    -0.130 NA
ATOM      5  C   UNL     1       3.291   4.021  -8.709  0.00  0.00    +0.128 C 
ENDBRANCH   3   5
ENDBRANCH   2   3
ENDBRANCH   1   2
BRANCH   1   6
ATOM      6  C   UNL     1       6.601   5.700  -9.398  0.00  0.00    +0.108 C 
BRANCH   6   7
ATOM      7  N   UNL     1       7.791   5.477 -10.219  0.00  0.00    -0.215 NA
BRANCH   7   8
ATOM      8  C   UNL     1       7.870   6.422 -11.306  0.00  0.00    +0.109 C 
BRANCH   8   9
ATOM      9  C   UNL     1       8.423   5.837 -12.570  0.00  0.00    +0.128 C 
ATOM     10  N   UNL     1       7.663   4.721 -13.078  0.00  0.00    -0.130 NA
ENDBRANCH   8   9
ENDBRANCH   7   8
ENDBRANCH   6   7
ENDBRANCH   1   6
TORSDOF 7
ENDMDL
MODEL 7
REMARK VINA RESULT:      -3.5      5.167      9.215
REMARK  Name = 
REMARK  7 active torsions:
REMARK  status: ('A' for Active; 'I' for Inactive)
REMARK    1  A    between atoms: C_2  and  C_3
REMARK    2  A    between atoms: C_3  and  N_4
REMARK    3  A    between atoms: N_4  and  C_5
REMARK    4  A    between atoms: C_5  and  C_6
REMARK    5  A    between atoms: C_6  and  N_7
REMARK    6  A    between atoms: N_7  and  C_8
REMARK    7  A    between atoms: C_8  and  C_9
REMARK                            x       y       z     vdW  Elec       q    Type
REMARK                         _______ _______ _______ _____ _____    ______ ____
ROOT
ATOM      1  C   UNL     1      -1.612   5.833  -5.589  0.00  0.00    +0.108 C 
ENDROOT
BRANCH   1   2
ATOM      2  N   UNL     1      -2.409   6.824  -4.881  0.00  0.00    -0.215 NA
BRANCH   2   3
ATOM      3  C   UNL     1      -1.985   6.798  -3.486  0.00  0.00    +0.109 C 
BRANCH   3   5
ATOM      4  N   UNL     1      -2.725   4.984  -2.144  0.00  0.00    -0.130 NA
ATOM      5  C   UNL     1      -3.165   6.272  -2.678  0.00  0.00    +0.128 C 
ENDBRANCH   3   5
ENDBRANCH   2   3
ENDBRANCH   1   2
BRANCH   1   6
ATOM      6  C   UNL     1      -0.360   5.593  -4.753  0.00  0.00    +0.108 C 
BRANCH   6   7
ATOM      7  N   UNL     1       0.730   5.442  -5.717  0.00  0.00    -0.215 NA
BRANCH   7   8
ATOM      8  C   UNL     1       0.755   6.532  -6.662  0.00  0.00    +0.109 C 
BRANCH   8   9
ATOM      9  C   UNL     1       2.109   7.156  -6.820  0.00  0.00    +0.128 C 
ATOM     10  N   UNL     1       2.178   8.138  -7.874  0.00  0.00    -0.130 NA
ENDBRANCH   8   9
ENDBRANCH   7   8
ENDBRANCH   6   7
ENDBRANCH   1   6
TORSDOF 7
ENDMDL
MODEL 8
REMARK VINA RESULT:      -3.5      0.955      5.916
REMARK  Name = 
REMARK  7 active torsions:
REMARK  status: ('A' for Active; 'I' for Inactive)
REMARK    1  A    between atoms: C_2  and  C_3
REMARK    2  A    between atoms: C_3  and  N_4
REMARK    3  A    between atoms: N_4  and  C_5
REMARK    4  A    between atoms: C_5  and  C_6
REMARK    5  A    between atoms: C_6  and  N_7
REMARK    6  A    between atoms: N_7  and  C_8
REMARK    7  A    between atoms: C_8  and  C_9
REMARK                            x       y       z     vdW  Elec       q    Type
REMARK                         _______ _______ _______ _____ _____    ______ ____
ROOT
ATOM      1  C   UNL     1       4.475   5.868  -9.557  0.00  0.00    +0.108 C 
ENDROOT
BRANCH   1   2
ATOM      2  N   UNL     1       3.240   6.639  -9.543  0.00  0.00    -0.215 NA
BRANCH   2   3
ATOM      3  C   UNL     1       2.485   6.217  -8.369  0.00  0.00    +0.109 C 
BRANCH   3   5
ATOM      4  N   UNL     1       3.047   7.400  -6.388  0.00  0.00    -0.130 NA
ATOM      5  C   UNL     1       2.183   7.476  -7.565  0.00  0.00    +0.128 C 
ENDBRANCH   3   5
ENDBRANCH   2   3
ENDBRANCH   1   2
BRANCH   1   6
ATOM      6  C   UNL     1       5.430   6.579 -10.508  0.00  0.00    +0.108 C 
BRANCH   6   7
ATOM      7  N   UNL     1       6.699   5.859 -10.396  0.00  0.00    -0.215 NA
BRANCH   7   8
ATOM      8  C   UNL     1       7.756   6.535 -11.109  0.00  0.00    +0.109 C 
BRANCH   8   9
ATOM      9  C   UNL     1       8.551   5.630 -12.000  0.00  0.00    +0.128 C 
ATOM     10  N   UNL     1       7.749   4.698 -12.752  0.00  0.00    -0.130 NA
ENDBRANCH   8   9
ENDBRANCH   7   8
ENDBRANCH   6   7
ENDBRANCH   1   6
TORSDOF 7
ENDMDL
MODEL 9
REMARK VINA RESULT:      -3.4      5.059      9.150
REMARK  Name = 
REMARK  7 active torsions:
REMARK  status: ('A' for Active; 'I' for Inactive)
REMARK    1  A    between atoms: C_2  and  C_3
REMARK    2  A    between atoms: C_3  and  N_4
REMARK    3  A    between atoms: N_4  and  C_5
REMARK    4  A    between atoms: C_5  and  C_6
REMARK    5  A    between atoms: C_6  and  N_7
REMARK    6  A    between atoms: N_7  and  C_8
REMARK    7  A    between atoms: C_8  and  C_9
REMARK                            x       y       z     vdW  Elec       q    Type
REMARK                         _______ _______ _______ _____ _____    ______ ____
ROOT
ATOM      1  C   UNL     1      -0.919   5.849  -5.528  0.00  0.00    +0.108 C 
ENDROOT
BRANCH   1   2
ATOM      2  N   UNL     1      -2.326   5.998  -5.185  0.00  0.00    -0.215 NA
BRANCH   2   3
ATOM      3  C   UNL     1      -2.383   6.695  -3.905  0.00  0.00    +0.109 C 
BRANCH   3   5
ATOM      4  N   UNL     1      -2.687   4.783  -2.530  0.00  0.00    -0.130 NA
ATOM      5  C   UNL     1      -3.398   5.952  -3.045  0.00  0.00    +0.128 C 
ENDBRANCH   3   5
ENDBRANCH   2   3
ENDBRANCH   1   2
BRANCH   1   6
ATOM      6  C   UNL     1      -0.866   5.251  -6.929  0.00  0.00    +0.108 C 
BRANCH   6   7
ATOM      7  N   UNL     1       0.516   5.427  -7.376  0.00  0.00    -0.215 NA
BRANCH   7   8
ATOM      8  C   UNL     1       0.612   5.413  -8.815  0.00  0.00    +0.109 C 
BRANCH   8   9
ATOM      9  C   UNL     1       1.801   4.658  -9.329  0.00  0.00    +0.128 C 
ATOM     10  N   UNL     1       2.486   3.892  -8.318  0.00  0.00    -0.130 NA
ENDBRANCH   8   9
ENDBRANCH   7   8
ENDBRANCH   6   7
ENDBRANCH   1   6
TORSDOF 7
ENDMDL
