MODEL 1
REMARK VINA RESULT:      -8.7      0.000      0.000
REMARK  Name = 
REMARK  5 active torsions:
REMARK  status: ('A' for Active; 'I' for Inactive)
REMARK    1  A    between atoms: C_7  and  O_8
REMARK    2  A    between atoms: O_8  and  C_9
REMARK    3  A    between atoms: C_9  and  C_11
REMARK    4  A    between atoms: C_11  and  C_13
REMARK    5  A    between atoms: C_11  and  C_19
REMARK                            x       y       z     vdW  Elec       q    Type
REMARK                         _______ _______ _______ _____ _____    ______ ____
ROOT
ATOM      1  C   UNL     1       1.904   4.823  -6.323  0.00  0.00    +0.252 C 
ATOM      2  O   UNL     1       1.528   3.544  -5.882  0.00  0.00    -0.205 OA
ENDROOT
BRANCH   1   3
ATOM      3  C   UNL     1       2.770   5.486  -5.331  0.00  0.00    +0.019 A 
ATOM      4  C   UNL     1       3.686   4.677  -4.668  0.00  0.00    -0.001 A 
ATOM      5  C   UNL     1       4.824   5.165  -4.087  0.00  0.00    -0.000 A 
ATOM      6  C   UNL     1       5.288   6.406  -4.492  0.00  0.00    -0.000 A 
ATOM      7  C   UNL     1       4.391   7.276  -5.064  0.00  0.00    -0.000 A 
ATOM      8  C   UNL     1       3.159   6.816  -5.445  0.00  0.00    -0.001 A 
ENDBRANCH   1   3
BRANCH   1   9
ATOM      9  C   UNL     1       0.644   5.620  -6.462  0.00  0.00    +0.019 A 
ATOM     10  C   UNL     1       0.108   6.061  -5.258  0.00  0.00    -0.001 A 
ATOM     11  C   UNL     1      -1.216   6.349  -5.078  0.00  0.00    -0.000 A 
ATOM     12  C   UNL     1      -2.096   6.127  -6.112  0.00  0.00    -0.000 A 
ATOM     13  C   UNL     1      -1.655   5.317  -7.152  0.00  0.00    -0.000 A 
ATOM     14  C   UNL     1      -0.294   5.246  -7.418  0.00  0.00    -0.001 A 
ENDBRANCH   1   9
BRANCH   1  15
ATOM     15  C   UNL     1       2.587   4.629  -7.619  0.00  0.00    +0.353 C 
ATOM     16  O   UNL     1       2.393   3.540  -8.245  0.00  0.00    -0.247 OA
BRANCH  15  17
ATOM     17  O   UNL     1       2.973   5.608  -8.478  0.00  0.00    -0.444 OA
BRANCH  17  21
ATOM     18  C   UNL     1       5.592   7.341 -11.266  0.00  0.00    +0.171 C 
ATOM     19  N   UNL     1       5.281   6.716 -11.058  0.00  0.00    +0.309 N 
ATOM     20  C   UNL     1       4.398   6.874  -9.900  0.00  0.00    +0.153 C 
ATOM     21  C   UNL     1       4.054   5.304  -9.528  0.00  0.00    +0.224 C 
ATOM     22  C   UNL     1       5.232   5.270  -8.374  0.00  0.00    +0.056 C 
ATOM     23  C   UNL     1       6.445   5.793  -9.134  0.00  0.00    +0.065 C 
ATOM     24  C   UNL     1       6.225   5.677 -10.639  0.00  0.00    +0.109 C 
ATOM     25  C   UNL     1       4.545   6.149 -12.187  0.00  0.00    +0.171 C 
ENDBRANCH  17  21
ENDBRANCH  15  17
ENDBRANCH   1  15
TORSDOF 5
ENDMDL
MODEL 2
REMARK VINA RESULT:      -8.3      2.510      6.320
REMARK  Name = 
REMARK  5 active torsions:
REMARK  status: ('A' for Active; 'I' for Inactive)
REMARK    1  A    between atoms: C_7  and  O_8
REMARK    2  A    between atoms: O_8  and  C_9
REMARK    3  A    between atoms: C_9  and  C_11
REMARK    4  A    between atoms: C_11  and  C_13
REMARK    5  A    between atoms: C_11  and  C_19
REMARK                            x       y       z     vdW  Elec       q    Type
REMARK                         _______ _______ _______ _____ _____    ______ ____
ROOT
ATOM      1  C   UNL     1       3.267   5.532  -5.969  0.00  0.00    +0.252 C 
ATOM      2  O   UNL     1       3.983   4.455  -5.422  0.00  0.00    -0.205 OA
ENDROOT
BRANCH   1   3
ATOM      3  C   UNL     1       3.935   6.047  -7.177  0.00  0.00    +0.019 A 
ATOM      4  C   UNL     1       5.006   5.303  -7.659  0.00  0.00    -0.001 A 
ATOM      5  C   UNL     1       5.429   5.365  -8.958  0.00  0.00    -0.000 A 
ATOM      6  C   UNL     1       4.555   5.862  -9.911  0.00  0.00    -0.000 A 
ATOM      7  C   UNL     1       3.537   6.683  -9.488  0.00  0.00    -0.000 A 
ATOM      8  C   UNL     1       3.264   6.780  -8.149  0.00  0.00    -0.001 A 
ENDBRANCH   1   3
BRANCH   1   9
ATOM      9  C   UNL     1       3.255   6.613  -4.933  0.00  0.00    +0.019 A 
ATOM     10  C   UNL     1       4.437   7.340  -4.850  0.00  0.00    -0.001 A 
ATOM     11  C   UNL     1       4.846   7.996  -3.722  0.00  0.00    -0.000 A 
ATOM     12  C   UNL     1       4.096   7.885  -2.574  0.00  0.00    -0.000 A 
ATOM     13  C   UNL     1       3.164   6.854  -2.527  0.00  0.00    -0.000 A 
ATOM     14  C   UNL     1       2.623   6.383  -3.717  0.00  0.00    -0.001 A 
ENDBRANCH   1   9
BRANCH   1  15
ATOM     15  C   UNL     1       1.910   5.021  -6.256  0.00  0.00    +0.353 C 
ATOM     16  O   UNL     1       1.625   3.834  -5.903  0.00  0.00    -0.247 OA
BRANCH  15  17
ATOM     17  O   UNL     1       0.779   5.765  -6.370  0.00  0.00    -0.444 OA
BRANCH  17  21
ATOM     18  C   UNL     1      -2.013   7.599  -3.823  0.00  0.00    +0.171 C 
ATOM     19  N   UNL     1      -1.704   6.963  -4.000  0.00  0.00    +0.309 N 
ATOM     20  C   UNL     1      -0.723   7.084  -5.082  0.00  0.00    +0.153 C 
ATOM     21  C   UNL     1      -0.395   5.502  -5.412  0.00  0.00    +0.224 C 
ATOM     22  C   UNL     1      -1.473   5.490  -6.661  0.00  0.00    +0.056 C 
ATOM     23  C   UNL     1      -2.730   6.055  -6.008  0.00  0.00    +0.065 C 
ATOM     24  C   UNL     1      -2.639   5.947  -4.490  0.00  0.00    +0.109 C 
ATOM     25  C   UNL     1      -1.082   6.385  -2.810  0.00  0.00    +0.171 C 
ENDBRANCH  17  21
ENDBRANCH  15  17
ENDBRANCH   1  15
TORSDOF 5
ENDMDL
MODEL 3
REMARK VINA RESULT:      -8.3      0.799      3.867
REMARK  Name = 
REMARK  5 active torsions:
REMARK  status: ('A' for Active; 'I' for Inactive)
REMARK    1  A    between atoms: C_7  and  O_8
REMARK    2  A    between atoms: O_8  and  C_9
REMARK    3  A    between atoms: C_9  and  C_11
REMARK    4  A    between atoms: C_11  and  C_13
REMARK    5  A    between atoms: C_11  and  C_19
REMARK                            x       y       z     vdW  Elec       q    Type
REMARK                         _______ _______ _______ _____ _____    ______ ____
ROOT
ATOM      1  C   UNL     1       1.758   5.969  -6.561  0.00  0.00    +0.252 C 
ATOM      2  O   UNL     1       1.640   7.292  -7.018  0.00  0.00    -0.205 OA
ENDROOT
BRANCH   1   3
ATOM      3  C   UNL     1       0.448   5.439  -6.145  0.00  0.00    +0.019 A 
ATOM      4  C   UNL     1       0.080   5.662  -4.823  0.00  0.00    -0.001 A 
ATOM      5  C   UNL     1      -1.221   5.655  -4.402  0.00  0.00    -0.000 A 
ATOM      6  C   UNL     1      -2.219   5.823  -5.348  0.00  0.00    -0.000 A 
ATOM      7  C   UNL     1      -1.926   5.520  -6.656  0.00  0.00    -0.000 A 
ATOM      8  C   UNL     1      -0.623   5.312  -7.022  0.00  0.00    -0.001 A 
ENDBRANCH   1   3
BRANCH   1   9
ATOM      9  C   UNL     1       2.660   6.003  -5.366  0.00  0.00    +0.019 A 
ATOM     10  C   UNL     1       3.421   7.160  -5.255  0.00  0.00    -0.001 A 
ATOM     11  C   UNL     1       4.614   7.222  -4.590  0.00  0.00    -0.000 A 
ATOM     12  C   UNL     1       5.143   6.070  -4.055  0.00  0.00    -0.000 A 
ATOM     13  C   UNL     1       4.615   4.866  -4.506  0.00  0.00    -0.000 A 
ATOM     14  C   UNL     1       3.306   4.838  -4.969  0.00  0.00    -0.001 A 
ENDBRANCH   1   9
BRANCH   1  15
ATOM     15  C   UNL     1       2.343   5.199  -7.678  0.00  0.00    +0.353 C 
ATOM     16  O   UNL     1       2.166   3.941  -7.702  0.00  0.00    -0.247 OA
BRANCH  15  17
ATOM     17  O   UNL     1       2.595   5.665  -8.930  0.00  0.00    -0.444 OA
BRANCH  17  21
ATOM     18  C   UNL     1       5.639   6.832 -11.578  0.00  0.00    +0.171 C 
ATOM     19  N   UNL     1       5.307   6.257 -11.276  0.00  0.00    +0.309 N 
ATOM     20  C   UNL     1       4.228   6.635 -10.360  0.00  0.00    +0.153 C 
ATOM     21  C   UNL     1       3.852   5.184  -9.673  0.00  0.00    +0.224 C 
ATOM     22  C   UNL     1       4.805   5.504  -8.365  0.00  0.00    +0.056 C 
ATOM     23  C   UNL     1       6.125   5.902  -9.015  0.00  0.00    +0.065 C 
ATOM     24  C   UNL     1       6.180   5.412 -10.458  0.00  0.00    +0.109 C 
ATOM     25  C   UNL     1       4.797   5.388 -12.336  0.00  0.00    +0.171 C 
ENDBRANCH  17  21
ENDBRANCH  15  17
ENDBRANCH   1  15
TORSDOF 5
ENDMDL
MODEL 4
REMARK VINA RESULT:      -8.3      2.064      2.829
REMARK  Name = 
REMARK  5 active torsions:
REMARK  status: ('A' for Active; 'I' for Inactive)
REMARK    1  A    between atoms: C_7  and  O_8
REMARK    2  A    between atoms: O_8  and  C_9
REMARK    3  A    between atoms: C_9  and  C_11
REMARK    4  A    between atoms: C_11  and  C_13
REMARK    5  A    between atoms: C_11  and  C_19
REMARK                            x       y       z     vdW  Elec       q    Type
REMARK                         _______ _______ _______ _____ _____    ______ ____
ROOT
ATOM      1  C   UNL     1       1.248   5.165  -6.473  0.00  0.00    +0.252 C 
ATOM      2  O   UNL     1       0.948   3.877  -6.000  0.00  0.00    -0.205 OA
ENDROOT
BRANCH   1   3
ATOM      3  C   UNL     1       2.209   5.840  -5.583  0.00  0.00    +0.019 A 
ATOM      4  C   UNL     1       2.716   5.086  -4.531  0.00  0.00    -0.001 A 
ATOM      5  C   UNL     1       3.901   5.375  -3.913  0.00  0.00    -0.000 A 
ATOM      6  C   UNL     1       4.811   6.181  -4.580  0.00  0.00    -0.000 A 
ATOM      7  C   UNL     1       4.335   7.015  -5.563  0.00  0.00    -0.000 A 
ATOM      8  C   UNL     1       3.056   6.851  -6.023  0.00  0.00    -0.001 A 
ENDBRANCH   1   3
BRANCH   1   9
ATOM      9  C   UNL     1      -0.034   5.938  -6.465  0.00  0.00    +0.019 A 
ATOM     10  C   UNL     1      -0.144   6.855  -5.427  0.00  0.00    -0.001 A 
ATOM     11  C   UNL     1      -1.337   7.293  -4.924  0.00  0.00    -0.000 A 
ATOM     12  C   UNL     1      -2.506   6.753  -5.410  0.00  0.00    -0.000 A 
ATOM     13  C   UNL     1      -2.402   5.569  -6.130  0.00  0.00    -0.000 A 
ATOM     14  C   UNL     1      -1.219   5.294  -6.804  0.00  0.00    -0.001 A 
ENDBRANCH   1   9
BRANCH   1  15
ATOM     15  C   UNL     1       1.783   4.987  -7.839  0.00  0.00    +0.353 C 
ATOM     16  O   UNL     1       2.848   4.309  -7.987  0.00  0.00    -0.247 OA
BRANCH  15  17
ATOM     17  O   UNL     1       1.062   4.992  -8.991  0.00  0.00    -0.444 OA
BRANCH  17  21
ATOM     18  C   UNL     1       1.447   5.393 -13.155  0.00  0.00    +0.171 C 
ATOM     19  N   UNL     1       1.629   5.688 -12.514  0.00  0.00    +0.309 N 
ATOM     20  C   UNL     1       1.095   4.947 -11.369  0.00  0.00    +0.153 C 
ATOM     21  C   UNL     1       1.453   5.961 -10.119  0.00  0.00    +0.224 C 
ATOM     22  C   UNL     1      -0.062   6.612 -10.150  0.00  0.00    +0.056 C 
ATOM     23  C   UNL     1      -0.225   6.981 -11.621  0.00  0.00    +0.065 C 
ATOM     24  C   UNL     1       1.134   7.051 -12.309  0.00  0.00    +0.109 C 
ATOM     25  C   UNL     1       3.086   5.780 -12.427  0.00  0.00    +0.171 C 
ENDBRANCH  17  21
ENDBRANCH  15  17
ENDBRANCH   1  15
TORSDOF 5
ENDMDL
MODEL 5
REMARK VINA RESULT:      -8.2      2.792      6.079
REMARK  Name = 
REMARK  5 active torsions:
REMARK  status: ('A' for Active; 'I' for Inactive)
REMARK    1  A    between atoms: C_7  and  O_8
REMARK    2  A    between atoms: O_8  and  C_9
REMARK    3  A    between atoms: C_9  and  C_11
REMARK    4  A    between atoms: C_11  and  C_13
REMARK    5  A    between atoms: C_11  and  C_19
REMARK                            x       y       z     vdW  Elec       q    Type
REMARK                         _______ _______ _______ _____ _____    ______ ____
ROOT
ATOM      1  C   UNL     1       2.604   6.685  -8.416  0.00  0.00    +0.252 C 
ATOM      2  O   UNL     1       2.562   8.074  -8.621  0.00  0.00    -0.205 OA
ENDROOT
BRANCH   1   3
ATOM      3  C   UNL     1       3.772   6.090  -9.090  0.00  0.00    +0.019 A 
ATOM      4  C   UNL     1       4.284   6.791 -10.177  0.00  0.00    -0.001 A 
ATOM      5  C   UNL     1       5.573   6.646 -10.613  0.00  0.00    -0.000 A 
ATOM      6  C   UNL     1       6.505   6.105  -9.743  0.00  0.00    -0.000 A 
ATOM      7  C   UNL     1       6.046   5.324  -8.709  0.00  0.00    -0.000 A 
ATOM      8  C   UNL     1       4.707   5.310  -8.421  0.00  0.00    -0.001 A 
ENDBRANCH   1   3
BRANCH   1   9
ATOM      9  C   UNL     1       1.361   6.120  -9.030  0.00  0.00    +0.019 A 
ATOM     10  C   UNL     1       1.477   4.799  -9.448  0.00  0.00    -0.001 A 
ATOM     11  C   UNL     1       0.711   4.246 -10.435  0.00  0.00    -0.000 A 
ATOM     12  C   UNL     1      -0.182   5.042 -11.115  0.00  0.00    -0.000 A 
ATOM     13  C   UNL     1      -0.017   6.417 -10.997  0.00  0.00    -0.000 A 
ATOM     14  C   UNL     1       0.581   6.926  -9.852  0.00  0.00    -0.001 A 
ENDBRANCH   1   9
BRANCH   1  15
ATOM     15  C   UNL     1       2.643   6.485  -6.953  0.00  0.00    +0.353 C 
ATOM     16  O   UNL     1       3.150   7.401  -6.232  0.00  0.00    -0.247 OA
BRANCH  15  17
ATOM     17  O   UNL     1       1.781   5.730  -6.222  0.00  0.00    -0.444 OA
BRANCH  17  21
ATOM     18  C   UNL     1      -1.976   5.802  -4.345  0.00  0.00    +0.171 C 
ATOM     19  N   UNL     1      -1.350   6.167  -4.428  0.00  0.00    +0.309 N 
ATOM     20  C   UNL     1      -0.400   5.481  -5.308  0.00  0.00    +0.153 C 
ATOM     21  C   UNL     1       0.958   6.394  -5.106  0.00  0.00    +0.224 C 
ATOM     22  C   UNL     1       1.552   5.347  -3.979  0.00  0.00    +0.056 C 
ATOM     23  C   UNL     1       0.380   5.211  -3.014  0.00  0.00    +0.065 C 
ATOM     24  C   UNL     1      -0.595   6.370  -3.190  0.00  0.00    +0.109 C 
ATOM     25  C   UNL     1      -1.642   7.506  -4.937  0.00  0.00    +0.171 C 
ENDBRANCH  17  21
ENDBRANCH  15  17
ENDBRANCH   1  15
TORSDOF 5
ENDMDL
MODEL 6
REMARK VINA RESULT:      -8.1      2.036      3.905
REMARK  Name = 
REMARK  5 active torsions:
REMARK  status: ('A' for Active; 'I' for Inactive)
REMARK    1  A    between atoms: C_7  and  O_8
REMARK    2  A    between atoms: O_8  and  C_9
REMARK    3  A    between atoms: C_9  and  C_11
REMARK    4  A    between atoms: C_11  and  C_13
REMARK    5  A    between atoms: C_11  and  C_19
REMARK                            x       y       z     vdW  Elec       q    Type
REMARK                         _______ _______ _______ _____ _____    ______ ____
ROOT
ATOM      1  C   UNL     1       1.237   6.119  -8.115  0.00  0.00    +0.252 C 
ATOM      2  O   UNL     1       1.597   7.473  -8.020  0.00  0.00    -0.205 OA
ENDROOT
BRANCH   1   3
ATOM      3  C   UNL     1       0.512   5.856  -9.371  0.00  0.00    +0.019 A 
ATOM      4  C   UNL     1       0.242   6.959 -10.173  0.00  0.00    -0.001 A 
ATOM      5  C   UNL     1       0.006   6.861 -11.517  0.00  0.00    -0.000 A 
ATOM      6  C   UNL     1       0.426   5.716 -12.176  0.00  0.00    -0.000 A 
ATOM      7  C   UNL     1       0.612   4.575 -11.433  0.00  0.00    -0.000 A 
ATOM      8  C   UNL     1       0.627   4.658 -10.066  0.00  0.00    -0.001 A 
ENDBRANCH   1   3
BRANCH   1   9
ATOM      9  C   UNL     1       0.318   5.834  -6.967  0.00  0.00    +0.019 A 
ATOM     10  C   UNL     1      -0.949   5.402  -7.340  0.00  0.00    -0.001 A 
ATOM     11  C   UNL     1      -2.062   5.555  -6.562  0.00  0.00    -0.000 A 
ATOM     12  C   UNL     1      -1.957   6.236  -5.370  0.00  0.00    -0.000 A 
ATOM     13  C   UNL     1      -0.819   7.013  -5.187  0.00  0.00    -0.000 A 
ATOM     14  C   UNL     1       0.349   6.661  -5.851  0.00  0.00    -0.001 A 
ENDBRANCH   1   9
BRANCH   1  15
ATOM     15  C   UNL     1       2.495   5.350  -8.025  0.00  0.00    +0.353 C 
ATOM     16  O   UNL     1       2.450   4.093  -8.208  0.00  0.00    -0.247 OA
BRANCH  15  17
ATOM     17  O   UNL     1       3.744   5.821  -8.283  0.00  0.00    -0.444 OA
BRANCH  17  21
ATOM     18  C   UNL     1       5.421   7.068 -11.926  0.00  0.00    +0.171 C 
ATOM     19  N   UNL     1       5.194   6.487 -11.548  0.00  0.00    +0.309 N 
ATOM     20  C   UNL     1       4.679   6.832 -10.222  0.00  0.00    +0.153 C 
ATOM     21  C   UNL     1       4.484   5.342  -9.542  0.00  0.00    +0.224 C 
ATOM     22  C   UNL     1       5.944   5.445  -8.782  0.00  0.00    +0.056 C 
ATOM     23  C   UNL     1       6.878   5.823  -9.926  0.00  0.00    +0.065 C 
ATOM     24  C   UNL     1       6.237   5.497 -11.271  0.00  0.00    +0.109 C 
ATOM     25  C   UNL     1       4.176   5.780 -12.324  0.00  0.00    +0.171 C 
ENDBRANCH  17  21
ENDBRANCH  15  17
ENDBRANCH   1  15
TORSDOF 5
ENDMDL
MODEL 7
REMARK VINA RESULT:      -8.1      2.455      6.439
REMARK  Name = 
REMARK  5 active torsions:
REMARK  status: ('A' for Active; 'I' for Inactive)
REMARK    1  A    between atoms: C_7  and  O_8
REMARK    2  A    between atoms: O_8  and  C_9
REMARK    3  A    between atoms: C_9  and  C_11
REMARK    4  A    between atoms: C_11  and  C_13
REMARK    5  A    between atoms: C_11  and  C_19
REMARK                            x       y       z     vdW  Elec       q    Type
REMARK                         _______ _______ _______ _____ _____    ______ ____
ROOT
ATOM      1  C   UNL     1       3.098   6.398  -6.972  0.00  0.00    +0.252 C 
ATOM      2  O   UNL     1       2.866   7.772  -7.149  0.00  0.00    -0.205 OA
ENDROOT
BRANCH   1   3
ATOM      3  C   UNL     1       3.974   6.159  -5.812  0.00  0.00    +0.019 A 
ATOM      4  C   UNL     1       4.384   7.282  -5.102  0.00  0.00    -0.001 A 
ATOM      5  C   UNL     1       4.793   7.228  -3.798  0.00  0.00    -0.000 A 
ATOM      6  C   UNL     1       4.428   6.128  -3.039  0.00  0.00    -0.000 A 
ATOM      7  C   UNL     1       4.108   4.966  -3.699  0.00  0.00    -0.000 A 
ATOM      8  C   UNL     1       3.915   4.994  -5.055  0.00  0.00    -0.001 A 
ENDBRANCH   1   3
BRANCH   1   9
ATOM      9  C   UNL     1       3.798   5.916  -8.205  0.00  0.00    +0.019 A 
ATOM     10  C   UNL     1       5.077   5.421  -7.981  0.00  0.00    -0.001 A 
ATOM     11  C   UNL     1       6.058   5.395  -8.933  0.00  0.00    -0.000 A 
ATOM     12  C   UNL     1       5.808   5.951 -10.166  0.00  0.00    -0.000 A 
ATOM     13  C   UNL     1       4.710   6.798 -10.265  0.00  0.00    -0.000 A 
ATOM     14  C   UNL     1       3.644   6.619  -9.394  0.00  0.00    -0.001 A 
ENDBRANCH   1   9
BRANCH   1  15
ATOM     15  C   UNL     1       1.769   5.774  -6.806  0.00  0.00    +0.353 C 
ATOM     16  O   UNL     1       1.715   4.544  -6.490  0.00  0.00    -0.247 OA
BRANCH  15  17
ATOM     17  O   UNL     1       0.624   6.408  -6.441  0.00  0.00    -0.444 OA
BRANCH  17  21
ATOM     18  C   UNL     1      -2.099   7.244  -3.354  0.00  0.00    +0.171 C 
ATOM     19  N   UNL     1      -1.672   6.728  -3.641  0.00  0.00    +0.309 N 
ATOM     20  C   UNL     1      -0.938   7.184  -4.824  0.00  0.00    +0.153 C 
ATOM     21  C   UNL     1      -0.278   5.774  -5.369  0.00  0.00    +0.224 C 
ATOM     22  C   UNL     1      -1.502   5.566  -6.455  0.00  0.00    +0.056 C 
ATOM     23  C   UNL     1      -2.741   5.727  -5.581  0.00  0.00    +0.065 C 
ATOM     24  C   UNL     1      -2.386   5.538  -4.110  0.00  0.00    +0.109 C 
ATOM     25  C   UNL     1      -0.743   6.253  -2.616  0.00  0.00    +0.171 C 
ENDBRANCH  17  21
ENDBRANCH  15  17
ENDBRANCH   1  15
TORSDOF 5
ENDMDL
MODEL 8
REMARK VINA RESULT:      -8.1      1.947      4.559
REMARK  Name = 
REMARK  5 active torsions:
REMARK  status: ('A' for Active; 'I' for Inactive)
REMARK    1  A    between atoms: C_7  and  O_8
REMARK    2  A    between atoms: O_8  and  C_9
REMARK    3  A    between atoms: C_9  and  C_11
REMARK    4  A    between atoms: C_11  and  C_13
REMARK    5  A    between atoms: C_11  and  C_19
REMARK                            x       y       z     vdW  Elec       q    Type
REMARK                         _______ _______ _______ _____ _____    ______ ____
ROOT
ATOM      1  C   UNL     1       1.935   5.962  -6.450  0.00  0.00    +0.252 C 
ATOM      2  O   UNL     1       1.835   7.275  -6.939  0.00  0.00    -0.205 OA
ENDROOT
BRANCH   1   3
ATOM      3  C   UNL     1       0.607   5.433  -6.092  0.00  0.00    +0.019 A 
ATOM      4  C   UNL     1       0.197   5.622  -4.777  0.00  0.00    -0.001 A 
ATOM      5  C   UNL     1      -1.118   5.615  -4.400  0.00  0.00    -0.000 A 
ATOM      6  C   UNL     1      -2.082   5.819  -5.374  0.00  0.00    -0.000 A 
ATOM      7  C   UNL     1      -1.747   5.550  -6.680  0.00  0.00    -0.000 A 
ATOM      8  C   UNL     1      -0.435   5.340  -7.008  0.00  0.00    -0.001 A 
ENDBRANCH   1   3
BRANCH   1   9
ATOM      9  C   UNL     1       2.772   6.025  -5.210  0.00  0.00    +0.019 A 
ATOM     10  C   UNL     1       3.486   7.208  -5.060  0.00  0.00    -0.001 A 
ATOM     11  C   UNL     1       4.639   7.311  -4.334  0.00  0.00    -0.000 A 
ATOM     12  C   UNL     1       5.180   6.177  -3.772  0.00  0.00    -0.000 A 
ATOM     13  C   UNL     1       4.718   4.956  -4.250  0.00  0.00    -0.000 A 
ATOM     14  C   UNL     1       3.437   4.883  -4.780  0.00  0.00    -0.001 A 
ENDBRANCH   1   9
BRANCH   1  15
ATOM     15  C   UNL     1       2.582   5.173  -7.519  0.00  0.00    +0.353 C 
ATOM     16  O   UNL     1       2.272   3.945  -7.633  0.00  0.00    -0.247 OA
BRANCH  15  17
ATOM     17  O   UNL     1       3.056   5.654  -8.698  0.00  0.00    -0.444 OA
BRANCH  17  21
ATOM     18  C   UNL     1       0.115   6.380 -11.607  0.00  0.00    +0.171 C 
ATOM     19  N   UNL     1       0.576   5.880 -11.346  0.00  0.00    +0.309 N 
ATOM     20  C   UNL     1       1.370   6.368 -10.215  0.00  0.00    +0.153 C 
ATOM     21  C   UNL     1       2.454   5.141 -10.016  0.00  0.00    +0.224 C 
ATOM     22  C   UNL     1       3.593   5.940 -10.902  0.00  0.00    +0.056 C 
ATOM     23  C   UNL     1       2.825   6.296 -12.170  0.00  0.00    +0.065 C 
ATOM     24  C   UNL     1       1.583   5.422 -12.307  0.00  0.00    +0.109 C 
ATOM     25  C   UNL     1      -0.177   4.686 -10.964  0.00  0.00    +0.171 C 
ENDBRANCH  17  21
ENDBRANCH  15  17
ENDBRANCH   1  15
TORSDOF 5
ENDMDL
MODEL 9
REMARK VINA RESULT:      -7.9      2.472      6.428
REMARK  Name = 
REMARK  5 active torsions:
REMARK  status: ('A' for Active; 'I' for Inactive)
REMARK    1  A    between atoms: C_7  and  O_8
REMARK    2  A    between atoms: O_8  and  C_9
REMARK    3  A    between atoms: C_9  and  C_11
REMARK    4  A    between atoms: C_11  and  C_13
REMARK    5  A    between atoms: C_11  and  C_19
REMARK                            x       y       z     vdW  Elec       q    Type
REMARK                         _______ _______ _______ _____ _____    ______ ____
ROOT
ATOM      1  C   UNL     1       3.130   5.960  -7.300  0.00  0.00    +0.252 C 
ATOM      2  O   UNL     1       2.647   4.642  -7.338  0.00  0.00    -0.205 OA
ENDROOT
BRANCH   1   3
ATOM      3  C   UNL     1       3.884   6.278  -8.526  0.00  0.00    +0.019 A 
ATOM      4  C   UNL     1       5.217   5.883  -8.555  0.00  0.00    -0.001 A 
ATOM      5  C   UNL     1       5.909   5.685  -9.718  0.00  0.00    -0.000 A 
ATOM      6  C   UNL     1       5.188   5.485 -10.885  0.00  0.00    -0.000 A 
ATOM      7  C   UNL     1       3.895   5.947 -10.933  0.00  0.00    -0.000 A 
ATOM      8  C   UNL     1       3.283   6.353  -9.777  0.00  0.00    -0.001 A 
ENDBRANCH   1   3
BRANCH   1   9
ATOM      9  C   UNL     1       4.063   6.046  -6.133  0.00  0.00    +0.019 A 
ATOM     10  C   UNL     1       4.156   4.878  -5.386  0.00  0.00    -0.001 A 
ATOM     11  C   UNL     1       4.515   4.847  -4.067  0.00  0.00    -0.000 A 
ATOM     12  C   UNL     1       4.730   6.033  -3.404  0.00  0.00    -0.000 A 
ATOM     13  C   UNL     1       4.248   7.189  -4.008  0.00  0.00    -0.000 A 
ATOM     14  C   UNL     1       4.117   7.220  -5.390  0.00  0.00    -0.001 A 
ENDBRANCH   1   9
BRANCH   1  15
ATOM     15  C   UNL     1       1.946   6.828  -7.132  0.00  0.00    +0.353 C 
ATOM     16  O   UNL     1       1.844   7.859  -7.868  0.00  0.00    -0.247 OA
BRANCH  15  17
ATOM     17  O   UNL     1       0.721   6.439  -6.690  0.00  0.00    -0.444 OA
BRANCH  17  21
ATOM     18  C   UNL     1      -2.635   6.725  -4.181  0.00  0.00    +0.171 C 
ATOM     19  N   UNL     1      -1.957   6.968  -4.290  0.00  0.00    +0.309 N 
ATOM     20  C   UNL     1      -1.320   6.380  -5.471  0.00  0.00    +0.153 C 
ATOM     21  C   UNL     1       0.232   6.917  -5.313  0.00  0.00    +0.224 C 
ATOM     22  C   UNL     1       0.699   5.503  -4.604  0.00  0.00    +0.056 C 
ATOM     23  C   UNL     1      -0.337   5.337  -3.498  0.00  0.00    +0.065 C 
ATOM     24  C   UNL     1      -1.022   6.668  -3.203  0.00  0.00    +0.109 C 
ATOM     25  C   UNL     1      -1.983   8.426  -4.397  0.00  0.00    +0.171 C 
ENDBRANCH  17  21
ENDBRANCH  15  17
ENDBRANCH   1  15
TORSDOF 5
ENDMDL
