MODEL 1
REMARK VINA RESULT:      -6.6      0.000      0.000
REMARK  Name = 
REMARK  6 active torsions:
REMARK  status: ('A' for Active; 'I' for Inactive)
REMARK    1  A    between atoms: C_2  and  N_5
REMARK    2  A    between atoms: N_5  and  C_6
REMARK    3  A    between atoms: C_6  and  C_7
REMARK    4  A    between atoms: C_7  and  C_9
REMARK    5  A    between atoms: C_9  and  O_10
REMARK    6  A    between atoms: O_10  and  C_11
REMARK                            x       y       z     vdW  Elec       q    Type
REMARK                         _______ _______ _______ _____ _____    ______ ____
ROOT
ATOM      1  C   UNL     1       1.700   6.243  -1.531  0.00  0.00    +0.266 A 
ATOM      2  C   UNL     1       2.716   6.470  -2.452  0.00  0.00    +0.195 A 
ATOM      3  N   UNL     1       2.701   6.027  -3.816  0.00  0.00    -0.284 N 
ATOM      4  C   UNL     1       3.391   4.796  -4.200  0.00  0.00    +0.124 C 
ATOM      5  C   UNL     1       4.550   5.249  -5.080  0.00  0.00    +0.164 C 
ATOM      6  O   UNL     1       4.003   5.761  -6.262  0.00  0.00    -0.350 OA
ATOM      7  C   UNL     1       3.445   6.989  -5.959  0.00  0.00    +0.164 C 
ATOM      8  C   UNL     1       2.383   6.931  -4.900  0.00  0.00    +0.124 C 
ATOM      9  N   UNL     1       3.600   7.377  -1.959  0.00  0.00    -0.172 NA
ATOM     10  S   UNL     1       3.592   6.983  -0.307  0.00  0.00    +0.121 S 
ATOM     11  N   UNL     1       2.281   5.904  -0.353  0.00  0.00    -0.153 NA
ENDROOT
BRANCH   1  12
ATOM     12  O   UNL     1       0.363   6.322  -1.890  0.00  0.00    -0.455 OA
BRANCH  12  13
ATOM     13  C   UNL     1      -0.532   5.380  -2.191  0.00  0.00    +0.241 C 
BRANCH  13  14
ATOM     14  C   UNL     1      -2.032   5.697  -1.590  0.00  0.00    +0.213 C 
ATOM     15  O   UNL     1      -2.754   4.712  -2.498  0.00  0.00    -0.218 OA
BRANCH  14  16
ATOM     16  C   UNL     1      -2.250   6.926  -2.671  0.00  0.00    +0.125 C 
BRANCH  16  17
ATOM     17  N   UNL     1      -2.876   6.365  -3.813  0.00  0.00    -0.218 NA
BRANCH  17  19
ATOM     18  C   UNL     1      -2.714   7.135  -5.131  0.00  0.00    +0.017 C 
ATOM     19  C   UNL     1      -2.365   6.959  -5.038  0.00  0.00    +0.060 C 
ATOM     20  C   UNL     1      -1.886   5.887  -6.021  0.00  0.00    +0.017 C 
ATOM     21  C   UNL     1      -1.199   7.906  -4.794  0.00  0.00    +0.017 C 
ENDBRANCH  17  19
ENDBRANCH  16  17
ENDBRANCH  14  16
ENDBRANCH  13  14
ENDBRANCH  12  13
ENDBRANCH   1  12
TORSDOF 6
ENDMDL
MODEL 2
REMARK VINA RESULT:      -6.6      3.396      5.800
REMARK  Name = 
REMARK  6 active torsions:
REMARK  status: ('A' for Active; 'I' for Inactive)
REMARK    1  A    between atoms: C_2  and  N_5
REMARK    2  A    between atoms: N_5  and  C_6
REMARK    3  A    between atoms: C_6  and  C_7
REMARK    4  A    between atoms: C_7  and  C_9
REMARK    5  A    between atoms: C_9  and  O_10
REMARK    6  A    between atoms: O_10  and  C_11
REMARK                            x       y       z     vdW  Elec       q    Type
REMARK                         _______ _______ _______ _____ _____    ______ ____
ROOT
ATOM      1  C   UNL     1       2.352   6.868  -4.722  0.00  0.00    +0.266 A 
ATOM      2  C   UNL     1       1.074   6.340  -4.584  0.00  0.00    +0.195 A 
ATOM      3  N   UNL     1      -0.058   6.708  -5.385  0.00  0.00    -0.284 N 
ATOM      4  C   UNL     1      -1.019   7.694  -4.896  0.00  0.00    +0.124 C 
ATOM      5  C   UNL     1      -2.306   6.913  -4.663  0.00  0.00    +0.164 C 
ATOM      6  O   UNL     1      -2.783   6.508  -5.915  0.00  0.00    -0.350 OA
ATOM      7  C   UNL     1      -1.964   5.486  -6.356  0.00  0.00    +0.164 C 
ATOM      8  C   UNL     1      -0.517   5.870  -6.471  0.00  0.00    +0.124 C 
ATOM      9  N   UNL     1       1.103   5.256  -3.764  0.00  0.00    -0.172 NA
ATOM     10  S   UNL     1       2.300   5.715  -2.651  0.00  0.00    +0.121 S 
ATOM     11  N   UNL     1       2.840   7.097  -3.477  0.00  0.00    -0.153 NA
ENDROOT
BRANCH   1  12
ATOM     12  O   UNL     1       2.900   7.127  -5.970  0.00  0.00    -0.455 OA
BRANCH  12  13
ATOM     13  C   UNL     1       3.096   6.346  -7.032  0.00  0.00    +0.241 C 
BRANCH  13  14
ATOM     14  C   UNL     1       3.017   7.163  -8.459  0.00  0.00    +0.213 C 
ATOM     15  O   UNL     1       2.083   8.249  -7.943  0.00  0.00    -0.218 OA
BRANCH  14  16
ATOM     16  C   UNL     1       1.743   6.241  -8.964  0.00  0.00    +0.125 C 
BRANCH  16  17
ATOM     17  N   UNL     1       1.516   6.561 -10.326  0.00  0.00    -0.218 NA
BRANCH  17  19
ATOM     18  C   UNL     1       0.012   6.256 -10.331  0.00  0.00    +0.017 C 
ATOM     19  C   UNL     1       0.141   6.284 -10.710  0.00  0.00    +0.060 C 
ATOM     20  C   UNL     1       0.040   4.998 -11.536  0.00  0.00    +0.017 C 
ATOM     21  C   UNL     1      -0.478   7.403 -11.535  0.00  0.00    +0.017 C 
ENDBRANCH  17  19
ENDBRANCH  16  17
ENDBRANCH  14  16
ENDBRANCH  13  14
ENDBRANCH  12  13
ENDBRANCH   1  12
TORSDOF 6
ENDMDL
MODEL 3
REMARK VINA RESULT:      -6.5      6.339      9.799
REMARK  Name = 
REMARK  6 active torsions:
REMARK  status: ('A' for Active; 'I' for Inactive)
REMARK    1  A    between atoms: C_2  and  N_5
REMARK    2  A    between atoms: N_5  and  C_6
REMARK    3  A    between atoms: C_6  and  C_7
REMARK    4  A    between atoms: C_7  and  C_9
REMARK    5  A    between atoms: C_9  and  O_10
REMARK    6  A    between atoms: O_10  and  C_11
REMARK                            x       y       z     vdW  Elec       q    Type
REMARK                         _______ _______ _______ _____ _____    ______ ____
ROOT
ATOM      1  C   UNL     1       1.967   5.974 -11.510  0.00  0.00    +0.266 A 
ATOM      2  C   UNL     1       1.795   5.975 -10.130  0.00  0.00    +0.195 A 
ATOM      3  N   UNL     1       2.721   5.419  -9.187  0.00  0.00    -0.284 N 
ATOM      4  C   UNL     1       2.511   4.076  -8.650  0.00  0.00    +0.124 C 
ATOM      5  C   UNL     1       2.194   4.284  -7.174  0.00  0.00    +0.164 C 
ATOM      6  O   UNL     1       3.358   4.760  -6.558  0.00  0.00    -0.350 OA
ATOM      7  C   UNL     1       3.521   6.075  -6.951  0.00  0.00    +0.164 C 
ATOM      8  C   UNL     1       3.630   6.259  -8.437  0.00  0.00    +0.124 C 
ATOM      9  N   UNL     1       0.763   6.791  -9.789  0.00  0.00    -0.172 NA
ATOM     10  S   UNL     1      -0.296   6.550 -11.094  0.00  0.00    +0.121 S 
ATOM     11  N   UNL     1       0.772   5.663 -12.073  0.00  0.00    -0.153 NA
ENDROOT
BRANCH   1  12
ATOM     12  O   UNL     1       3.206   6.204 -12.087  0.00  0.00    -0.455 OA
BRANCH  12  13
ATOM     13  C   UNL     1       3.796   5.679 -13.162  0.00  0.00    +0.241 C 
BRANCH  13  14
ATOM     14  C   UNL     1       5.368   6.139 -13.327  0.00  0.00    +0.213 C 
ATOM     15  O   UNL     1       5.889   4.740 -13.623  0.00  0.00    -0.218 OA
BRANCH  14  16
ATOM     16  C   UNL     1       5.636   5.947 -11.708  0.00  0.00    +0.125 C 
BRANCH  16  17
ATOM     17  N   UNL     1       6.393   7.067 -11.280  0.00  0.00    -0.218 NA
BRANCH  17  19
ATOM     18  C   UNL     1       7.726   7.026 -10.519  0.00  0.00    +0.017 C 
ATOM     19  C   UNL     1       7.613   6.651 -10.607  0.00  0.00    +0.060 C 
ATOM     20  C   UNL     1       8.546   5.894 -11.557  0.00  0.00    +0.017 C 
ATOM     21  C   UNL     1       7.349   5.747  -9.412  0.00  0.00    +0.017 C 
ENDBRANCH  17  19
ENDBRANCH  16  17
ENDBRANCH  14  16
ENDBRANCH  13  14
ENDBRANCH  12  13
ENDBRANCH   1  12
TORSDOF 6
ENDMDL
MODEL 4
REMARK VINA RESULT:      -6.5      2.424      3.053
REMARK  Name = 
REMARK  6 active torsions:
REMARK  status: ('A' for Active; 'I' for Inactive)
REMARK    1  A    between atoms: C_2  and  N_5
REMARK    2  A    between atoms: N_5  and  C_6
REMARK    3  A    between atoms: C_6  and  C_7
REMARK    4  A    between atoms: C_7  and  C_9
REMARK    5  A    between atoms: C_9  and  O_10
REMARK    6  A    between atoms: O_10  and  C_11
REMARK                            x       y       z     vdW  Elec       q    Type
REMARK                         _______ _______ _______ _____ _____    ______ ____
ROOT
ATOM      1  C   UNL     1       2.985   5.812  -4.064  0.00  0.00    +0.266 A 
ATOM      2  C   UNL     1       2.899   6.080  -5.425  0.00  0.00    +0.195 A 
ATOM      3  N   UNL     1       2.092   5.345  -6.357  0.00  0.00    -0.284 N 
ATOM      4  C   UNL     1       2.685   4.286  -7.172  0.00  0.00    +0.124 C 
ATOM      5  C   UNL     1       2.638   4.812  -8.601  0.00  0.00    +0.164 C 
ATOM      6  O   UNL     1       1.292   4.874  -8.981  0.00  0.00    -0.350 OA
ATOM      7  C   UNL     1       0.727   5.947  -8.317  0.00  0.00    +0.164 C 
ATOM      8  C   UNL     1       0.822   5.857  -6.821  0.00  0.00    +0.124 C 
ATOM      9  N   UNL     1       3.480   7.276  -5.704  0.00  0.00    -0.172 NA
ATOM     10  S   UNL     1       4.765   7.286  -4.594  0.00  0.00    +0.121 S 
ATOM     11  N   UNL     1       4.289   5.920  -3.705  0.00  0.00    -0.153 NA
ENDROOT
BRANCH   1  12
ATOM     12  O   UNL     1       1.870   5.449  -3.323  0.00  0.00    -0.455 OA
BRANCH  12  13
ATOM     13  C   UNL     1       0.799   6.142  -2.934  0.00  0.00    +0.241 C 
BRANCH  13  14
ATOM     14  C   UNL     1       0.401   5.887  -1.357  0.00  0.00    +0.213 C 
ATOM     15  O   UNL     1       0.276   4.376  -1.491  0.00  0.00    -0.218 OA
BRANCH  14  16
ATOM     16  C   UNL     1      -1.204   6.097  -1.686  0.00  0.00    +0.125 C 
BRANCH  16  17
ATOM     17  N   UNL     1      -1.573   5.082  -2.605  0.00  0.00    -0.218 NA
BRANCH  17  19
ATOM     18  C   UNL     1      -2.949   5.065  -3.285  0.00  0.00    +0.017 C 
ATOM     19  C   UNL     1      -2.792   5.434  -3.315  0.00  0.00    +0.060 C 
ATOM     20  C   UNL     1      -2.493   5.903  -4.742  0.00  0.00    +0.017 C 
ATOM     21  C   UNL     1      -3.577   6.541  -2.628  0.00  0.00    +0.017 C 
ENDBRANCH  17  19
ENDBRANCH  16  17
ENDBRANCH  14  16
ENDBRANCH  13  14
ENDBRANCH  12  13
ENDBRANCH   1  12
TORSDOF 6
ENDMDL
MODEL 5
REMARK VINA RESULT:      -6.3      4.348      7.795
REMARK  Name = 
REMARK  6 active torsions:
REMARK  status: ('A' for Active; 'I' for Inactive)
REMARK    1  A    between atoms: C_2  and  N_5
REMARK    2  A    between atoms: N_5  and  C_6
REMARK    3  A    between atoms: C_6  and  C_7
REMARK    4  A    between atoms: C_7  and  C_9
REMARK    5  A    between atoms: C_9  and  O_10
REMARK    6  A    between atoms: O_10  and  C_11
REMARK                            x       y       z     vdW  Elec       q    Type
REMARK                         _______ _______ _______ _____ _____    ______ ____
ROOT
ATOM      1  C   UNL     1       2.238   5.893  -7.186  0.00  0.00    +0.266 A 
ATOM      2  C   UNL     1       2.222   6.038  -5.804  0.00  0.00    +0.195 A 
ATOM      3  N   UNL     1       3.388   6.095  -4.970  0.00  0.00    -0.284 N 
ATOM      4  C   UNL     1       3.860   4.896  -4.278  0.00  0.00    +0.124 C 
ATOM      5  C   UNL     1       3.631   5.177  -2.798  0.00  0.00    +0.164 C 
ATOM      6  O   UNL     1       4.511   6.201  -2.425  0.00  0.00    -0.350 OA
ATOM      7  C   UNL     1       4.025   7.377  -2.966  0.00  0.00    +0.164 C 
ATOM      8  C   UNL     1       3.891   7.352  -4.461  0.00  0.00    +0.124 C 
ATOM      9  N   UNL     1       0.973   6.370  -5.384  0.00  0.00    -0.172 NA
ATOM     10  S   UNL     1       0.012   5.491  -6.473  0.00  0.00    +0.121 S 
ATOM     11  N   UNL     1       1.262   5.011  -7.518  0.00  0.00    -0.153 NA
ENDROOT
BRANCH   1  12
ATOM     12  O   UNL     1       3.177   6.542  -7.974  0.00  0.00    -0.455 OA
BRANCH  12  13
ATOM     13  C   UNL     1       3.572   6.340  -9.232  0.00  0.00    +0.241 C 
BRANCH  13  14
ATOM     14  C   UNL     1       4.396   4.928  -9.432  0.00  0.00    +0.213 C 
ATOM     15  O   UNL     1       5.415   5.210  -8.337  0.00  0.00    -0.218 OA
BRANCH  14  16
ATOM     16  C   UNL     1       5.368   5.611 -10.579  0.00  0.00    +0.125 C 
BRANCH  16  17
ATOM     17  N   UNL     1       6.591   5.939  -9.941  0.00  0.00    -0.218 NA
BRANCH  17  19
ATOM     18  C   UNL     1       7.592   6.995 -10.430  0.00  0.00    +0.017 C 
ATOM     19  C   UNL     1       7.368   6.873 -10.740  0.00  0.00    +0.060 C 
ATOM     20  C   UNL     1       6.475   7.948 -11.368  0.00  0.00    +0.017 C 
ATOM     21  C   UNL     1       8.126   6.194 -11.871  0.00  0.00    +0.017 C 
ENDBRANCH  17  19
ENDBRANCH  16  17
ENDBRANCH  14  16
ENDBRANCH  13  14
ENDBRANCH  12  13
ENDBRANCH   1  12
TORSDOF 6
ENDMDL
MODEL 6
REMARK VINA RESULT:      -6.3      5.475      8.837
REMARK  Name = 
REMARK  6 active torsions:
REMARK  status: ('A' for Active; 'I' for Inactive)
REMARK    1  A    between atoms: C_2  and  N_5
REMARK    2  A    between atoms: N_5  and  C_6
REMARK    3  A    between atoms: C_6  and  C_7
REMARK    4  A    between atoms: C_7  and  C_9
REMARK    5  A    between atoms: C_9  and  O_10
REMARK    6  A    between atoms: O_10  and  C_11
REMARK                            x       y       z     vdW  Elec       q    Type
REMARK                         _______ _______ _______ _____ _____    ______ ____
ROOT
ATOM      1  C   UNL     1       2.151   4.763  -9.348  0.00  0.00    +0.266 A 
ATOM      2  C   UNL     1       1.676   5.378  -8.195  0.00  0.00    +0.195 A 
ATOM      3  N   UNL     1       2.166   5.130  -6.870  0.00  0.00    -0.284 N 
ATOM      4  C   UNL     1       1.468   4.196  -5.987  0.00  0.00    +0.124 C 
ATOM      5  C   UNL     1       0.893   5.060  -4.872  0.00  0.00    +0.164 C 
ATOM      6  O   UNL     1       1.971   5.553  -4.126  0.00  0.00    -0.350 OA
ATOM      7  C   UNL     1       2.584   6.530  -4.887  0.00  0.00    +0.164 C 
ATOM      8  C   UNL     1       3.077   6.045  -6.219  0.00  0.00    +0.124 C 
ATOM      9  N   UNL     1       0.867   6.420  -8.521  0.00  0.00    -0.172 NA
ATOM     10  S   UNL     1       0.111   5.826  -9.922  0.00  0.00    +0.121 S 
ATOM     11  N   UNL     1       1.079   4.445 -10.116  0.00  0.00    -0.153 NA
ENDROOT
BRANCH   1  12
ATOM     12  O   UNL     1       3.503   4.518  -9.535  0.00  0.00    -0.455 OA
BRANCH  12  13
ATOM     13  C   UNL     1       4.401   5.074 -10.350  0.00  0.00    +0.241 C 
BRANCH  13  14
ATOM     14  C   UNL     1       3.851   6.442 -11.082  0.00  0.00    +0.213 C 
ATOM     15  O   UNL     1       4.237   6.009 -12.489  0.00  0.00    -0.218 OA
BRANCH  14  16
ATOM     16  C   UNL     1       5.305   7.194 -10.863  0.00  0.00    +0.125 C 
BRANCH  16  17
ATOM     17  N   UNL     1       6.231   6.559 -11.728  0.00  0.00    -0.218 NA
BRANCH  17  19
ATOM     18  C   UNL     1       7.618   7.027 -11.265  0.00  0.00    +0.017 C 
ATOM     19  C   UNL     1       7.583   6.633 -11.197  0.00  0.00    +0.060 C 
ATOM     20  C   UNL     1       8.545   5.741 -11.988  0.00  0.00    +0.017 C 
ATOM     21  C   UNL     1       7.668   6.210  -9.737  0.00  0.00    +0.017 C 
ENDBRANCH  17  19
ENDBRANCH  16  17
ENDBRANCH  14  16
ENDBRANCH  13  14
ENDBRANCH  12  13
ENDBRANCH   1  12
TORSDOF 6
ENDMDL
MODEL 7
REMARK VINA RESULT:      -6.2      4.101      7.783
REMARK  Name = 
REMARK  6 active torsions:
REMARK  status: ('A' for Active; 'I' for Inactive)
REMARK    1  A    between atoms: C_2  and  N_5
REMARK    2  A    between atoms: N_5  and  C_6
REMARK    3  A    between atoms: C_6  and  C_7
REMARK    4  A    between atoms: C_7  and  C_9
REMARK    5  A    between atoms: C_9  and  O_10
REMARK    6  A    between atoms: O_10  and  C_11
REMARK                            x       y       z     vdW  Elec       q    Type
REMARK                         _______ _______ _______ _____ _____    ______ ____
ROOT
ATOM      1  C   UNL     1       2.979   6.474  -6.467  0.00  0.00    +0.266 A 
ATOM      2  C   UNL     1       1.843   5.824  -5.999  0.00  0.00    +0.195 A 
ATOM      3  N   UNL     1       0.496   6.260  -6.227  0.00  0.00    -0.284 N 
ATOM      4  C   UNL     1      -0.211   7.036  -5.210  0.00  0.00    +0.124 C 
ATOM      5  C   UNL     1      -1.321   6.119  -4.711  0.00  0.00    +0.164 C 
ATOM      6  O   UNL     1      -2.232   5.954  -5.762  0.00  0.00    -0.350 OA
ATOM      7  C   UNL     1      -1.639   5.121  -6.692  0.00  0.00    +0.164 C 
ATOM      8  C   UNL     1      -0.338   5.639  -7.234  0.00  0.00    +0.124 C 
ATOM      9  N   UNL     1       2.172   4.596  -5.519  0.00  0.00    -0.172 NA
ATOM     10  S   UNL     1       3.699   4.903  -4.843  0.00  0.00    +0.121 S 
ATOM     11  N   UNL     1       3.897   6.470  -5.467  0.00  0.00    -0.153 NA
ENDROOT
BRANCH   1  12
ATOM     12  O   UNL     1       3.024   7.039  -7.733  0.00  0.00    -0.455 OA
BRANCH  12  13
ATOM     13  C   UNL     1       3.723   6.721  -8.823  0.00  0.00    +0.241 C 
BRANCH  13  14
ATOM     14  C   UNL     1       4.086   5.117  -8.913  0.00  0.00    +0.213 C 
ATOM     15  O   UNL     1       5.448   5.248  -8.247  0.00  0.00    -0.218 OA
BRANCH  14  16
ATOM     16  C   UNL     1       4.749   5.309 -10.414  0.00  0.00    +0.125 C 
BRANCH  16  17
ATOM     17  N   UNL     1       6.062   5.809 -10.224  0.00  0.00    -0.218 NA
BRANCH  17  19
ATOM     18  C   UNL     1       6.297   6.277 -11.667  0.00  0.00    +0.017 C 
ATOM     19  C   UNL     1       6.553   6.467 -11.424  0.00  0.00    +0.060 C 
ATOM     20  C   UNL     1       8.034   6.160 -11.663  0.00  0.00    +0.017 C 
ATOM     21  C   UNL     1       6.407   7.981 -11.369  0.00  0.00    +0.017 C 
ENDBRANCH  17  19
ENDBRANCH  16  17
ENDBRANCH  14  16
ENDBRANCH  13  14
ENDBRANCH  12  13
ENDBRANCH   1  12
TORSDOF 6
ENDMDL
MODEL 8
REMARK VINA RESULT:      -6.2      3.320      4.746
REMARK  Name = 
REMARK  6 active torsions:
REMARK  status: ('A' for Active; 'I' for Inactive)
REMARK    1  A    between atoms: C_2  and  N_5
REMARK    2  A    between atoms: N_5  and  C_6
REMARK    3  A    between atoms: C_6  and  C_7
REMARK    4  A    between atoms: C_7  and  C_9
REMARK    5  A    between atoms: C_9  and  O_10
REMARK    6  A    between atoms: O_10  and  C_11
REMARK                            x       y       z     vdW  Elec       q    Type
REMARK                         _______ _______ _______ _____ _____    ______ ____
ROOT
ATOM      1  C   UNL     1       2.734   5.703  -8.281  0.00  0.00    +0.266 A 
ATOM      2  C   UNL     1       3.751   5.684  -7.334  0.00  0.00    +0.195 A 
ATOM      3  N   UNL     1       3.566   5.881  -5.925  0.00  0.00    -0.284 N 
ATOM      4  C   UNL     1       3.795   7.194  -5.326  0.00  0.00    +0.124 C 
ATOM      5  C   UNL     1       5.024   7.018  -4.442  0.00  0.00    +0.164 C 
ATOM      6  O   UNL     1       4.661   6.178  -3.383  0.00  0.00    -0.350 OA
ATOM      7  C   UNL     1       4.553   4.898  -3.893  0.00  0.00    +0.164 C 
ATOM      8  C   UNL     1       3.551   4.766  -5.003  0.00  0.00    +0.124 C 
ATOM      9  N   UNL     1       4.896   5.207  -7.888  0.00  0.00    -0.172 NA
ATOM     10  S   UNL     1       4.785   5.827  -9.465  0.00  0.00    +0.121 S 
ATOM     11  N   UNL     1       3.188   6.393  -9.358  0.00  0.00    -0.153 NA
ENDROOT
BRANCH   1  12
ATOM     12  O   UNL     1       1.495   5.135  -8.028  0.00  0.00    -0.455 OA
BRANCH  12  13
ATOM     13  C   UNL     1       0.328   5.672  -7.671  0.00  0.00    +0.241 C 
BRANCH  13  14
ATOM     14  C   UNL     1      -0.324   4.971  -6.331  0.00  0.00    +0.213 C 
ATOM     15  O   UNL     1      -1.769   5.234  -6.730  0.00  0.00    -0.218 OA
BRANCH  14  16
ATOM     16  C   UNL     1      -0.245   6.394  -5.497  0.00  0.00    +0.125 C 
BRANCH  16  17
ATOM     17  N   UNL     1      -0.567   6.100  -4.148  0.00  0.00    -0.218 NA
BRANCH  17  19
ATOM     18  C   UNL     1      -1.463   7.033  -3.322  0.00  0.00    +0.017 C 
ATOM     19  C   UNL     1      -1.647   6.947  -3.668  0.00  0.00    +0.060 C 
ATOM     20  C   UNL     1      -2.957   6.163  -3.538  0.00  0.00    +0.017 C 
ATOM     21  C   UNL     1      -1.917   8.134  -4.581  0.00  0.00    +0.017 C 
ENDBRANCH  17  19
ENDBRANCH  16  17
ENDBRANCH  14  16
ENDBRANCH  13  14
ENDBRANCH  12  13
ENDBRANCH   1  12
TORSDOF 6
ENDMDL
MODEL 9
REMARK VINA RESULT:      -6.1      7.970     11.284
REMARK  Name = 
REMARK  6 active torsions:
REMARK  status: ('A' for Active; 'I' for Inactive)
REMARK    1  A    between atoms: C_2  and  N_5
REMARK    2  A    between atoms: N_5  and  C_6
REMARK    3  A    between atoms: C_6  and  C_7
REMARK    4  A    between atoms: C_7  and  C_9
REMARK    5  A    between atoms: C_9  and  O_10
REMARK    6  A    between atoms: O_10  and  C_11
REMARK                            x       y       z     vdW  Elec       q    Type
REMARK                         _______ _______ _______ _____ _____    ______ ____
ROOT
ATOM      1  C   UNL     1       2.002   6.012 -14.358  0.00  0.00    +0.266 A 
ATOM      2  C   UNL     1       1.413   6.395 -13.158  0.00  0.00    +0.195 A 
ATOM      3  N   UNL     1       1.637   5.756 -11.893  0.00  0.00    -0.284 N 
ATOM      4  C   UNL     1       0.693   4.759 -11.392  0.00  0.00    +0.124 C 
ATOM      5  C   UNL     1       0.042   5.404 -10.175  0.00  0.00    +0.164 C 
ATOM      6  O   UNL     1       1.028   5.522  -9.187  0.00  0.00    -0.350 OA
ATOM      7  C   UNL     1       1.874   6.546  -9.572  0.00  0.00    +0.164 C 
ATOM      8  C   UNL     1       2.526   6.328 -10.906  0.00  0.00    +0.124 C 
ATOM      9  N   UNL     1       0.802   7.599 -13.301  0.00  0.00    -0.172 NA
ATOM     10  S   UNL     1       0.231   7.493 -14.897  0.00  0.00    +0.121 S 
ATOM     11  N   UNL     1       1.047   6.066 -15.320  0.00  0.00    -0.153 NA
ENDROOT
BRANCH   1  12
ATOM     12  O   UNL     1       3.327   5.608 -14.420  0.00  0.00    -0.455 OA
BRANCH  12  13
ATOM     13  C   UNL     1       4.465   6.302 -14.457  0.00  0.00    +0.241 C 
BRANCH  13  14
ATOM     14  C   UNL     1       5.777   5.418 -14.000  0.00  0.00    +0.213 C 
ATOM     15  O   UNL     1       5.112   4.811 -12.773  0.00  0.00    -0.218 OA
BRANCH  14  16
ATOM     16  C   UNL     1       6.371   6.678 -13.114  0.00  0.00    +0.125 C 
BRANCH  16  17
ATOM     17  N   UNL     1       6.174   6.351 -11.749  0.00  0.00    -0.218 NA
BRANCH  17  19
ATOM     18  C   UNL     1       7.379   6.904 -10.974  0.00  0.00    +0.017 C 
ATOM     19  C   UNL     1       7.405   6.504 -10.989  0.00  0.00    +0.060 C 
ATOM     20  C   UNL     1       8.609   5.952 -11.757  0.00  0.00    +0.017 C 
ATOM     21  C   UNL     1       7.360   5.794  -9.644  0.00  0.00    +0.017 C 
ENDBRANCH  17  19
ENDBRANCH  16  17
ENDBRANCH  14  16
ENDBRANCH  13  14
ENDBRANCH  12  13
ENDBRANCH   1  12
TORSDOF 6
ENDMDL
