MODEL 1
REMARK VINA RESULT:      -7.9      0.000      0.000
REMARK  Name = 
REMARK  1 active torsions:
REMARK  status: ('A' for Active; 'I' for Inactive)
REMARK    1  A    between atoms: N_10  and  C_11
REMARK                            x       y       z     vdW  Elec       q    Type
REMARK                         _______ _______ _______ _____ _____    ______ ____
ROOT
ATOM      1  N   UNL     1       0.050   5.577  -1.123  0.00  0.00    -0.128 NA
ATOM      2  C   UNL     1      -0.910   5.760  -1.869  0.00  0.00    +0.094 A 
ATOM      3  C   UNL     1      -0.777   5.569  -3.241  0.00  0.00    +0.075 A 
ATOM      4  C   UNL     1       0.375   5.404  -4.139  0.00  0.00    +0.257 C 
ATOM      5  N   UNL     1      -0.077   5.205  -5.488  0.00  0.00    -0.216 N 
ATOM      6  C   UNL     1      -1.454   5.619  -5.419  0.00  0.00    +0.255 C 
ATOM      7  O   UNL     1      -2.188   5.938  -6.406  0.00  0.00    -0.269 OA
ATOM      8  O   UNL     1       1.511   5.796  -3.729  0.00  0.00    -0.269 OA
ATOM      9  C   UNL     1      -1.893   5.741  -4.050  0.00  0.00    +0.060 A 
ATOM     10  C   UNL     1      -3.126   6.085  -3.504  0.00  0.00    +0.005 A 
ATOM     11  C   UNL     1      -3.167   6.561  -2.199  0.00  0.00    +0.002 A 
ATOM     12  C   UNL     1      -2.100   6.297  -1.390  0.00  0.00    +0.018 A 
ENDROOT
BRANCH   5  13
ATOM     13  C   UNL     1       0.750   5.821  -6.685  0.00  0.00    +0.162 C 
ATOM     14  C   UNL     1       1.588   4.484  -7.002  0.00  0.00    +0.266 C 
ATOM     15  O   UNL     1       1.994   3.801  -6.075  0.00  0.00    -0.271 OA
ATOM     16  N   UNL     1       2.329   4.705  -8.212  0.00  0.00    -0.143 NA
ATOM     17  C   UNL     1       1.673   5.504  -9.204  0.00  0.00    +0.248 C 
ATOM     18  O   UNL     1       2.313   6.121 -10.107  0.00  0.00    -0.273 OA
ATOM     19  C   UNL     1       0.206   5.750  -9.146  0.00  0.00    +0.089 C 
ATOM     20  C   UNL     1      -0.375   5.402  -7.810  0.00  0.00    +0.039 C 
ENDBRANCH   5  13
TORSDOF 1
ENDMDL
MODEL 2
REMARK VINA RESULT:      -7.9      3.189      5.499
REMARK  Name = 
REMARK  1 active torsions:
REMARK  status: ('A' for Active; 'I' for Inactive)
REMARK    1  A    between atoms: N_10  and  C_11
REMARK                            x       y       z     vdW  Elec       q    Type
REMARK                         _______ _______ _______ _____ _____    ______ ____
ROOT
ATOM      1  N   UNL     1      -2.926   4.786  -2.740  0.00  0.00    -0.128 NA
ATOM      2  C   UNL     1      -2.232   5.329  -3.599  0.00  0.00    +0.094 A 
ATOM      3  C   UNL     1      -0.872   5.521  -3.382  0.00  0.00    +0.075 A 
ATOM      4  C   UNL     1      -0.008   5.438  -2.196  0.00  0.00    +0.257 C 
ATOM      5  N   UNL     1       1.355   5.710  -2.558  0.00  0.00    -0.216 N 
ATOM      6  C   UNL     1       1.216   6.305  -3.862  0.00  0.00    +0.255 C 
ATOM      7  O   UNL     1       2.091   7.008  -4.458  0.00  0.00    -0.269 OA
ATOM      8  O   UNL     1      -0.558   5.506  -1.053  0.00  0.00    -0.269 OA
ATOM      9  C   UNL     1      -0.110   6.098  -4.391  0.00  0.00    +0.060 A 
ATOM     10  C   UNL     1      -0.688   6.465  -5.602  0.00  0.00    +0.005 A 
ATOM     11  C   UNL     1      -2.073   6.545  -5.682  0.00  0.00    +0.002 A 
ATOM     12  C   UNL     1      -2.806   5.890  -4.735  0.00  0.00    +0.018 A 
ENDROOT
BRANCH   5  13
ATOM     13  C   UNL     1       2.284   6.503  -1.555  0.00  0.00    +0.162 C 
ATOM     14  C   UNL     1       3.021   5.201  -0.961  0.00  0.00    +0.266 C 
ATOM     15  O   UNL     1       2.368   4.191  -0.750  0.00  0.00    -0.271 OA
ATOM     16  N   UNL     1       4.091   5.648  -0.115  0.00  0.00    -0.143 NA
ATOM     17  C   UNL     1       4.767   6.836  -0.545  0.00  0.00    +0.248 C 
ATOM     18  O   UNL     1       5.418   7.571   0.256  0.00  0.00    -0.273 OA
ATOM     19  C   UNL     1       4.633   7.334  -1.941  0.00  0.00    +0.089 C 
ATOM     20  C   UNL     1       3.485   6.697  -2.663  0.00  0.00    +0.039 C 
ENDBRANCH   5  13
TORSDOF 1
ENDMDL
MODEL 3
REMARK VINA RESULT:      -7.7      7.853      9.503
REMARK  Name = 
REMARK  1 active torsions:
REMARK  status: ('A' for Active; 'I' for Inactive)
REMARK    1  A    between atoms: N_10  and  C_11
REMARK                            x       y       z     vdW  Elec       q    Type
REMARK                         _______ _______ _______ _____ _____    ______ ____
ROOT
ATOM      1  N   UNL     1       8.138   4.828 -12.736  0.00  0.00    -0.128 NA
ATOM      2  C   UNL     1       7.429   5.202 -11.804  0.00  0.00    +0.094 A 
ATOM      3  C   UNL     1       6.055   5.332 -11.978  0.00  0.00    +0.075 A 
ATOM      4  C   UNL     1       5.175   5.355 -13.155  0.00  0.00    +0.257 C 
ATOM      5  N   UNL     1       3.805   5.486 -12.745  0.00  0.00    -0.216 N 
ATOM      6  C   UNL     1       3.931   5.904 -11.373  0.00  0.00    +0.255 C 
ATOM      7  O   UNL     1       3.025   6.460 -10.676  0.00  0.00    -0.269 OA
ATOM      8  O   UNL     1       5.697   5.615 -14.284  0.00  0.00    -0.269 OA
ATOM      9  C   UNL     1       5.278   5.714 -10.891  0.00  0.00    +0.060 A 
ATOM     10  C   UNL     1       5.854   5.949  -9.647  0.00  0.00    +0.005 A 
ATOM     11  C   UNL     1       7.233   6.109  -9.571  0.00  0.00    +0.002 A 
ATOM     12  C   UNL     1       7.987   5.639 -10.607  0.00  0.00    +0.018 A 
ENDROOT
BRANCH   5  13
ATOM     13  C   UNL     1       2.808   6.345 -13.619  0.00  0.00    +0.162 C 
ATOM     14  C   UNL     1       2.023   5.087 -14.244  0.00  0.00    +0.266 C 
ATOM     15  O   UNL     1       2.652   4.093 -14.571  0.00  0.00    -0.271 OA
ATOM     16  N   UNL     1       0.895   5.591 -14.976  0.00  0.00    -0.143 NA
ATOM     17  C   UNL     1       0.258   6.746 -14.416  0.00  0.00    +0.248 C 
ATOM     18  O   UNL     1      -0.447   7.535 -15.115  0.00  0.00    -0.273 OA
ATOM     19  C   UNL     1       0.499   7.148 -13.003  0.00  0.00    +0.089 C 
ATOM     20  C   UNL     1       1.694   6.463 -12.414  0.00  0.00    +0.039 C 
ENDBRANCH   5  13
TORSDOF 1
ENDMDL
MODEL 4
REMARK VINA RESULT:      -7.6      6.149      9.173
REMARK  Name = 
REMARK  1 active torsions:
REMARK  status: ('A' for Active; 'I' for Inactive)
REMARK    1  A    between atoms: N_10  and  C_11
REMARK                            x       y       z     vdW  Elec       q    Type
REMARK                         _______ _______ _______ _____ _____    ______ ____
ROOT
ATOM      1  N   UNL     1       7.471   5.034 -13.559  0.00  0.00    -0.128 NA
ATOM      2  C   UNL     1       7.301   5.266 -12.363  0.00  0.00    +0.094 A 
ATOM      3  C   UNL     1       6.014   5.396 -11.852  0.00  0.00    +0.075 A 
ATOM      4  C   UNL     1       4.687   5.564 -12.463  0.00  0.00    +0.257 C 
ATOM      5  N   UNL     1       3.678   5.616 -11.443  0.00  0.00    -0.216 N 
ATOM      6  C   UNL     1       4.452   5.845 -10.251  0.00  0.00    +0.255 C 
ATOM      7  O   UNL     1       4.007   6.287  -9.145  0.00  0.00    -0.269 OA
ATOM      8  O   UNL     1       4.632   5.984 -13.660  0.00  0.00    -0.269 OA
ATOM      9  C   UNL     1       5.856   5.614 -10.489  0.00  0.00    +0.060 A 
ATOM     10  C   UNL     1       6.959   5.688  -9.644  0.00  0.00    +0.005 A 
ATOM     11  C   UNL     1       8.219   5.858 -10.207  0.00  0.00    +0.002 A 
ATOM     12  C   UNL     1       8.376   5.545 -11.526  0.00  0.00    +0.018 A 
ENDROOT
BRANCH   5  13
ATOM     13  C   UNL     1       2.432   6.569 -11.627  0.00  0.00    +0.162 C 
ATOM     14  C   UNL     1       1.527   5.495 -12.413  0.00  0.00    +0.266 C 
ATOM     15  O   UNL     1       2.050   4.766 -13.241  0.00  0.00    -0.271 OA
ATOM     16  N   UNL     1       0.211   6.052 -12.562  0.00  0.00    -0.143 NA
ATOM     17  C   UNL     1      -0.250   6.854 -11.467  0.00  0.00    +0.248 C 
ATOM     18  O   UNL     1      -1.162   7.724 -11.604  0.00  0.00    -0.273 OA
ATOM     19  C   UNL     1       0.411   6.790 -10.135  0.00  0.00    +0.089 C 
ATOM     20  C   UNL     1       1.750   6.122 -10.198  0.00  0.00    +0.039 C 
ENDBRANCH   5  13
TORSDOF 1
ENDMDL
MODEL 5
REMARK VINA RESULT:      -7.5      4.292      9.253
REMARK  Name = 
REMARK  1 active torsions:
REMARK  status: ('A' for Active; 'I' for Inactive)
REMARK    1  A    between atoms: N_10  and  C_11
REMARK                            x       y       z     vdW  Elec       q    Type
REMARK                         _______ _______ _______ _____ _____    ______ ____
ROOT
ATOM      1  N   UNL     1       4.402   5.757 -14.274  0.00  0.00    -0.128 NA
ATOM      2  C   UNL     1       5.381   5.741 -13.529  0.00  0.00    +0.094 A 
ATOM      3  C   UNL     1       5.215   5.575 -12.158  0.00  0.00    +0.075 A 
ATOM      4  C   UNL     1       4.055   5.638 -11.257  0.00  0.00    +0.257 C 
ATOM      5  N   UNL     1       4.460   5.348  -9.911  0.00  0.00    -0.216 N 
ATOM      6  C   UNL     1       5.892   5.480  -9.982  0.00  0.00    +0.255 C 
ATOM      7  O   UNL     1       6.677   5.642  -8.995  0.00  0.00    -0.269 OA
ATOM      8  O   UNL     1       3.019   6.251 -11.663  0.00  0.00    -0.269 OA
ATOM      9  C   UNL     1       6.345   5.518 -11.351  0.00  0.00    +0.060 A 
ATOM     10  C   UNL     1       7.620   5.612 -11.899  0.00  0.00    +0.005 A 
ATOM     11  C   UNL     1       7.753   6.076 -13.203  0.00  0.00    +0.002 A 
ATOM     12  C   UNL     1       6.653   6.032 -14.010  0.00  0.00    +0.018 A 
ENDROOT
BRANCH   5  13
ATOM     13  C   UNL     1       3.775   6.111  -8.709  0.00  0.00    +0.162 C 
ATOM     14  C   UNL     1       2.695   4.961  -8.388  0.00  0.00    +0.266 C 
ATOM     15  O   UNL     1       2.159   4.372  -9.312  0.00  0.00    -0.271 OA
ATOM     16  N   UNL     1       2.017   5.321  -7.174  0.00  0.00    -0.143 NA
ATOM     17  C   UNL     1       2.821   5.976  -6.185  0.00  0.00    +0.248 C 
ATOM     18  O   UNL     1       2.317   6.705  -5.278  0.00  0.00    -0.273 OA
ATOM     19  C   UNL     1       4.308   5.933  -6.250  0.00  0.00    +0.089 C 
ATOM     20  C   UNL     1       4.803   5.480  -7.590  0.00  0.00    +0.039 C 
ENDBRANCH   5  13
TORSDOF 1
ENDMDL
MODEL 6
REMARK VINA RESULT:      -7.5      2.585      6.074
REMARK  Name = 
REMARK  1 active torsions:
REMARK  status: ('A' for Active; 'I' for Inactive)
REMARK    1  A    between atoms: N_10  and  C_11
REMARK                            x       y       z     vdW  Elec       q    Type
REMARK                         _______ _______ _______ _____ _____    ______ ____
ROOT
ATOM      1  N   UNL     1      -2.065   5.537  -6.716  0.00  0.00    -0.128 NA
ATOM      2  C   UNL     1      -0.875   5.369  -6.979  0.00  0.00    +0.094 A 
ATOM      3  C   UNL     1       0.058   5.247  -5.954  0.00  0.00    +0.075 A 
ATOM      4  C   UNL     1       0.024   5.510  -4.508  0.00  0.00    +0.257 C 
ATOM      5  N   UNL     1       1.286   5.172  -3.915  0.00  0.00    -0.216 N 
ATOM      6  C   UNL     1       2.150   5.066  -5.063  0.00  0.00    +0.255 C 
ATOM      7  O   UNL     1       3.420   5.108  -5.047  0.00  0.00    -0.269 OA
ATOM      8  O   UNL     1      -0.884   6.280  -4.065  0.00  0.00    -0.269 OA
ATOM      9  C   UNL     1       1.387   5.015  -6.286  0.00  0.00    +0.060 A 
ATOM     10  C   UNL     1       1.781   4.892  -7.614  0.00  0.00    +0.005 A 
ATOM     11  C   UNL     1       0.908   5.313  -8.611  0.00  0.00    +0.002 A 
ATOM     12  C   UNL     1      -0.412   5.442  -8.288  0.00  0.00    +0.018 A 
ENDROOT
BRANCH   5  13
ATOM     13  C   UNL     1       1.851   6.051  -2.730  0.00  0.00    +0.162 C 
ATOM     14  C   UNL     1       1.326   5.084  -1.554  0.00  0.00    +0.266 C 
ATOM     15  O   UNL     1       0.224   4.568  -1.654  0.00  0.00    -0.271 OA
ATOM     16  N   UNL     1       1.870   5.563  -0.315  0.00  0.00    -0.143 NA
ATOM     17  C   UNL     1       3.195   6.104  -0.387  0.00  0.00    +0.248 C 
ATOM     18  O   UNL     1       3.643   6.916   0.478  0.00  0.00    -0.273 OA
ATOM     19  C   UNL     1       4.074   5.834  -1.558  0.00  0.00    +0.089 C 
ATOM     20  C   UNL     1       3.310   5.289  -2.726  0.00  0.00    +0.039 C 
ENDBRANCH   5  13
TORSDOF 1
ENDMDL
MODEL 7
REMARK VINA RESULT:      -7.5      2.191      3.381
REMARK  Name = 
REMARK  1 active torsions:
REMARK  status: ('A' for Active; 'I' for Inactive)
REMARK    1  A    between atoms: N_10  and  C_11
REMARK                            x       y       z     vdW  Elec       q    Type
REMARK                         _______ _______ _______ _____ _____    ______ ____
ROOT
ATOM      1  N   UNL     1       0.344   6.217  -3.733  0.00  0.00    -0.128 NA
ATOM      2  C   UNL     1      -0.260   5.980  -4.778  0.00  0.00    +0.094 A 
ATOM      3  C   UNL     1       0.438   5.822  -5.971  0.00  0.00    +0.075 A 
ATOM      4  C   UNL     1       1.819   6.110  -6.389  0.00  0.00    +0.257 C 
ATOM      5  N   UNL     1       2.013   5.712  -7.754  0.00  0.00    -0.216 N 
ATOM      6  C   UNL     1       0.663   5.541  -8.223  0.00  0.00    +0.255 C 
ATOM      7  O   UNL     1       0.293   5.513  -9.439  0.00  0.00    -0.269 OA
ATOM      8  O   UNL     1       2.490   6.936  -5.695  0.00  0.00    -0.269 OA
ATOM      9  C   UNL     1      -0.271   5.512  -7.124  0.00  0.00    +0.060 A 
ATOM     10  C   UNL     1      -1.652   5.347  -7.091  0.00  0.00    +0.005 A 
ATOM     11  C   UNL     1      -2.351   5.799  -5.978  0.00  0.00    +0.002 A 
ATOM     12  C   UNL     1      -1.650   6.006  -4.825  0.00  0.00    +0.018 A 
ENDROOT
BRANCH   5  13
ATOM     13  C   UNL     1       2.944   6.577  -8.693  0.00  0.00    +0.162 C 
ATOM     14  C   UNL     1       4.261   5.674  -8.483  0.00  0.00    +0.266 C 
ATOM     15  O   UNL     1       4.509   5.231  -7.373  0.00  0.00    -0.271 OA
ATOM     16  N   UNL     1       5.266   6.143  -9.395  0.00  0.00    -0.143 NA
ATOM     17  C   UNL     1       4.787   6.592 -10.669  0.00  0.00    +0.248 C 
ATOM     18  O   UNL     1       5.449   7.392 -11.397  0.00  0.00    -0.273 OA
ATOM     19  C   UNL     1       3.422   6.238 -11.146  0.00  0.00    +0.089 C 
ATOM     20  C   UNL     1       2.552   5.720 -10.041  0.00  0.00    +0.039 C 
ENDBRANCH   5  13
TORSDOF 1
ENDMDL
MODEL 8
REMARK VINA RESULT:      -7.5      2.436      7.024
REMARK  Name = 
REMARK  1 active torsions:
REMARK  status: ('A' for Active; 'I' for Inactive)
REMARK    1  A    between atoms: N_10  and  C_11
REMARK                            x       y       z     vdW  Elec       q    Type
REMARK                         _______ _______ _______ _____ _____    ______ ____
ROOT
ATOM      1  N   UNL     1       3.487   6.522 -11.417  0.00  0.00    -0.128 NA
ATOM      2  C   UNL     1       4.096   6.119 -10.428  0.00  0.00    +0.094 A 
ATOM      3  C   UNL     1       3.411   5.828  -9.253  0.00  0.00    +0.075 A 
ATOM      4  C   UNL     1       2.052   6.113  -8.770  0.00  0.00    +0.257 C 
ATOM      5  N   UNL     1       1.861   5.539  -7.468  0.00  0.00    -0.216 N 
ATOM      6  C   UNL     1       3.210   5.248  -7.056  0.00  0.00    +0.255 C 
ATOM      7  O   UNL     1       3.598   5.037  -5.864  0.00  0.00    -0.269 OA
ATOM      8  O   UNL     1       1.407   7.054  -9.328  0.00  0.00    -0.269 OA
ATOM      9  C   UNL     1       4.124   5.332  -8.169  0.00  0.00    +0.060 A 
ATOM     10  C   UNL     1       5.495   5.115  -8.255  0.00  0.00    +0.005 A 
ATOM     11  C   UNL     1       6.196   5.687  -9.311  0.00  0.00    +0.002 A 
ATOM     12  C   UNL     1       5.487   6.080 -10.408  0.00  0.00    +0.018 A 
ENDROOT
BRANCH   5  13
ATOM     13  C   UNL     1       0.985   6.305  -6.399  0.00  0.00    +0.162 C 
ATOM     14  C   UNL     1      -0.394   5.557  -6.762  0.00  0.00    +0.266 C 
ATOM     15  O   UNL     1      -0.657   5.327  -7.931  0.00  0.00    -0.271 OA
ATOM     16  N   UNL     1      -1.374   5.944  -5.786  0.00  0.00    -0.143 NA
ATOM     17  C   UNL     1      -0.882   6.133  -4.454  0.00  0.00    +0.248 C 
ATOM     18  O   UNL     1      -1.493   6.849  -3.604  0.00  0.00    -0.273 OA
ATOM     19  C   UNL     1       0.443   5.598  -4.040  0.00  0.00    +0.089 C 
ATOM     20  C   UNL     1       1.288   5.205  -5.213  0.00  0.00    +0.039 C 
ENDBRANCH   5  13
TORSDOF 1
ENDMDL
MODEL 9
REMARK VINA RESULT:      -7.4      3.644      6.077
REMARK  Name = 
REMARK  1 active torsions:
REMARK  status: ('A' for Active; 'I' for Inactive)
REMARK    1  A    between atoms: N_10  and  C_11
REMARK                            x       y       z     vdW  Elec       q    Type
REMARK                         _______ _______ _______ _____ _____    ______ ____
ROOT
ATOM      1  N   UNL     1      -0.508   5.376  -8.224  0.00  0.00    -0.128 NA
ATOM      2  C   UNL     1       0.462   5.373  -7.468  0.00  0.00    +0.094 A 
ATOM      3  C   UNL     1       1.744   5.563  -7.974  0.00  0.00    +0.075 A 
ATOM      4  C   UNL     1       2.318   5.546  -9.327  0.00  0.00    +0.257 C 
ATOM      5  N   UNL     1       3.721   5.843  -9.271  0.00  0.00    -0.216 N 
ATOM      6  C   UNL     1       4.020   5.669  -7.874  0.00  0.00    +0.255 C 
ATOM      7  O   UNL     1       5.176   5.498  -7.373  0.00  0.00    -0.269 OA
ATOM      8  O   UNL     1       1.664   4.958 -10.243  0.00  0.00    -0.269 OA
ATOM      9  C   UNL     1       2.813   5.598  -7.087  0.00  0.00    +0.060 A 
ATOM     10  C   UNL     1       2.611   5.460  -5.718  0.00  0.00    +0.005 A 
ATOM     11  C   UNL     1       1.387   4.975  -5.270  0.00  0.00    +0.002 A 
ATOM     12  C   UNL     1       0.325   5.039  -6.125  0.00  0.00    +0.018 A 
ENDROOT
BRANCH   5  13
ATOM     13  C   UNL     1       4.712   5.116 -10.264  0.00  0.00    +0.162 C 
ATOM     14  C   UNL     1       4.617   6.230 -11.423  0.00  0.00    +0.266 C 
ATOM     15  O   UNL     1       3.537   6.741 -11.672  0.00  0.00    -0.271 OA
ATOM     16  N   UNL     1       5.594   5.906 -12.425  0.00  0.00    -0.143 NA
ATOM     17  C   UNL     1       6.820   5.347 -11.938  0.00  0.00    +0.248 C 
ATOM     18  O   UNL     1       7.582   4.647 -12.671  0.00  0.00    -0.273 OA
ATOM     19  C   UNL     1       7.199   5.457 -10.503  0.00  0.00    +0.089 C 
ATOM     20  C   UNL     1       6.042   5.857  -9.640  0.00  0.00    +0.039 C 
ENDBRANCH   5  13
TORSDOF 1
ENDMDL
