MODEL 1
REMARK VINA RESULT:      -8.8      0.000      0.000
REMARK  Name = 
REMARK  8 active torsions:
REMARK  status: ('A' for Active; 'I' for Inactive)
REMARK    1  A    between atoms: O_2  and  C_3
REMARK    2  A    between atoms: C_5  and  C_6
REMARK    3  A    between atoms: C_11  and  O_12
REMARK    4  A    between atoms: O_12  and  C_13
REMARK    5  A    between atoms: C_13  and  C_14
REMARK    6  A    between atoms: C_14  and  C_15
REMARK    7  A    between atoms: C_15  and  N_16
REMARK    8  A    between atoms: C_19  and  C_20
REMARK                            x       y       z     vdW  Elec       q    Type
REMARK                         _______ _______ _______ _____ _____    ______ ____
ROOT
ATOM      1  N   UNL     1       3.110   6.324  -3.233  0.00  0.00    -0.273 NA
ATOM      2  C   UNL     1       3.912   7.507  -3.533  0.00  0.00    +0.072 C 
ATOM      3  C   UNL     1       4.485   7.305  -4.911  0.00  0.00    +0.023 C 
ATOM      4  C   UNL     1       4.580   5.831  -5.239  0.00  0.00    +0.046 C 
ATOM      5  C   UNL     1       4.991   5.002  -4.042  0.00  0.00    +0.023 C 
ATOM      6  C   UNL     1       4.049   5.264  -2.875  0.00  0.00    +0.072 C 
ENDROOT
BRANCH   4   7
ATOM      7  C   UNL     1       3.269   5.365  -5.792  0.00  0.00    +0.100 A 
ATOM      8  C   UNL     1       2.800   5.772  -7.031  0.00  0.00    +0.054 A 
ATOM      9  C   UNL     1       2.081   4.719  -7.584  0.00  0.00    +0.179 A 
ATOM     10  C   UNL     1       1.344   4.978  -8.730  0.00  0.00    +0.070 A 
ATOM     11  C   UNL     1       1.111   6.297  -9.079  0.00  0.00    +0.143 A 
ATOM     12  C   UNL     1       2.065   7.247  -8.757  0.00  0.00    +0.030 A 
ATOM     13  F   UNL     1       0.123   6.608  -9.939  0.00  0.00    -0.204 F 
ATOM     14  O   UNL     1       2.147   3.750  -6.710  0.00  0.00    -0.354 OA
ATOM     15  C   UNL     1       2.833   7.025  -7.621  0.00  0.00    +0.007 A 
ATOM     16  N   UNL     1       2.657   4.174  -5.582  0.00  0.00    -0.081 NA
ENDBRANCH   4   7
BRANCH   1  17
ATOM     17  C   UNL     1       2.312   6.586  -2.060  0.00  0.00    +0.076 C 
BRANCH  17  18
ATOM     18  C   UNL     1       2.238   5.359  -1.159  0.00  0.00    +0.065 C 
BRANCH  18  19
ATOM     19  C   UNL     1       0.823   4.856  -1.099  0.00  0.00    +0.207 C 
BRANCH  19  20
ATOM     20  O   UNL     1      -0.082   5.827  -0.604  0.00  0.00    -0.472 OA
BRANCH  20  22
ATOM     21  C   UNL     1      -1.737   7.341  -1.538  0.00  0.00    +0.172 A 
ATOM     22  C   UNL     1      -1.270   6.053  -1.306  0.00  0.00    +0.172 A 
ATOM     23  C   UNL     1      -1.870   5.063  -2.074  0.00  0.00    +0.040 A 
ATOM     24  C   UNL     1      -2.622   5.406  -3.192  0.00  0.00    +0.006 A 
ATOM     25  C   UNL     1      -2.558   6.696  -3.704  0.00  0.00    +0.038 A 
ATOM     26  C   UNL     1      -2.270   7.688  -2.774  0.00  0.00    +0.043 A 
BRANCH  25  27
ATOM     27  C   UNL     1      -2.476   6.959  -5.145  0.00  0.00    +0.174 C 
ATOM     28  O   UNL     1      -3.096   7.973  -5.582  0.00  0.00    -0.291 OA
ATOM     29  C   UNL     1      -2.218   5.880  -6.138  0.00  0.00    +0.077 C 
ENDBRANCH  25  27
BRANCH  21  31
ATOM     30  C   UNL     1      -1.997   8.168   0.722  0.00  0.00    +0.253 C 
ATOM     31  O   UNL     1      -1.427   8.306  -0.574  0.00  0.00    -0.468 OA
ENDBRANCH  21  31
ENDBRANCH  20  22
ENDBRANCH  19  20
ENDBRANCH  18  19
ENDBRANCH  17  18
ENDBRANCH   1  17
TORSDOF 8
ENDMDL
MODEL 2
REMARK VINA RESULT:      -8.3      2.271      4.147
REMARK  Name = 
REMARK  8 active torsions:
REMARK  status: ('A' for Active; 'I' for Inactive)
REMARK    1  A    between atoms: O_2  and  C_3
REMARK    2  A    between atoms: C_5  and  C_6
REMARK    3  A    between atoms: C_11  and  O_12
REMARK    4  A    between atoms: O_12  and  C_13
REMARK    5  A    between atoms: C_13  and  C_14
REMARK    6  A    between atoms: C_14  and  C_15
REMARK    7  A    between atoms: C_15  and  N_16
REMARK    8  A    between atoms: C_19  and  C_20
REMARK                            x       y       z     vdW  Elec       q    Type
REMARK                         _______ _______ _______ _____ _____    ______ ____
ROOT
ATOM      1  N   UNL     1       3.643   5.551  -6.191  0.00  0.00    -0.273 NA
ATOM      2  C   UNL     1       4.465   5.332  -7.377  0.00  0.00    +0.072 C 
ATOM      3  C   UNL     1       3.528   5.317  -8.558  0.00  0.00    +0.023 C 
ATOM      4  C   UNL     1       2.134   4.919  -8.128  0.00  0.00    +0.046 C 
ATOM      5  C   UNL     1       2.147   3.839  -7.068  0.00  0.00    +0.023 C 
ATOM      6  C   UNL     1       3.002   4.275  -5.886  0.00  0.00    +0.072 C 
ENDROOT
BRANCH   4   7
ATOM      7  C   UNL     1       1.400   6.133  -7.649  0.00  0.00    +0.100 A 
ATOM      8  C   UNL     1       0.362   6.059  -6.733  0.00  0.00    +0.054 A 
ATOM      9  C   UNL     1       0.401   7.205  -5.949  0.00  0.00    +0.179 A 
ATOM     10  C   UNL     1      -0.675   7.441  -5.106  0.00  0.00    +0.070 A 
ATOM     11  C   UNL     1      -1.840   6.720  -5.306  0.00  0.00    +0.143 A 
ATOM     12  C   UNL     1      -1.745   5.433  -5.805  0.00  0.00    +0.030 A 
ATOM     13  F   UNL     1      -3.003   7.150  -4.783  0.00  0.00    -0.204 F 
ATOM     14  O   UNL     1       1.421   7.896  -6.384  0.00  0.00    -0.354 OA
ATOM     15  C   UNL     1      -0.679   5.148  -6.648  0.00  0.00    +0.007 A 
ATOM     16  N   UNL     1       1.886   7.389  -7.497  0.00  0.00    -0.081 NA
ENDBRANCH   4   7
BRANCH   1  17
ATOM     17  C   UNL     1       4.505   5.860  -5.076  0.00  0.00    +0.076 C 
BRANCH  17  18
ATOM     18  C   UNL     1       4.407   7.331  -4.694  0.00  0.00    +0.065 C 
BRANCH  18  19
ATOM     19  C   UNL     1       3.209   7.550  -3.812  0.00  0.00    +0.207 C 
BRANCH  19  20
ATOM     20  O   UNL     1       3.368   6.980  -2.525  0.00  0.00    -0.472 OA
BRANCH  20  22
ATOM     21  C   UNL     1       1.939   6.137  -0.749  0.00  0.00    +0.172 A 
ATOM     22  C   UNL     1       2.392   6.092  -2.062  0.00  0.00    +0.172 A 
ATOM     23  C   UNL     1       1.601   5.350  -2.931  0.00  0.00    +0.040 A 
ATOM     24  C   UNL     1       0.313   4.983  -2.561  0.00  0.00    +0.006 A 
ATOM     25  C   UNL     1      -0.288   5.571  -1.456  0.00  0.00    +0.038 A 
ATOM     26  C   UNL     1       0.586   5.995  -0.463  0.00  0.00    +0.043 A 
BRANCH  25  27
ATOM     27  C   UNL     1      -1.689   6.007  -1.470  0.00  0.00    +0.174 C 
ATOM     28  O   UNL     1      -2.551   5.165  -1.859  0.00  0.00    -0.291 OA
ATOM     29  C   UNL     1      -2.076   7.439  -1.605  0.00  0.00    +0.077 C 
ENDBRANCH  25  27
BRANCH  21  31
ATOM     30  C   UNL     1       2.715   7.886   0.735  0.00  0.00    +0.253 C 
ATOM     31  O   UNL     1       2.854   6.567   0.218  0.00  0.00    -0.468 OA
ENDBRANCH  21  31
ENDBRANCH  20  22
ENDBRANCH  19  20
ENDBRANCH  18  19
ENDBRANCH  17  18
ENDBRANCH   1  17
TORSDOF 8
ENDMDL
MODEL 3
REMARK VINA RESULT:      -8.2      2.824      7.382
REMARK  Name = 
REMARK  8 active torsions:
REMARK  status: ('A' for Active; 'I' for Inactive)
REMARK    1  A    between atoms: O_2  and  C_3
REMARK    2  A    between atoms: C_5  and  C_6
REMARK    3  A    between atoms: C_11  and  O_12
REMARK    4  A    between atoms: O_12  and  C_13
REMARK    5  A    between atoms: C_13  and  C_14
REMARK    6  A    between atoms: C_14  and  C_15
REMARK    7  A    between atoms: C_15  and  N_16
REMARK    8  A    between atoms: C_19  and  C_20
REMARK                            x       y       z     vdW  Elec       q    Type
REMARK                         _______ _______ _______ _____ _____    ______ ____
ROOT
ATOM      1  N   UNL     1      -2.250   5.759  -4.724  0.00  0.00    -0.273 NA
ATOM      2  C   UNL     1      -2.168   7.193  -4.982  0.00  0.00    +0.072 C 
ATOM      3  C   UNL     1      -1.465   7.808  -3.800  0.00  0.00    +0.023 C 
ATOM      4  C   UNL     1      -1.637   6.946  -2.569  0.00  0.00    +0.046 C 
ATOM      5  C   UNL     1      -3.020   6.336  -2.485  0.00  0.00    +0.023 C 
ATOM      6  C   UNL     1      -3.333   5.569  -3.762  0.00  0.00    +0.072 C 
ENDROOT
BRANCH   4   7
ATOM      7  C   UNL     1      -0.580   5.886  -2.559  0.00  0.00    +0.100 A 
ATOM      8  C   UNL     1       0.736   6.147  -2.909  0.00  0.00    +0.054 A 
ATOM      9  C   UNL     1       1.554   5.331  -2.138  0.00  0.00    +0.179 A 
ATOM     10  C   UNL     1       2.899   5.273  -2.472  0.00  0.00    +0.070 A 
ATOM     11  C   UNL     1       3.294   5.765  -3.705  0.00  0.00    +0.143 A 
ATOM     12  C   UNL     1       2.588   6.821  -4.254  0.00  0.00    +0.030 A 
ATOM     13  F   UNL     1       4.483   5.412  -4.227  0.00  0.00    -0.204 F 
ATOM     14  O   UNL     1       0.747   4.645  -1.373  0.00  0.00    -0.354 OA
ATOM     15  C   UNL     1       1.239   6.923  -3.941  0.00  0.00    +0.007 A 
ATOM     16  N   UNL     1      -0.497   4.806  -1.745  0.00  0.00    -0.081 NA
ENDBRANCH   4   7
BRANCH   1  17
ATOM     17  C   UNL     1      -2.650   5.087  -5.937  0.00  0.00    +0.076 C 
BRANCH  17  18
ATOM     18  C   UNL     1      -1.654   5.342  -7.061  0.00  0.00    +0.065 C 
BRANCH  18  19
ATOM     19  C   UNL     1      -0.262   5.019  -6.592  0.00  0.00    +0.207 C 
BRANCH  19  20
ATOM     20  O   UNL     1       0.723   5.831  -7.206  0.00  0.00    -0.472 OA
BRANCH  20  22
ATOM     21  C   UNL     1       1.640   5.284  -9.389  0.00  0.00    +0.172 A 
ATOM     22  C   UNL     1       1.694   5.216  -8.002  0.00  0.00    +0.172 A 
ATOM     23  C   UNL     1       2.912   4.793  -7.482  0.00  0.00    +0.040 A 
ATOM     24  C   UNL     1       4.044   4.771  -8.287  0.00  0.00    +0.006 A 
ATOM     25  C   UNL     1       4.037   5.416  -9.517  0.00  0.00    +0.038 A 
ATOM     26  C   UNL     1       2.794   5.502 -10.132  0.00  0.00    +0.043 A 
BRANCH  25  27
ATOM     27  C   UNL     1       5.170   6.224  -9.980  0.00  0.00    +0.174 C 
ATOM     28  O   UNL     1       4.973   6.972 -10.983  0.00  0.00    -0.291 OA
ATOM     29  C   UNL     1       6.585   5.825  -9.738  0.00  0.00    +0.077 C 
ENDBRANCH  25  27
BRANCH  21  31
ATOM     30  C   UNL     1       0.127   4.642 -11.167  0.00  0.00    +0.253 C 
ATOM     31  O   UNL     1       0.367   5.366  -9.965  0.00  0.00    -0.468 OA
ENDBRANCH  21  31
ENDBRANCH  20  22
ENDBRANCH  19  20
ENDBRANCH  18  19
ENDBRANCH  17  18
ENDBRANCH   1  17
TORSDOF 8
ENDMDL
MODEL 4
REMARK VINA RESULT:      -8.1      4.359      7.131
REMARK  Name = 
REMARK  8 active torsions:
REMARK  status: ('A' for Active; 'I' for Inactive)
REMARK    1  A    between atoms: O_2  and  C_3
REMARK    2  A    between atoms: C_5  and  C_6
REMARK    3  A    between atoms: C_11  and  O_12
REMARK    4  A    between atoms: O_12  and  C_13
REMARK    5  A    between atoms: C_13  and  C_14
REMARK    6  A    between atoms: C_14  and  C_15
REMARK    7  A    between atoms: C_15  and  N_16
REMARK    8  A    between atoms: C_19  and  C_20
REMARK                            x       y       z     vdW  Elec       q    Type
REMARK                         _______ _______ _______ _____ _____    ______ ____
ROOT
ATOM      1  N   UNL     1       0.939   5.179 -12.308  0.00  0.00    -0.273 NA
ATOM      2  C   UNL     1       0.942   4.321 -13.489  0.00  0.00    +0.072 C 
ATOM      3  C   UNL     1       2.222   4.606 -14.231  0.00  0.00    +0.023 C 
ATOM      4  C   UNL     1       2.725   5.997 -13.912  0.00  0.00    +0.046 C 
ATOM      5  C   UNL     1       1.598   7.000 -13.788  0.00  0.00    +0.023 C 
ATOM      6  C   UNL     1       0.577   6.517 -12.766  0.00  0.00    +0.072 C 
ENDROOT
BRANCH   4   7
ATOM      7  C   UNL     1       3.543   5.949 -12.659  0.00  0.00    +0.100 A 
ATOM      8  C   UNL     1       4.928   6.000 -12.676  0.00  0.00    +0.054 A 
ATOM      9  C   UNL     1       5.345   6.675 -11.535  0.00  0.00    +0.179 A 
ATOM     10  C   UNL     1       6.700   6.657 -11.240  0.00  0.00    +0.070 A 
ATOM     11  C   UNL     1       7.506   5.740 -11.893  0.00  0.00    +0.143 A 
ATOM     12  C   UNL     1       7.172   5.365 -13.183  0.00  0.00    +0.030 A 
ATOM     13  F   UNL     1       8.718   5.427 -11.400  0.00  0.00    -0.204 F 
ATOM     14  O   UNL     1       4.252   7.007 -10.902  0.00  0.00    -0.354 OA
ATOM     15  C   UNL     1       5.826   5.375 -13.526  0.00  0.00    +0.007 A 
ATOM     16  N   UNL     1       3.210   6.420 -11.433  0.00  0.00    -0.081 NA
ENDBRANCH   4   7
BRANCH   1  17
ATOM     17  C   UNL     1      -0.111   4.747 -11.418  0.00  0.00    +0.076 C 
BRANCH  17  18
ATOM     18  C   UNL     1       0.424   4.503 -10.013  0.00  0.00    +0.065 C 
BRANCH  18  19
ATOM     19  C   UNL     1       0.291   5.755  -9.192  0.00  0.00    +0.207 C 
BRANCH  19  20
ATOM     20  O   UNL     1       0.770   5.595  -7.869  0.00  0.00    -0.472 OA
BRANCH  20  22
ATOM     21  C   UNL     1       0.269   5.063  -5.551  0.00  0.00    +0.172 A 
ATOM     22  C   UNL     1      -0.142   5.257  -6.865  0.00  0.00    +0.172 A 
ATOM     23  C   UNL     1      -1.513   5.407  -7.034  0.00  0.00    +0.040 A 
ATOM     24  C   UNL     1      -2.328   5.668  -5.939  0.00  0.00    +0.006 A 
ATOM     25  C   UNL     1      -1.764   6.046  -4.727  0.00  0.00    +0.038 A 
ATOM     26  C   UNL     1      -0.483   5.561  -4.494  0.00  0.00    +0.043 A 
BRANCH  25  27
ATOM     27  C   UNL     1      -2.329   7.123  -3.907  0.00  0.00    +0.174 C 
ATOM     28  O   UNL     1      -1.885   8.293  -4.106  0.00  0.00    -0.291 OA
ATOM     29  C   UNL     1      -2.919   6.876  -2.562  0.00  0.00    +0.077 C 
ENDBRANCH  25  27
BRANCH  21  31
ATOM     30  C   UNL     1       2.440   5.292  -4.503  0.00  0.00    +0.253 C 
ATOM     31  O   UNL     1       1.565   4.571  -5.364  0.00  0.00    -0.468 OA
ENDBRANCH  21  31
ENDBRANCH  20  22
ENDBRANCH  19  20
ENDBRANCH  18  19
ENDBRANCH  17  18
ENDBRANCH   1  17
TORSDOF 8
ENDMDL
MODEL 5
REMARK VINA RESULT:      -8.1      3.795      7.937
REMARK  Name = 
REMARK  8 active torsions:
REMARK  status: ('A' for Active; 'I' for Inactive)
REMARK    1  A    between atoms: O_2  and  C_3
REMARK    2  A    between atoms: C_5  and  C_6
REMARK    3  A    between atoms: C_11  and  O_12
REMARK    4  A    between atoms: O_12  and  C_13
REMARK    5  A    between atoms: C_13  and  C_14
REMARK    6  A    between atoms: C_14  and  C_15
REMARK    7  A    between atoms: C_15  and  N_16
REMARK    8  A    between atoms: C_19  and  C_20
REMARK                            x       y       z     vdW  Elec       q    Type
REMARK                         _______ _______ _______ _____ _____    ______ ____
ROOT
ATOM      1  N   UNL     1       3.155   5.733  -7.313  0.00  0.00    -0.273 NA
ATOM      2  C   UNL     1       2.706   4.423  -7.771  0.00  0.00    +0.072 C 
ATOM      3  C   UNL     1       1.866   3.840  -6.664  0.00  0.00    +0.023 C 
ATOM      4  C   UNL     1       2.254   4.437  -5.329  0.00  0.00    +0.046 C 
ATOM      5  C   UNL     1       3.747   4.653  -5.210  0.00  0.00    +0.023 C 
ATOM      6  C   UNL     1       4.249   5.495  -6.375  0.00  0.00    +0.072 C 
ENDROOT
BRANCH   4   7
ATOM      7  C   UNL     1       1.507   5.719  -5.127  0.00  0.00    +0.100 A 
ATOM      8  C   UNL     1       0.130   5.804  -5.269  0.00  0.00    +0.054 A 
ATOM      9  C   UNL     1      -0.335   6.747  -4.360  0.00  0.00    +0.179 A 
ATOM     10  C   UNL     1      -1.658   7.147  -4.473  0.00  0.00    +0.070 A 
ATOM     11  C   UNL     1      -2.342   6.841  -5.638  0.00  0.00    +0.143 A 
ATOM     12  C   UNL     1      -2.011   5.681  -6.315  0.00  0.00    +0.030 A 
ATOM     13  F   UNL     1      -3.470   7.502  -5.956  0.00  0.00    -0.204 F 
ATOM     14  O   UNL     1       0.722   7.170  -3.719  0.00  0.00    -0.354 OA
ATOM     15  C   UNL     1      -0.698   5.237  -6.224  0.00  0.00    +0.007 A 
ATOM     16  N   UNL     1       1.816   6.736  -4.288  0.00  0.00    -0.081 NA
ENDBRANCH   4   7
BRANCH   1  17
ATOM     17  C   UNL     1       3.717   6.453  -8.431  0.00  0.00    +0.076 C 
BRANCH  17  18
ATOM     18  C   UNL     1       4.795   5.632  -9.128  0.00  0.00    +0.065 C 
BRANCH  18  19
ATOM     19  C   UNL     1       4.741   5.875 -10.610  0.00  0.00    +0.207 C 
BRANCH  19  20
ATOM     20  O   UNL     1       3.653   6.698 -10.990  0.00  0.00    -0.472 OA
BRANCH  20  22
ATOM     21  C   UNL     1       1.338   6.484 -11.699  0.00  0.00    +0.172 A 
ATOM     22  C   UNL     1       2.684   6.170 -11.849  0.00  0.00    +0.172 A 
ATOM     23  C   UNL     1       3.018   5.584 -13.064  0.00  0.00    +0.040 A 
ATOM     24  C   UNL     1       2.128   5.629 -14.130  0.00  0.00    +0.006 A 
ATOM     25  C   UNL     1       1.030   6.479 -14.084  0.00  0.00    +0.038 A 
ATOM     26  C   UNL     1       0.547   6.753 -12.810  0.00  0.00    +0.043 A 
BRANCH  25  27
ATOM     27  C   UNL     1       0.616   7.280 -15.241  0.00  0.00    +0.174 C 
ATOM     28  O   UNL     1       0.480   6.672 -16.344  0.00  0.00    -0.291 OA
ATOM     29  C   UNL     1       0.885   8.742 -15.336  0.00  0.00    +0.077 C 
ENDBRANCH  25  27
BRANCH  21  31
ATOM     30  C   UNL     1      -0.002   5.824  -9.794  0.00  0.00    +0.253 C 
ATOM     31  O   UNL     1       0.895   6.749 -10.399  0.00  0.00    -0.468 OA
ENDBRANCH  21  31
ENDBRANCH  20  22
ENDBRANCH  19  20
ENDBRANCH  18  19
ENDBRANCH  17  18
ENDBRANCH   1  17
TORSDOF 8
ENDMDL
MODEL 6
REMARK VINA RESULT:      -8.1      3.024      4.465
REMARK  Name = 
REMARK  8 active torsions:
REMARK  status: ('A' for Active; 'I' for Inactive)
REMARK    1  A    between atoms: O_2  and  C_3
REMARK    2  A    between atoms: C_5  and  C_6
REMARK    3  A    between atoms: C_11  and  O_12
REMARK    4  A    between atoms: O_12  and  C_13
REMARK    5  A    between atoms: C_13  and  C_14
REMARK    6  A    between atoms: C_14  and  C_15
REMARK    7  A    between atoms: C_15  and  N_16
REMARK    8  A    between atoms: C_19  and  C_20
REMARK                            x       y       z     vdW  Elec       q    Type
REMARK                         _______ _______ _______ _____ _____    ______ ____
ROOT
ATOM      1  N   UNL     1       3.640   5.743  -6.482  0.00  0.00    -0.273 NA
ATOM      2  C   UNL     1       2.324   5.116  -6.416  0.00  0.00    +0.072 C 
ATOM      3  C   UNL     1       1.877   4.893  -7.838  0.00  0.00    +0.023 C 
ATOM      4  C   UNL     1       2.555   5.873  -8.770  0.00  0.00    +0.046 C 
ATOM      5  C   UNL     1       2.698   7.247  -8.153  0.00  0.00    +0.023 C 
ATOM      6  C   UNL     1       3.416   7.148  -6.814  0.00  0.00    +0.072 C 
ENDROOT
BRANCH   4   7
ATOM      7  C   UNL     1       3.888   5.325  -9.176  0.00  0.00    +0.100 A 
ATOM      8  C   UNL     1       4.874   6.117  -9.744  0.00  0.00    +0.054 A 
ATOM      9  C   UNL     1       6.106   5.631  -9.325  0.00  0.00    +0.179 A 
ATOM     10  C   UNL     1       7.239   6.143  -9.940  0.00  0.00    +0.070 A 
ATOM     11  C   UNL     1       7.085   6.853 -11.119  0.00  0.00    +0.143 A 
ATOM     12  C   UNL     1       5.924   7.584 -11.305  0.00  0.00    +0.030 A 
ATOM     13  F   UNL     1       8.136   7.049 -11.937  0.00  0.00    -0.204 F 
ATOM     14  O   UNL     1       5.839   4.619  -8.544  0.00  0.00    -0.354 OA
ATOM     15  C   UNL     1       4.766   7.114 -10.700  0.00  0.00    +0.007 A 
ATOM     16  N   UNL     1       4.572   4.302  -8.609  0.00  0.00    -0.081 NA
ENDBRANCH   4   7
BRANCH   1  17
ATOM     17  C   UNL     1       4.237   5.717  -5.169  0.00  0.00    +0.076 C 
BRANCH  17  18
ATOM     18  C   UNL     1       4.329   7.118  -4.577  0.00  0.00    +0.065 C 
BRANCH  18  19
ATOM     19  C   UNL     1       4.276   7.042  -3.077  0.00  0.00    +0.207 C 
BRANCH  19  20
ATOM     20  O   UNL     1       3.011   7.408  -2.555  0.00  0.00    -0.472 OA
BRANCH  20  22
ATOM     21  C   UNL     1       1.791   6.382  -0.721  0.00  0.00    +0.172 A 
ATOM     22  C   UNL     1       2.177   6.403  -2.057  0.00  0.00    +0.172 A 
ATOM     23  C   UNL     1       1.438   5.577  -2.895  0.00  0.00    +0.040 A 
ATOM     24  C   UNL     1       0.226   5.050  -2.465  0.00  0.00    +0.006 A 
ATOM     25  C   UNL     1      -0.384   5.551  -1.322  0.00  0.00    +0.038 A 
ATOM     26  C   UNL     1       0.483   6.071  -0.369  0.00  0.00    +0.043 A 
BRANCH  25  27
ATOM     27  C   UNL     1      -1.826   5.812  -1.259  0.00  0.00    +0.174 C 
ATOM     28  O   UNL     1      -2.588   4.977  -1.831  0.00  0.00    -0.291 OA
ATOM     29  C   UNL     1      -2.382   7.183  -1.085  0.00  0.00    +0.077 C 
ENDBRANCH  25  27
BRANCH  21  31
ATOM     30  C   UNL     1       2.360   8.138   0.845  0.00  0.00    +0.253 C 
ATOM     31  O   UNL     1       2.696   6.912   0.204  0.00  0.00    -0.468 OA
ENDBRANCH  21  31
ENDBRANCH  20  22
ENDBRANCH  19  20
ENDBRANCH  18  19
ENDBRANCH  17  18
ENDBRANCH   1  17
TORSDOF 8
ENDMDL
MODEL 7
REMARK VINA RESULT:      -8.0      2.494      3.439
REMARK  Name = 
REMARK  8 active torsions:
REMARK  status: ('A' for Active; 'I' for Inactive)
REMARK    1  A    between atoms: O_2  and  C_3
REMARK    2  A    between atoms: C_5  and  C_6
REMARK    3  A    between atoms: C_11  and  O_12
REMARK    4  A    between atoms: O_12  and  C_13
REMARK    5  A    between atoms: C_13  and  C_14
REMARK    6  A    between atoms: C_14  and  C_15
REMARK    7  A    between atoms: C_15  and  N_16
REMARK    8  A    between atoms: C_19  and  C_20
REMARK                            x       y       z     vdW  Elec       q    Type
REMARK                         _______ _______ _______ _____ _____    ______ ____
ROOT
ATOM      1  N   UNL     1       3.056   6.739  -4.498  0.00  0.00    -0.273 NA
ATOM      2  C   UNL     1       3.431   5.350  -4.258  0.00  0.00    +0.072 C 
ATOM      3  C   UNL     1       3.070   4.581  -5.502  0.00  0.00    +0.023 C 
ATOM      4  C   UNL     1       1.962   5.280  -6.259  0.00  0.00    +0.046 C 
ATOM      5  C   UNL     1       0.931   5.888  -5.333  0.00  0.00    +0.023 C 
ATOM      6  C   UNL     1       1.607   6.815  -4.332  0.00  0.00    +0.072 C 
ENDROOT
BRANCH   4   7
ATOM      7  C   UNL     1       2.558   6.319  -7.157  0.00  0.00    +0.100 A 
ATOM      8  C   UNL     1       3.553   6.022  -8.075  0.00  0.00    +0.054 A 
ATOM      9  C   UNL     1       3.373   6.842  -9.182  0.00  0.00    +0.179 A 
ATOM     10  C   UNL     1       4.380   6.864 -10.134  0.00  0.00    +0.070 A 
ATOM     11  C   UNL     1       5.615   6.332  -9.801  0.00  0.00    +0.143 A 
ATOM     12  C   UNL     1       5.662   5.276  -8.908  0.00  0.00    +0.030 A 
ATOM     13  F   UNL     1       6.707   6.647 -10.521  0.00  0.00    -0.204 F 
ATOM     14  O   UNL     1       2.317   7.564  -8.917  0.00  0.00    -0.354 OA
ATOM     15  C   UNL     1       4.667   5.209  -7.940  0.00  0.00    +0.007 A 
ATOM     16  N   UNL     1       1.954   7.418  -7.669  0.00  0.00    -0.081 NA
ENDBRANCH   4   7
BRANCH   1  17
ATOM     17  C   UNL     1       3.636   7.565  -3.466  0.00  0.00    +0.076 C 
BRANCH  17  18
ATOM     18  C   UNL     1       4.535   6.748  -2.547  0.00  0.00    +0.065 C 
BRANCH  18  19
ATOM     19  C   UNL     1       4.062   6.876  -1.126  0.00  0.00    +0.207 C 
BRANCH  19  20
ATOM     20  O   UNL     1       2.790   7.490  -1.027  0.00  0.00    -0.472 OA
BRANCH  20  22
ATOM     21  C   UNL     1       0.652   7.251   0.105  0.00  0.00    +0.172 A 
ATOM     22  C   UNL     1       1.700   6.709  -0.632  0.00  0.00    +0.172 A 
ATOM     23  C   UNL     1       1.436   5.470  -1.204  0.00  0.00    +0.040 A 
ATOM     24  C   UNL     1       0.129   5.004  -1.289  0.00  0.00    +0.006 A 
ATOM     25  C   UNL     1      -0.934   5.868  -1.059  0.00  0.00    +0.038 A 
ATOM     26  C   UNL     1      -0.665   6.919  -0.190  0.00  0.00    +0.043 A 
BRANCH  25  27
ATOM     27  C   UNL     1      -2.134   5.870  -1.903  0.00  0.00    +0.174 C 
ATOM     28  O   UNL     1      -2.548   4.748  -2.319  0.00  0.00    -0.291 OA
ATOM     29  C   UNL     1      -2.531   7.050  -2.721  0.00  0.00    +0.077 C 
ENDBRANCH  25  27
BRANCH  21  31
ATOM     30  C   UNL     1      -0.099   8.986   1.617  0.00  0.00    +0.253 C 
ATOM     31  O   UNL     1       0.970   8.304   0.969  0.00  0.00    -0.468 OA
ENDBRANCH  21  31
ENDBRANCH  20  22
ENDBRANCH  19  20
ENDBRANCH  18  19
ENDBRANCH  17  18
ENDBRANCH   1  17
TORSDOF 8
ENDMDL
MODEL 8
REMARK VINA RESULT:      -8.0      2.443      4.909
REMARK  Name = 
REMARK  8 active torsions:
REMARK  status: ('A' for Active; 'I' for Inactive)
REMARK    1  A    between atoms: O_2  and  C_3
REMARK    2  A    between atoms: C_5  and  C_6
REMARK    3  A    between atoms: C_11  and  O_12
REMARK    4  A    between atoms: O_12  and  C_13
REMARK    5  A    between atoms: C_13  and  C_14
REMARK    6  A    between atoms: C_14  and  C_15
REMARK    7  A    between atoms: C_15  and  N_16
REMARK    8  A    between atoms: C_19  and  C_20
REMARK                            x       y       z     vdW  Elec       q    Type
REMARK                         _______ _______ _______ _____ _____    ______ ____
ROOT
ATOM      1  N   UNL     1       2.302   4.827  -7.288  0.00  0.00    -0.273 NA
ATOM      2  C   UNL     1       3.447   5.070  -6.416  0.00  0.00    +0.072 C 
ATOM      3  C   UNL     1       4.410   5.930  -7.193  0.00  0.00    +0.023 C 
ATOM      4  C   UNL     1       4.214   5.740  -8.681  0.00  0.00    +0.046 C 
ATOM      5  C   UNL     1       3.912   4.301  -9.040  0.00  0.00    +0.023 C 
ATOM      6  C   UNL     1       2.716   3.802  -8.242  0.00  0.00    +0.072 C 
ENDROOT
BRANCH   4   7
ATOM      7  C   UNL     1       3.126   6.652  -9.154  0.00  0.00    +0.100 A 
ATOM      8  C   UNL     1       2.370   6.381 -10.285  0.00  0.00    +0.054 A 
ATOM      9  C   UNL     1       1.087   6.868 -10.069  0.00  0.00    +0.179 A 
ATOM     10  C   UNL     1       0.221   6.894 -11.152  0.00  0.00    +0.070 A 
ATOM     11  C   UNL     1       0.749   6.737 -12.422  0.00  0.00    +0.143 A 
ATOM     12  C   UNL     1       1.875   5.948 -12.579  0.00  0.00    +0.030 A 
ATOM     13  F   UNL     1       0.041   7.112 -13.503  0.00  0.00    -0.204 F 
ATOM     14  O   UNL     1       1.103   7.381  -8.867  0.00  0.00    -0.354 OA
ATOM     15  C   UNL     1       2.768   5.885 -11.516  0.00  0.00    +0.007 A 
ATOM     16  N   UNL     1       2.324   7.446  -8.404  0.00  0.00    -0.081 NA
ENDBRANCH   4   7
BRANCH   1  17
ATOM     17  C   UNL     1       1.231   4.258  -6.506  0.00  0.00    +0.076 C 
BRANCH  17  18
ATOM     18  C   UNL     1      -0.035   5.099  -6.613  0.00  0.00    +0.065 C 
BRANCH  18  19
ATOM     19  C   UNL     1      -0.446   5.579  -5.249  0.00  0.00    +0.207 C 
BRANCH  19  20
ATOM     20  O   UNL     1       0.301   4.974  -4.209  0.00  0.00    -0.472 OA
BRANCH  20  22
ATOM     21  C   UNL     1       0.656   5.534  -1.871  0.00  0.00    +0.172 A 
ATOM     22  C   UNL     1       0.857   5.792  -3.222  0.00  0.00    +0.172 A 
ATOM     23  C   UNL     1       1.880   6.691  -3.501  0.00  0.00    +0.040 A 
ATOM     24  C   UNL     1       2.808   7.020  -2.520  0.00  0.00    +0.006 A 
ATOM     25  C   UNL     1       2.887   6.265  -1.356  0.00  0.00    +0.038 A 
ATOM     26  C   UNL     1       1.701   5.657  -0.964  0.00  0.00    +0.043 A 
BRANCH  25  27
ATOM     27  C   UNL     1       4.172   5.872  -0.769  0.00  0.00    +0.174 C 
ATOM     28  O   UNL     1       4.389   4.631  -0.634  0.00  0.00    -0.291 OA
ATOM     29  C   UNL     1       4.939   6.766   0.144  0.00  0.00    +0.077 C 
ENDBRANCH  25  27
BRANCH  21  31
ATOM     30  C   UNL     1      -1.717   5.740  -1.434  0.00  0.00    +0.253 C 
ATOM     31  O   UNL     1      -0.554   4.923  -1.521  0.00  0.00    -0.468 OA
ENDBRANCH  21  31
ENDBRANCH  20  22
ENDBRANCH  19  20
ENDBRANCH  18  19
ENDBRANCH  17  18
ENDBRANCH   1  17
TORSDOF 8
ENDMDL
MODEL 9
REMARK VINA RESULT:      -7.8      3.324      5.810
REMARK  Name = 
REMARK  8 active torsions:
REMARK  status: ('A' for Active; 'I' for Inactive)
REMARK    1  A    between atoms: O_2  and  C_3
REMARK    2  A    between atoms: C_5  and  C_6
REMARK    3  A    between atoms: C_11  and  O_12
REMARK    4  A    between atoms: O_12  and  C_13
REMARK    5  A    between atoms: C_13  and  C_14
REMARK    6  A    between atoms: C_14  and  C_15
REMARK    7  A    between atoms: C_15  and  N_16
REMARK    8  A    between atoms: C_19  and  C_20
REMARK                            x       y       z     vdW  Elec       q    Type
REMARK                         _______ _______ _______ _____ _____    ______ ____
ROOT
ATOM      1  N   UNL     1       2.657   5.509  -6.927  0.00  0.00    -0.273 NA
ATOM      2  C   UNL     1       1.288   5.219  -7.339  0.00  0.00    +0.072 C 
ATOM      3  C   UNL     1       1.234   5.414  -8.833  0.00  0.00    +0.023 C 
ATOM      4  C   UNL     1       2.313   6.372  -9.285  0.00  0.00    +0.046 C 
ATOM      5  C   UNL     1       2.515   7.511  -8.309  0.00  0.00    +0.023 C 
ATOM      6  C   UNL     1       2.791   6.963  -6.915  0.00  0.00    +0.072 C 
ENDROOT
BRANCH   4   7
ATOM      7  C   UNL     1       3.586   5.615  -9.499  0.00  0.00    +0.100 A 
ATOM      8  C   UNL     1       4.774   6.244  -9.843  0.00  0.00    +0.054 A 
ATOM      9  C   UNL     1       5.817   5.536  -9.258  0.00  0.00    +0.179 A 
ATOM     10  C   UNL     1       7.108   5.864  -9.642  0.00  0.00    +0.070 A 
ATOM     11  C   UNL     1       7.282   6.632 -10.781  0.00  0.00    +0.143 A 
ATOM     12  C   UNL     1       6.309   7.560 -11.110  0.00  0.00    +0.030 A 
ATOM     13  F   UNL     1       8.477   6.671 -11.399  0.00  0.00    -0.204 F 
ATOM     14  O   UNL     1       5.254   4.558  -8.599  0.00  0.00    -0.354 OA
ATOM     15  C   UNL     1       5.001   7.277 -10.737  0.00  0.00    +0.007 A 
ATOM     16  N   UNL     1       3.982   4.470  -8.894  0.00  0.00    -0.081 NA
ENDBRANCH   4   7
BRANCH   1  17
ATOM     17  C   UNL     1       2.839   5.065  -5.566  0.00  0.00    +0.076 C 
BRANCH  17  18
ATOM     18  C   UNL     1       3.945   5.851  -4.873  0.00  0.00    +0.065 C 
BRANCH  18  19
ATOM     19  C   UNL     1       4.673   4.960  -3.905  0.00  0.00    +0.207 C 
BRANCH  19  20
ATOM     20  O   UNL     1       4.086   4.961  -2.616  0.00  0.00    -0.472 OA
BRANCH  20  22
ATOM     21  C   UNL     1       2.454   6.442  -1.592  0.00  0.00    +0.172 A 
ATOM     22  C   UNL     1       3.746   6.186  -2.036  0.00  0.00    +0.172 A 
ATOM     23  C   UNL     1       4.711   7.077  -1.580  0.00  0.00    +0.040 A 
ATOM     24  C   UNL     1       4.429   7.928  -0.518  0.00  0.00    +0.006 A 
ATOM     25  C   UNL     1       3.300   7.715   0.264  0.00  0.00    +0.038 A 
ATOM     26  C   UNL     1       2.237   7.100  -0.387  0.00  0.00    +0.043 A 
BRANCH  25  27
ATOM     27  C   UNL     1       3.332   7.826   1.726  0.00  0.00    +0.174 C 
ATOM     28  O   UNL     1       4.172   7.105   2.341  0.00  0.00    -0.291 OA
ATOM     29  C   UNL     1       2.147   8.259   2.518  0.00  0.00    +0.077 C 
ENDBRANCH  25  27
BRANCH  21  31
ATOM     30  C   UNL     1       0.575   4.917  -1.550  0.00  0.00    +0.253 C 
ATOM     31  O   UNL     1       1.416   5.804  -2.279  0.00  0.00    -0.468 OA
ENDBRANCH  21  31
ENDBRANCH  20  22
ENDBRANCH  19  20
ENDBRANCH  18  19
ENDBRANCH  17  18
ENDBRANCH   1  17
TORSDOF 8
ENDMDL
