MODEL 1
REMARK VINA RESULT:      -4.3      0.000      0.000
REMARK  Name = 
REMARK  4 active torsions:
REMARK  status: ('A' for Active; 'I' for Inactive)
REMARK    1  A    between atoms: C_2  and  C_3
REMARK    2  A    between atoms: C_3  and  C_5
REMARK    3  A    between atoms: C_5  and  C_6
REMARK    4  A    between atoms: C_6  and  C_7
REMARK                            x       y       z     vdW  Elec       q    Type
REMARK                         _______ _______ _______ _____ _____    ______ ____
ROOT
ATOM      1  C   UNL     1       6.926   5.829 -10.385  0.00  0.00    +0.035 C 
ENDROOT
BRANCH   1   2
ATOM      2  C   UNL     1       5.388   6.494 -10.326  0.00  0.00    +0.114 C 
ATOM      3  N   UNL     1       4.835   5.391 -11.354  0.00  0.00    -0.128 NA
BRANCH   2   5
ATOM      4  C   UNL     1       5.526   5.230  -8.442  0.00  0.00    -0.003 C 
ATOM      5  C   UNL     1       4.973   5.550  -9.040  0.00  0.00    -0.008 C 
ENDBRANCH   2   5
ENDBRANCH   1   2
BRANCH   1   6
ATOM      6  C   UNL     1       7.489   6.686 -11.517  0.00  0.00    +0.116 C 
BRANCH   6   7
ATOM      7  C   UNL     1       8.342   5.755 -12.323  0.00  0.00    +0.365 C 
ATOM      8  O   UNL     1       7.800   4.629 -12.920  0.00  0.00    -0.246 OA
ATOM      9  O   UNL     1       9.584   5.899 -12.205  0.00  0.00    -0.246 OA
ENDBRANCH   6   7
ENDBRANCH   1   6
TORSDOF 4
ENDMDL
MODEL 2
REMARK VINA RESULT:      -4.1     10.246     11.602
REMARK  Name = 
REMARK  4 active torsions:
REMARK  status: ('A' for Active; 'I' for Inactive)
REMARK    1  A    between atoms: C_2  and  C_3
REMARK    2  A    between atoms: C_3  and  C_5
REMARK    3  A    between atoms: C_5  and  C_6
REMARK    4  A    between atoms: C_6  and  C_7
REMARK                            x       y       z     vdW  Elec       q    Type
REMARK                         _______ _______ _______ _____ _____    ______ ____
ROOT
ATOM      1  C   UNL     1      -2.140   6.273  -4.948  0.00  0.00    +0.035 C 
ENDROOT
BRANCH   1   2
ATOM      2  C   UNL     1      -0.558   6.603  -5.397  0.00  0.00    +0.114 C 
ATOM      3  N   UNL     1      -0.012   5.401  -4.482  0.00  0.00    -0.128 NA
BRANCH   2   5
ATOM      4  C   UNL     1      -1.385   5.177  -6.962  0.00  0.00    -0.003 C 
ATOM      5  C   UNL     1      -0.666   5.601  -6.702  0.00  0.00    -0.008 C 
ENDBRANCH   2   5
ENDBRANCH   1   2
BRANCH   1   6
ATOM      6  C   UNL     1      -2.110   6.918  -3.564  0.00  0.00    +0.116 C 
BRANCH   6   7
ATOM      7  C   UNL     1      -3.043   6.093  -2.731  0.00  0.00    +0.365 C 
ATOM      8  O   UNL     1      -2.779   4.757  -2.475  0.00  0.00    -0.246 OA
ATOM      9  O   UNL     1      -4.175   6.589  -2.510  0.00  0.00    -0.246 OA
ENDBRANCH   6   7
ENDBRANCH   1   6
TORSDOF 4
ENDMDL
MODEL 3
REMARK VINA RESULT:      -4.1      2.998      4.039
REMARK  Name = 
REMARK  4 active torsions:
REMARK  status: ('A' for Active; 'I' for Inactive)
REMARK    1  A    between atoms: C_2  and  C_3
REMARK    2  A    between atoms: C_3  and  C_5
REMARK    3  A    between atoms: C_5  and  C_6
REMARK    4  A    between atoms: C_6  and  C_7
REMARK                            x       y       z     vdW  Elec       q    Type
REMARK                         _______ _______ _______ _____ _____    ______ ____
ROOT
ATOM      1  C   UNL     1       6.345   7.007 -12.379  0.00  0.00    +0.035 C 
ENDROOT
BRANCH   1   2
ATOM      2  C   UNL     1       6.877   5.471 -11.966  0.00  0.00    +0.114 C 
ATOM      3  N   UNL     1       6.338   4.874 -13.357  0.00  0.00    -0.128 NA
BRANCH   2   5
ATOM      4  C   UNL     1       9.100   5.890 -12.178  0.00  0.00    -0.003 C 
ATOM      5  C   UNL     1       8.361   5.751 -12.624  0.00  0.00    -0.008 C 
ENDBRANCH   2   5
ENDBRANCH   1   2
BRANCH   1   6
ATOM      6  C   UNL     1       5.907   7.465 -10.990  0.00  0.00    +0.116 C 
BRANCH   6   7
ATOM      7  C   UNL     1       4.651   6.699 -10.706  0.00  0.00    +0.365 C 
ATOM      8  O   UNL     1       3.658   6.579 -11.665  0.00  0.00    -0.246 OA
ATOM      9  O   UNL     1       4.436   6.411  -9.503  0.00  0.00    -0.246 OA
ENDBRANCH   6   7
ENDBRANCH   1   6
TORSDOF 4
ENDMDL
MODEL 4
REMARK VINA RESULT:      -4.1      3.134      3.856
REMARK  Name = 
REMARK  4 active torsions:
REMARK  status: ('A' for Active; 'I' for Inactive)
REMARK    1  A    between atoms: C_2  and  C_3
REMARK    2  A    between atoms: C_3  and  C_5
REMARK    3  A    between atoms: C_5  and  C_6
REMARK    4  A    between atoms: C_6  and  C_7
REMARK                            x       y       z     vdW  Elec       q    Type
REMARK                         _______ _______ _______ _____ _____    ______ ____
ROOT
ATOM      1  C   UNL     1       6.607   6.795 -13.096  0.00  0.00    +0.035 C 
ENDROOT
BRANCH   1   2
ATOM      2  C   UNL     1       6.603   5.518 -12.010  0.00  0.00    +0.114 C 
ATOM      3  N   UNL     1       7.769   4.775 -12.828  0.00  0.00    -0.128 NA
BRANCH   2   5
ATOM      4  C   UNL     1       7.566   6.569 -10.240  0.00  0.00    -0.003 C 
ATOM      5  C   UNL     1       7.712   6.266 -11.047  0.00  0.00    -0.008 C 
ENDBRANCH   2   5
ENDBRANCH   1   2
BRANCH   1   6
ATOM      6  C   UNL     1       6.371   5.993 -14.374  0.00  0.00    +0.116 C 
BRANCH   6   7
ATOM      7  C   UNL     1       5.666   6.936 -15.300  0.00  0.00    +0.365 C 
ATOM      8  O   UNL     1       6.171   8.202 -15.548  0.00  0.00    -0.246 OA
ATOM      9  O   UNL     1       4.491   6.628 -15.618  0.00  0.00    -0.246 OA
ENDBRANCH   6   7
ENDBRANCH   1   6
TORSDOF 4
ENDMDL
MODEL 5
REMARK VINA RESULT:      -4.0      9.834     11.143
REMARK  Name = 
REMARK  4 active torsions:
REMARK  status: ('A' for Active; 'I' for Inactive)
REMARK    1  A    between atoms: C_2  and  C_3
REMARK    2  A    between atoms: C_3  and  C_5
REMARK    3  A    between atoms: C_5  and  C_6
REMARK    4  A    between atoms: C_6  and  C_7
REMARK                            x       y       z     vdW  Elec       q    Type
REMARK                         _______ _______ _______ _____ _____    ______ ____
ROOT
ATOM      1  C   UNL     1      -1.835   6.550  -4.010  0.00  0.00    +0.035 C 
ENDROOT
BRANCH   1   2
ATOM      2  C   UNL     1      -3.269   6.152  -3.236  0.00  0.00    +0.114 C 
ATOM      3  N   UNL     1      -2.627   4.790  -2.675  0.00  0.00    -0.128 NA
BRANCH   2   5
ATOM      4  C   UNL     1      -2.012   7.250  -1.694  0.00  0.00    -0.003 C 
ATOM      5  C   UNL     1      -2.818   6.962  -1.874  0.00  0.00    -0.008 C 
ENDBRANCH   2   5
ENDBRANCH   1   2
BRANCH   1   6
ATOM      6  C   UNL     1      -2.272   6.249  -5.442  0.00  0.00    +0.116 C 
BRANCH   6   7
ATOM      7  C   UNL     1      -1.149   5.451  -6.031  0.00  0.00    +0.365 C 
ATOM      8  O   UNL     1       0.054   5.310  -5.360  0.00  0.00    -0.246 OA
ATOM      9  O   UNL     1      -1.258   5.154  -7.246  0.00  0.00    -0.246 OA
ENDBRANCH   6   7
ENDBRANCH   1   6
TORSDOF 4
ENDMDL
MODEL 6
REMARK VINA RESULT:      -3.9      3.276      4.526
REMARK  Name = 
REMARK  4 active torsions:
REMARK  status: ('A' for Active; 'I' for Inactive)
REMARK    1  A    between atoms: C_2  and  C_3
REMARK    2  A    between atoms: C_3  and  C_5
REMARK    3  A    between atoms: C_5  and  C_6
REMARK    4  A    between atoms: C_6  and  C_7
REMARK                            x       y       z     vdW  Elec       q    Type
REMARK                         _______ _______ _______ _____ _____    ______ ____
ROOT
ATOM      1  C   UNL     1       5.813   5.824 -10.076  0.00  0.00    +0.035 C 
ENDROOT
BRANCH   1   2
ATOM      2  C   UNL     1       7.426   6.284 -10.049  0.00  0.00    +0.114 C 
ATOM      3  N   UNL     1       7.722   5.442 -11.385  0.00  0.00    -0.128 NA
BRANCH   2   5
ATOM      4  C   UNL     1       6.368   7.798 -11.373  0.00  0.00    -0.003 C 
ATOM      5  C   UNL     1       7.108   7.637 -10.935  0.00  0.00    -0.008 C 
ENDBRANCH   2   5
ENDBRANCH   1   2
BRANCH   1   6
ATOM      6  C   UNL     1       5.706   5.327  -8.636  0.00  0.00    +0.116 C 
BRANCH   6   7
ATOM      7  C   UNL     1       4.253   5.019  -8.438  0.00  0.00    +0.365 C 
ATOM      8  O   UNL     1       3.519   5.650  -7.447  0.00  0.00    -0.246 OA
ATOM      9  O   UNL     1       3.818   3.996  -9.021  0.00  0.00    -0.246 OA
ENDBRANCH   6   7
ENDBRANCH   1   6
TORSDOF 4
ENDMDL
MODEL 7
REMARK VINA RESULT:      -3.9      6.753      7.931
REMARK  Name = 
REMARK  4 active torsions:
REMARK  status: ('A' for Active; 'I' for Inactive)
REMARK    1  A    between atoms: C_2  and  C_3
REMARK    2  A    between atoms: C_3  and  C_5
REMARK    3  A    between atoms: C_5  and  C_6
REMARK    4  A    between atoms: C_6  and  C_7
REMARK                            x       y       z     vdW  Elec       q    Type
REMARK                         _______ _______ _______ _____ _____    ______ ____
ROOT
ATOM      1  C   UNL     1       0.715   5.599  -6.641  0.00  0.00    +0.035 C 
ENDROOT
BRANCH   1   2
ATOM      2  C   UNL     1      -0.436   5.371  -5.442  0.00  0.00    +0.114 C 
ATOM      3  N   UNL     1      -0.555   6.956  -5.209  0.00  0.00    -0.128 NA
BRANCH   2   5
ATOM      4  C   UNL     1      -2.455   5.758  -6.411  0.00  0.00    -0.003 C 
ATOM      5  C   UNL     1      -1.663   5.409  -6.541  0.00  0.00    -0.008 C 
ENDBRANCH   2   5
ENDBRANCH   1   2
BRANCH   1   6
ATOM      6  C   UNL     1       1.366   6.860  -6.079  0.00  0.00    +0.116 C 
BRANCH   6   7
ATOM      7  C   UNL     1       2.367   7.275  -7.114  0.00  0.00    +0.365 C 
ATOM      8  O   UNL     1       2.145   8.383  -7.915  0.00  0.00    -0.246 OA
ATOM      9  O   UNL     1       3.259   6.437  -7.390  0.00  0.00    -0.246 OA
ENDBRANCH   6   7
ENDBRANCH   1   6
TORSDOF 4
ENDMDL
MODEL 8
REMARK VINA RESULT:      -3.7      9.799     10.493
REMARK  Name = 
REMARK  4 active torsions:
REMARK  status: ('A' for Active; 'I' for Inactive)
REMARK    1  A    between atoms: C_2  and  C_3
REMARK    2  A    between atoms: C_3  and  C_5
REMARK    3  A    between atoms: C_5  and  C_6
REMARK    4  A    between atoms: C_6  and  C_7
REMARK                            x       y       z     vdW  Elec       q    Type
REMARK                         _______ _______ _______ _____ _____    ______ ____
ROOT
ATOM      1  C   UNL     1       0.234   5.364  -4.616  0.00  0.00    +0.035 C 
ENDROOT
BRANCH   1   2
ATOM      2  C   UNL     1      -0.367   6.629  -5.538  0.00  0.00    +0.114 C 
ATOM      3  N   UNL     1       0.247   5.988  -6.877  0.00  0.00    -0.128 NA
BRANCH   2   5
ATOM      4  C   UNL     1      -2.120   5.600  -6.554  0.00  0.00    -0.003 C 
ATOM      5  C   UNL     1      -1.795   5.843  -5.779  0.00  0.00    -0.008 C 
ENDBRANCH   2   5
ENDBRANCH   1   2
BRANCH   1   6
ATOM      6  C   UNL     1       0.421   6.123  -3.304  0.00  0.00    +0.116 C 
BRANCH   6   7
ATOM      7  C   UNL     1      -0.214   5.256  -2.260  0.00  0.00    +0.365 C 
ATOM      8  O   UNL     1       0.559   4.472  -1.419  0.00  0.00    -0.246 OA
ATOM      9  O   UNL     1      -1.452   5.079  -2.364  0.00  0.00    -0.246 OA
ENDBRANCH   6   7
ENDBRANCH   1   6
TORSDOF 4
ENDMDL
MODEL 9
REMARK VINA RESULT:      -3.6      7.948      9.168
REMARK  Name = 
REMARK  4 active torsions:
REMARK  status: ('A' for Active; 'I' for Inactive)
REMARK    1  A    between atoms: C_2  and  C_3
REMARK    2  A    between atoms: C_3  and  C_5
REMARK    3  A    between atoms: C_5  and  C_6
REMARK    4  A    between atoms: C_6  and  C_7
REMARK                            x       y       z     vdW  Elec       q    Type
REMARK                         _______ _______ _______ _____ _____    ______ ____
ROOT
ATOM      1  C   UNL     1      -0.035   6.331  -5.686  0.00  0.00    +0.035 C 
ENDROOT
BRANCH   1   2
ATOM      2  C   UNL     1      -1.671   6.236  -5.330  0.00  0.00    +0.114 C 
ATOM      3  N   UNL     1      -1.352   5.671  -3.860  0.00  0.00    -0.128 NA
BRANCH   2   5
ATOM      4  C   UNL     1      -2.043   8.047  -4.009  0.00  0.00    -0.003 C 
ATOM      5  C   UNL     1      -1.690   7.784  -4.765  0.00  0.00    -0.008 C 
ENDBRANCH   2   5
ENDBRANCH   1   2
BRANCH   1   6
ATOM      6  C   UNL     1       0.133   4.945  -6.305  0.00  0.00    +0.116 C 
BRANCH   6   7
ATOM      7  C   UNL     1       1.497   4.493  -5.882  0.00  0.00    +0.365 C 
ATOM      8  O   UNL     1       2.104   3.402  -6.483  0.00  0.00    -0.246 OA
ATOM      9  O   UNL     1       1.931   4.972  -4.806  0.00  0.00    -0.246 OA
ENDBRANCH   6   7
ENDBRANCH   1   6
TORSDOF 4
ENDMDL
