MODEL 1
REMARK VINA RESULT:      -9.1      0.000      0.000
REMARK  Name = 
REMARK  4 active torsions:
REMARK  status: ('A' for Active; 'I' for Inactive)
REMARK    1  A    between atoms: C_2  and  C_3
REMARK    2  A    between atoms: C_2  and  C_8
REMARK    3  A    between atoms: C_3  and  C_4
REMARK    4  A    between atoms: C_4  and  C_5
REMARK                            x       y       z     vdW  Elec       q    Type
REMARK                         _______ _______ _______ _____ _____    ______ ____
ROOT
ATOM      1  C   UNL     1       4.072   5.033 -10.938  0.00  0.00    +0.000 C 
ATOM      2  C   UNL     1       3.154   5.864  -9.927  0.00  0.00    +0.000 C 
ATOM      3  C   UNL     1       3.655   4.908  -8.705  0.00  0.00    +0.002 C 
ATOM      4  C   UNL     1       2.876   5.937  -7.640  0.00  0.00    +0.030 C 
ATOM      5  C   UNL     1       1.525   4.946  -7.803  0.00  0.00    +0.002 C 
ATOM      6  C   UNL     1       0.991   5.882  -9.026  0.00  0.00    +0.000 C 
ATOM      7  C   UNL     1       0.567   5.560  -6.662  0.00  0.00    +0.000 C 
ATOM      8  C   UNL     1       1.288   6.946  -6.275  0.00  0.00    +0.005 C 
ATOM      9  C   UNL     1       0.444   7.312  -4.929  0.00  0.00    +0.033 C 
ATOM     10  C   UNL     1      -1.045   6.696  -5.212  0.00  0.00    +0.152 C 
ATOM     11  C   UNL     1      -0.579   5.238  -4.587  0.00  0.00    +0.033 C 
ATOM     12  O   UNL     1      -1.566   7.185  -3.871  0.00  0.00    -0.223 OA
ATOM     13  C   UNL     1       2.419   6.263  -5.319  0.00  0.00    +0.033 C 
ATOM     14  C   UNL     1      -0.672   5.743  -7.453  0.00  0.00    +0.000 C 
ATOM     15  C   UNL     1       0.443   4.661  -5.521  0.00  0.00    +0.003 C 
ATOM     16  C   UNL     1       3.217   5.151  -6.203  0.00  0.00    +0.152 C 
ATOM     17  O   UNL     1       4.529   5.895  -6.039  0.00  0.00    -0.223 OA
ATOM     18  C   UNL     1       5.113   5.602  -8.761  0.00  0.00    +0.000 C 
ATOM     19  C   UNL     1       3.640   7.164  -9.591  0.00  0.00    +0.000 C 
ATOM     20  C   UNL     1       1.796   5.505 -10.203  0.00  0.00    +0.000 C 
ATOM     21  C   UNL     1       5.407   5.657 -10.263  0.00  0.00    +0.000 C 
ENDROOT
BRANCH   1  23
ATOM     22  C   UNL     1       2.769   5.589 -13.092  0.00  0.00    +0.000 C 
ATOM     23  C   UNL     1       4.084   6.064 -12.289  0.00  0.00    +0.001 C 
BRANCH  23  24
ATOM     24  C   UNL     1       4.953   4.989 -13.150  0.00  0.00    +0.012 C 
BRANCH  24  25
ATOM     25  C   UNL     1       5.937   5.702 -13.944  0.00  0.00    +0.114 C 
BRANCH  25  26
ATOM     26  C   UNL     1       7.233   5.636 -13.307  0.00  0.00    +0.365 C 
ATOM     27  O   UNL     1       7.599   6.862 -12.725  0.00  0.00    -0.246 OA
ATOM     28  O   UNL     1       7.739   4.563 -12.860  0.00  0.00    -0.246 OA
ENDBRANCH  25  26
ENDBRANCH  24  25
ENDBRANCH  23  24
ENDBRANCH   1  23
TORSDOF 4
ENDMDL
MODEL 2
REMARK VINA RESULT:      -9.0      2.020      8.386
REMARK  Name = 
REMARK  4 active torsions:
REMARK  status: ('A' for Active; 'I' for Inactive)
REMARK    1  A    between atoms: C_2  and  C_3
REMARK    2  A    between atoms: C_2  and  C_8
REMARK    3  A    between atoms: C_3  and  C_4
REMARK    4  A    between atoms: C_4  and  C_5
REMARK                            x       y       z     vdW  Elec       q    Type
REMARK                         _______ _______ _______ _____ _____    ______ ____
ROOT
ATOM      1  C   UNL     1       0.919   4.998  -4.194  0.00  0.00    +0.000 C 
ATOM      2  C   UNL     1       1.758   5.826  -5.273  0.00  0.00    +0.000 C 
ATOM      3  C   UNL     1       1.132   4.896  -6.456  0.00  0.00    +0.002 C 
ATOM      4  C   UNL     1       1.831   5.926  -7.575  0.00  0.00    +0.030 C 
ATOM      5  C   UNL     1       3.172   4.909  -7.546  0.00  0.00    +0.002 C 
ATOM      6  C   UNL     1       3.832   5.819  -6.364  0.00  0.00    +0.000 C 
ATOM      7  C   UNL     1       4.035   5.522  -8.761  0.00  0.00    +0.000 C 
ATOM      8  C   UNL     1       3.308   6.925  -9.065  0.00  0.00    +0.005 C 
ATOM      9  C   UNL     1       4.035   7.295 -10.477  0.00  0.00    +0.033 C 
ATOM     10  C   UNL     1       5.532   6.650 -10.336  0.00  0.00    +0.152 C 
ATOM     11  C   UNL     1       4.985   5.208 -10.934  0.00  0.00    +0.033 C 
ATOM     12  O   UNL     1       5.939   7.148 -11.712  0.00  0.00    -0.223 OA
ATOM     13  C   UNL     1       2.084   6.275  -9.923  0.00  0.00    +0.033 C 
ATOM     14  C   UNL     1       5.344   5.673  -8.082  0.00  0.00    +0.000 C 
ATOM     15  C   UNL     1       4.041   4.637  -9.919  0.00  0.00    +0.003 C 
ATOM     16  C   UNL     1       1.348   5.165  -8.984  0.00  0.00    +0.152 C 
ATOM     17  O   UNL     1       0.040   5.933  -9.021  0.00  0.00    -0.223 OA
ATOM     18  C   UNL     1      -0.302   5.614  -6.261  0.00  0.00    +0.000 C 
ATOM     19  C   UNL     1       1.267   7.139  -5.548  0.00  0.00    +0.000 C 
ATOM     20  C   UNL     1       3.128   5.441  -5.124  0.00  0.00    +0.000 C 
ATOM     21  C   UNL     1      -0.460   5.654  -4.739  0.00  0.00    +0.000 C 
ENDROOT
BRANCH   1  23
ATOM     22  C   UNL     1       2.360   5.431  -2.101  0.00  0.00    +0.000 C 
ATOM     23  C   UNL     1       1.047   6.010  -2.835  0.00  0.00    +0.001 C 
BRANCH  23  24
ATOM     24  C   UNL     1       0.144   4.991  -1.942  0.00  0.00    +0.012 C 
BRANCH  24  25
ATOM     25  C   UNL     1      -0.634   5.758  -0.986  0.00  0.00    +0.114 C 
BRANCH  25  26
ATOM     26  C   UNL     1      -1.993   5.907  -1.456  0.00  0.00    +0.365 C 
ATOM     27  O   UNL     1      -2.265   7.220  -1.880  0.00  0.00    -0.246 OA
ATOM     28  O   UNL     1      -2.680   4.951  -1.926  0.00  0.00    -0.246 OA
ENDBRANCH  25  26
ENDBRANCH  24  25
ENDBRANCH  23  24
ENDBRANCH   1  23
TORSDOF 4
ENDMDL
MODEL 3
REMARK VINA RESULT:      -9.0      1.745      8.157
REMARK  Name = 
REMARK  4 active torsions:
REMARK  status: ('A' for Active; 'I' for Inactive)
REMARK    1  A    between atoms: C_2  and  C_3
REMARK    2  A    between atoms: C_2  and  C_8
REMARK    3  A    between atoms: C_3  and  C_4
REMARK    4  A    between atoms: C_4  and  C_5
REMARK                            x       y       z     vdW  Elec       q    Type
REMARK                         _______ _______ _______ _____ _____    ______ ____
ROOT
ATOM      1  C   UNL     1       1.302   5.143  -5.793  0.00  0.00    +0.000 C 
ATOM      2  C   UNL     1       2.353   5.947  -6.690  0.00  0.00    +0.000 C 
ATOM      3  C   UNL     1       1.828   5.140  -8.006  0.00  0.00    +0.002 C 
ATOM      4  C   UNL     1       2.763   6.158  -8.949  0.00  0.00    +0.030 C 
ATOM      5  C   UNL     1       3.998   5.024  -8.799  0.00  0.00    +0.002 C 
ATOM      6  C   UNL     1       4.554   5.808  -7.482  0.00  0.00    +0.000 C 
ATOM      7  C   UNL     1       5.074   5.618  -9.841  0.00  0.00    +0.000 C 
ATOM      8  C   UNL     1       4.517   7.095 -10.153  0.00  0.00    +0.005 C 
ATOM      9  C   UNL     1       5.467   7.470 -11.424  0.00  0.00    +0.033 C 
ATOM     10  C   UNL     1       6.869   6.685 -11.118  0.00  0.00    +0.152 C 
ATOM     11  C   UNL     1       6.296   5.332 -11.877  0.00  0.00    +0.033 C 
ATOM     12  O   UNL     1       7.510   7.215 -12.390  0.00  0.00    -0.223 OA
ATOM     13  C   UNL     1       3.378   6.604 -11.212  0.00  0.00    +0.033 C 
ATOM     14  C   UNL     1       6.280   5.614  -8.980  0.00  0.00    +0.000 C 
ATOM     15  C   UNL     1       5.172   4.797 -11.042  0.00  0.00    +0.003 C 
ATOM     16  C   UNL     1       2.427   5.518 -10.457  0.00  0.00    +0.152 C 
ATOM     17  O   UNL     1       1.205   6.403 -10.625  0.00  0.00    -0.223 OA
ATOM     18  C   UNL     1       0.445   5.974  -7.965  0.00  0.00    +0.000 C 
ATOM     19  C   UNL     1       2.017   7.311  -6.946  0.00  0.00    +0.000 C 
ATOM     20  C   UNL     1       3.651   5.431  -6.378  0.00  0.00    +0.000 C 
ATOM     21  C   UNL     1       0.075   5.949  -6.480  0.00  0.00    +0.000 C 
ENDROOT
BRANCH   1  23
ATOM     22  C   UNL     1       2.527   5.399  -3.539  0.00  0.00    +0.000 C 
ATOM     23  C   UNL     1       1.317   6.068  -4.367  0.00  0.00    +0.001 C 
BRANCH  23  24
ATOM     24  C   UNL     1       0.294   5.032  -3.638  0.00  0.00    +0.012 C 
BRANCH  24  25
ATOM     25  C   UNL     1      -0.632   5.782  -2.810  0.00  0.00    +0.114 C 
BRANCH  25  26
ATOM     26  C   UNL     1      -1.980   5.637  -3.314  0.00  0.00    +0.365 C 
ATOM     27  O   UNL     1      -2.733   4.725  -2.553  0.00  0.00    -0.246 OA
ATOM     28  O   UNL     1      -2.581   6.536  -3.975  0.00  0.00    -0.246 OA
ENDBRANCH  25  26
ENDBRANCH  24  25
ENDBRANCH  23  24
ENDBRANCH   1  23
TORSDOF 4
ENDMDL
MODEL 4
REMARK VINA RESULT:      -9.0      2.577      4.271
REMARK  Name = 
REMARK  4 active torsions:
REMARK  status: ('A' for Active; 'I' for Inactive)
REMARK    1  A    between atoms: C_2  and  C_3
REMARK    2  A    between atoms: C_2  and  C_8
REMARK    3  A    between atoms: C_3  and  C_4
REMARK    4  A    between atoms: C_4  and  C_5
REMARK                            x       y       z     vdW  Elec       q    Type
REMARK                         _______ _______ _______ _____ _____    ______ ____
ROOT
ATOM      1  C   UNL     1       2.505   6.250  -9.311  0.00  0.00    +0.000 C 
ATOM      2  C   UNL     1       2.868   5.649  -7.875  0.00  0.00    +0.000 C 
ATOM      3  C   UNL     1       1.832   6.702  -7.186  0.00  0.00    +0.002 C 
ATOM      4  C   UNL     1       2.051   5.899  -5.734  0.00  0.00    +0.030 C 
ATOM      5  C   UNL     1       3.296   6.987  -5.419  0.00  0.00    +0.002 C 
ATOM      6  C   UNL     1       4.363   5.957  -6.097  0.00  0.00    +0.000 C 
ATOM      7  C   UNL     1       3.628   6.621  -3.885  0.00  0.00    +0.000 C 
ATOM      8  C   UNL     1       2.845   5.234  -3.654  0.00  0.00    +0.005 C 
ATOM      9  C   UNL     1       2.975   5.127  -2.032  0.00  0.00    +0.033 C 
ATOM     10  C   UNL     1       4.408   5.843  -1.699  0.00  0.00    +0.152 C 
ATOM     11  C   UNL     1       3.667   7.318  -1.597  0.00  0.00    +0.033 C 
ATOM     12  O   UNL     1       4.257   5.584  -0.210  0.00  0.00    -0.223 OA
ATOM     13  C   UNL     1       1.382   5.922  -3.443  0.00  0.00    +0.033 C 
ATOM     14  C   UNL     1       5.097   6.458  -3.983  0.00  0.00    +0.000 C 
ATOM     15  C   UNL     1       3.184   7.668  -2.973  0.00  0.00    +0.003 C 
ATOM     16  C   UNL     1       1.060   6.828  -4.758  0.00  0.00    +0.152 C 
ATOM     17  O   UNL     1      -0.159   5.988  -5.094  0.00  0.00    -0.223 OA
ATOM     18  C   UNL     1       0.586   5.869  -7.790  0.00  0.00    +0.000 C 
ATOM     19  C   UNL     1       2.315   4.363  -7.596  0.00  0.00    +0.000 C 
ATOM     20  C   UNL     1       4.189   6.099  -7.554  0.00  0.00    +0.000 C 
ATOM     21  C   UNL     1       1.026   5.592  -9.230  0.00  0.00    +0.000 C 
ENDROOT
BRANCH   1  23
ATOM     22  C   UNL     1       4.611   5.651 -10.673  0.00  0.00    +0.000 C 
ATOM     23  C   UNL     1       3.151   5.057 -10.336  0.00  0.00    +0.001 C 
BRANCH  23  24
ATOM     24  C   UNL     1       2.576   5.822 -11.653  0.00  0.00    +0.012 C 
BRANCH  24  25
ATOM     25  C   UNL     1       3.556   5.733 -12.720  0.00  0.00    +0.114 C 
BRANCH  25  26
ATOM     26  C   UNL     1       2.893   5.558 -13.993  0.00  0.00    +0.365 C 
ATOM     27  O   UNL     1       3.587   6.188 -15.041  0.00  0.00    -0.246 OA
ATOM     28  O   UNL     1       2.128   4.582 -14.255  0.00  0.00    -0.246 OA
ENDBRANCH  25  26
ENDBRANCH  24  25
ENDBRANCH  23  24
ENDBRANCH   1  23
TORSDOF 4
ENDMDL
MODEL 5
REMARK VINA RESULT:      -8.9      1.549      8.071
REMARK  Name = 
REMARK  4 active torsions:
REMARK  status: ('A' for Active; 'I' for Inactive)
REMARK    1  A    between atoms: C_2  and  C_3
REMARK    2  A    between atoms: C_2  and  C_8
REMARK    3  A    between atoms: C_3  and  C_4
REMARK    4  A    between atoms: C_4  and  C_5
REMARK                            x       y       z     vdW  Elec       q    Type
REMARK                         _______ _______ _______ _____ _____    ______ ____
ROOT
ATOM      1  C   UNL     1      -0.376   6.370  -5.499  0.00  0.00    +0.000 C 
ATOM      2  C   UNL     1       0.474   5.663  -6.654  0.00  0.00    +0.000 C 
ATOM      3  C   UNL     1       1.735   6.633  -6.302  0.00  0.00    +0.002 C 
ATOM      4  C   UNL     1       2.671   5.720  -7.348  0.00  0.00    +0.030 C 
ATOM      5  C   UNL     1       2.230   6.807  -8.555  0.00  0.00    +0.002 C 
ATOM      6  C   UNL     1       0.959   5.860  -8.938  0.00  0.00    +0.000 C 
ATOM      7  C   UNL     1       3.193   6.325  -9.754  0.00  0.00    +0.000 C 
ATOM      8  C   UNL     1       3.751   4.907  -9.238  0.00  0.00    +0.005 C 
ATOM      9  C   UNL     1       4.929   4.673 -10.341  0.00  0.00    +0.033 C 
ATOM     10  C   UNL     1       4.356   5.391 -11.694  0.00  0.00    +0.152 C 
ATOM     11  C   UNL     1       5.009   6.835 -11.224  0.00  0.00    +0.033 C 
ATOM     12  O   UNL     1       5.592   5.009 -12.490  0.00  0.00    -0.223 OA
ATOM     13  C   UNL     1       4.876   5.542  -8.244  0.00  0.00    +0.033 C 
ATOM     14  C   UNL     1       2.193   6.204 -10.840  0.00  0.00    +0.000 C 
ATOM     15  C   UNL     1       4.262   7.285 -10.005  0.00  0.00    +0.003 C 
ATOM     16  C   UNL     1       4.120   6.544  -7.206  0.00  0.00    +0.152 C 
ATOM     17  O   UNL     1       4.548   5.707  -6.014  0.00  0.00    -0.223 OA
ATOM     18  C   UNL     1       1.972   5.824  -4.924  0.00  0.00    +0.000 C 
ATOM     19  C   UNL     1       0.934   4.346  -6.351  0.00  0.00    +0.000 C 
ATOM     20  C   UNL     1      -0.060   6.115  -7.903  0.00  0.00    +0.000 C 
ATOM     21  C   UNL     1       0.553   5.674  -4.368  0.00  0.00    +0.000 C 
ENDROOT
BRANCH   1  23
ATOM     22  C   UNL     1      -2.719   5.824  -6.426  0.00  0.00    +0.000 C 
ATOM     23  C   UNL     1      -1.669   5.279  -5.332  0.00  0.00    +0.001 C 
BRANCH  23  24
ATOM     24  C   UNL     1      -2.383   6.234  -4.224  0.00  0.00    +0.012 C 
BRANCH  24  25
ATOM     25  C   UNL     1      -2.969   5.404  -3.188  0.00  0.00    +0.114 C 
BRANCH  25  26
ATOM     26  C   UNL     1      -2.479   5.808  -1.889  0.00  0.00    +0.365 C 
ATOM     27  O   UNL     1      -1.329   5.091  -1.511  0.00  0.00    -0.246 OA
ATOM     28  O   UNL     1      -2.685   6.954  -1.389  0.00  0.00    -0.246 OA
ENDBRANCH  25  26
ENDBRANCH  24  25
ENDBRANCH  23  24
ENDBRANCH   1  23
TORSDOF 4
ENDMDL
MODEL 6
REMARK VINA RESULT:      -8.9      1.184      1.400
REMARK  Name = 
REMARK  4 active torsions:
REMARK  status: ('A' for Active; 'I' for Inactive)
REMARK    1  A    between atoms: C_2  and  C_3
REMARK    2  A    between atoms: C_2  and  C_8
REMARK    3  A    between atoms: C_3  and  C_4
REMARK    4  A    between atoms: C_4  and  C_5
REMARK                            x       y       z     vdW  Elec       q    Type
REMARK                         _______ _______ _______ _____ _____    ______ ____
ROOT
ATOM      1  C   UNL     1       3.629   5.204  -9.659  0.00  0.00    +0.000 C 
ATOM      2  C   UNL     1       2.541   6.022  -8.821  0.00  0.00    +0.000 C 
ATOM      3  C   UNL     1       2.933   5.161  -7.494  0.00  0.00    +0.002 C 
ATOM      4  C   UNL     1       1.965   6.189  -6.596  0.00  0.00    +0.030 C 
ATOM      5  C   UNL     1       0.706   5.106  -6.872  0.00  0.00    +0.002 C 
ATOM      6  C   UNL     1       0.282   5.944  -8.204  0.00  0.00    +0.000 C 
ATOM      7  C   UNL     1      -0.426   5.712  -5.898  0.00  0.00    +0.000 C 
ATOM      8  C   UNL     1       0.158   7.158  -5.502  0.00  0.00    +0.005 C 
ATOM      9  C   UNL     1      -0.874   7.536  -4.297  0.00  0.00    +0.033 C 
ATOM     10  C   UNL     1      -2.275   6.811  -4.731  0.00  0.00    +0.152 C 
ATOM     11  C   UNL     1      -1.810   5.419  -3.970  0.00  0.00    +0.033 C 
ATOM     12  O   UNL     1      -2.993   7.331  -3.497  0.00  0.00    -0.223 OA
ATOM     13  C   UNL     1       1.193   6.598  -4.374  0.00  0.00    +0.033 C 
ATOM     14  C   UNL     1      -1.560   5.776  -6.848  0.00  0.00    +0.000 C 
ATOM     15  C   UNL     1      -0.645   4.864  -4.733  0.00  0.00    +0.003 C 
ATOM     16  C   UNL     1       2.161   5.498  -5.085  0.00  0.00    +0.152 C 
ATOM     17  O   UNL     1       3.396   6.332  -4.799  0.00  0.00    -0.223 OA
ATOM     18  C   UNL     1       4.344   5.944  -7.405  0.00  0.00    +0.000 C 
ATOM     19  C   UNL     1       2.904   7.365  -8.502  0.00  0.00    +0.000 C 
ATOM     20  C   UNL     1       1.253   5.563  -9.247  0.00  0.00    +0.000 C 
ATOM     21  C   UNL     1       4.827   5.945  -8.858  0.00  0.00    +0.000 C 
ENDROOT
BRANCH   1  23
ATOM     22  C   UNL     1       2.707   5.459 -12.053  0.00  0.00    +0.000 C 
ATOM     23  C   UNL     1       3.756   6.165 -11.055  0.00  0.00    +0.001 C 
BRANCH  23  24
ATOM     24  C   UNL     1       4.923   5.203 -11.659  0.00  0.00    +0.012 C 
BRANCH  24  25
ATOM     25  C   UNL     1       5.889   6.018 -12.371  0.00  0.00    +0.114 C 
BRANCH  25  26
ATOM     26  C   UNL     1       7.213   5.453 -12.235  0.00  0.00    +0.365 C 
ATOM     27  O   UNL     1       7.660   5.471 -10.901  0.00  0.00    -0.246 OA
ATOM     28  O   UNL     1       7.697   4.600 -13.038  0.00  0.00    -0.246 OA
ENDBRANCH  25  26
ENDBRANCH  24  25
ENDBRANCH  23  24
ENDBRANCH   1  23
TORSDOF 4
ENDMDL
MODEL 7
REMARK VINA RESULT:      -8.4      3.336      5.053
REMARK  Name = 
REMARK  4 active torsions:
REMARK  status: ('A' for Active; 'I' for Inactive)
REMARK    1  A    between atoms: C_2  and  C_3
REMARK    2  A    between atoms: C_2  and  C_8
REMARK    3  A    between atoms: C_3  and  C_4
REMARK    4  A    between atoms: C_4  and  C_5
REMARK                            x       y       z     vdW  Elec       q    Type
REMARK                         _______ _______ _______ _____ _____    ______ ____
ROOT
ATOM      1  C   UNL     1       1.778   5.113  -7.706  0.00  0.00    +0.000 C 
ATOM      2  C   UNL     1       1.889   6.087  -6.442  0.00  0.00    +0.000 C 
ATOM      3  C   UNL     1       3.282   5.356  -6.017  0.00  0.00    +0.002 C 
ATOM      4  C   UNL     1       3.492   6.537  -4.849  0.00  0.00    +0.030 C 
ATOM      5  C   UNL     1       2.683   5.511  -3.788  0.00  0.00    +0.002 C 
ATOM      6  C   UNL     1       1.270   6.221  -4.187  0.00  0.00    +0.000 C 
ATOM      7  C   UNL     1       2.901   6.292  -2.396  0.00  0.00    +0.000 C 
ATOM      8  C   UNL     1       3.446   7.734  -2.858  0.00  0.00    +0.005 C 
ATOM      9  C   UNL     1       3.929   8.307  -1.410  0.00  0.00    +0.033 C 
ATOM     10  C   UNL     1       2.888   7.629  -0.346  0.00  0.00    +0.152 C 
ATOM     11  C   UNL     1       3.867   6.303  -0.208  0.00  0.00    +0.033 C 
ATOM     12  O   UNL     1       3.547   8.327   0.832  0.00  0.00    -0.223 OA
ATOM     13  C   UNL     1       4.978   7.238  -3.117  0.00  0.00    +0.033 C 
ATOM     14  C   UNL     1       1.503   6.321  -1.907  0.00  0.00    +0.000 C 
ATOM     15  C   UNL     1       3.843   5.594  -1.529  0.00  0.00    +0.003 C 
ATOM     16  C   UNL     1       4.932   6.007  -4.183  0.00  0.00    +0.152 C 
ATOM     17  O   UNL     1       5.755   6.788  -5.191  0.00  0.00    -0.223 OA
ATOM     18  C   UNL     1       4.029   6.054  -7.269  0.00  0.00    +0.000 C 
ATOM     19  C   UNL     1       2.262   7.432  -6.742  0.00  0.00    +0.000 C 
ATOM     20  C   UNL     1       0.896   5.666  -5.501  0.00  0.00    +0.000 C 
ATOM     21  C   UNL     1       3.029   5.862  -8.412  0.00  0.00    +0.000 C 
ENDROOT
BRANCH   1  23
ATOM     22  C   UNL     1      -0.766   5.181  -8.120  0.00  0.00    +0.000 C 
ATOM     23  C   UNL     1       0.585   5.903  -8.622  0.00  0.00    +0.001 C 
BRANCH  23  24
ATOM     24  C   UNL     1       0.698   4.788  -9.804  0.00  0.00    +0.012 C 
BRANCH  24  25
ATOM     25  C   UNL     1      -0.007   5.267 -10.978  0.00  0.00    +0.114 C 
BRANCH  25  26
ATOM     26  C   UNL     1       0.453   6.593 -11.328  0.00  0.00    +0.365 C 
ATOM     27  O   UNL     1       1.720   6.570 -11.937  0.00  0.00    -0.246 OA
ATOM     28  O   UNL     1      -0.327   7.565 -11.559  0.00  0.00    -0.246 OA
ENDBRANCH  25  26
ENDBRANCH  24  25
ENDBRANCH  23  24
ENDBRANCH   1  23
TORSDOF 4
ENDMDL
MODEL 8
REMARK VINA RESULT:      -8.3      3.546      7.810
REMARK  Name = 
REMARK  4 active torsions:
REMARK  status: ('A' for Active; 'I' for Inactive)
REMARK    1  A    between atoms: C_2  and  C_3
REMARK    2  A    between atoms: C_2  and  C_8
REMARK    3  A    between atoms: C_3  and  C_4
REMARK    4  A    between atoms: C_4  and  C_5
REMARK                            x       y       z     vdW  Elec       q    Type
REMARK                         _______ _______ _______ _____ _____    ______ ____
ROOT
ATOM      1  C   UNL     1       3.504   6.996  -3.485  0.00  0.00    +0.000 C 
ATOM      2  C   UNL     1       2.865   6.073  -4.624  0.00  0.00    +0.000 C 
ATOM      3  C   UNL     1       3.587   6.995  -5.758  0.00  0.00    +0.002 C 
ATOM      4  C   UNL     1       3.104   5.879  -6.908  0.00  0.00    +0.030 C 
ATOM      5  C   UNL     1       1.714   6.808  -7.101  0.00  0.00    +0.002 C 
ATOM      6  C   UNL     1       0.958   5.904  -5.974  0.00  0.00    +0.000 C 
ATOM      7  C   UNL     1       1.056   6.093  -8.388  0.00  0.00    +0.000 C 
ATOM      8  C   UNL     1       1.898   4.729  -8.528  0.00  0.00    +0.005 C 
ATOM      9  C   UNL     1       1.387   4.258 -10.004  0.00  0.00    +0.033 C 
ATOM     10  C   UNL     1      -0.149   4.811 -10.088  0.00  0.00    +0.152 C 
ATOM     11  C   UNL     1       0.387   6.260 -10.678  0.00  0.00    +0.033 C 
ATOM     12  O   UNL     1      -0.341   4.234 -11.481  0.00  0.00    -0.223 OA
ATOM     13  C   UNL     1       3.185   5.423  -9.250  0.00  0.00    +0.033 C 
ATOM     14  C   UNL     1      -0.319   5.886  -7.878  0.00  0.00    +0.000 C 
ATOM     15  C   UNL     1       1.153   6.931  -9.577  0.00  0.00    +0.003 C 
ATOM     16  C   UNL     1       3.724   6.614  -8.277  0.00  0.00    +0.152 C 
ATOM     17  O   UNL     1       5.068   5.929  -8.107  0.00  0.00    -0.223 OA
ATOM     18  C   UNL     1       5.022   6.378  -5.344  0.00  0.00    +0.000 C 
ATOM     19  C   UNL     1       3.464   4.785  -4.770  0.00  0.00    +0.000 C 
ATOM     20  C   UNL     1       1.467   6.376  -4.672  0.00  0.00    +0.000 C 
ATOM     21  C   UNL     1       4.979   6.408  -3.814  0.00  0.00    +0.000 C 
ENDROOT
BRANCH   1  23
ATOM     22  C   UNL     1       1.823   6.549  -1.582  0.00  0.00    +0.000 C 
ATOM     23  C   UNL     1       3.256   6.031  -2.107  0.00  0.00    +0.001 C 
BRANCH  23  24
ATOM     24  C   UNL     1       3.967   7.143  -1.153  0.00  0.00    +0.012 C 
BRANCH  24  25
ATOM     25  C   UNL     1       4.621   6.470  -0.046  0.00  0.00    +0.114 C 
BRANCH  25  26
ATOM     26  C   UNL     1       4.682   7.346   1.103  0.00  0.00    +0.365 C 
ATOM     27  O   UNL     1       4.402   8.683   0.764  0.00  0.00    -0.246 OA
ATOM     28  O   UNL     1       4.484   6.956   2.292  0.00  0.00    -0.246 OA
ENDBRANCH  25  26
ENDBRANCH  24  25
ENDBRANCH  23  24
ENDBRANCH   1  23
TORSDOF 4
ENDMDL
MODEL 9
REMARK VINA RESULT:      -8.3      3.037      7.410
REMARK  Name = 
REMARK  4 active torsions:
REMARK  status: ('A' for Active; 'I' for Inactive)
REMARK    1  A    between atoms: C_2  and  C_3
REMARK    2  A    between atoms: C_2  and  C_8
REMARK    3  A    between atoms: C_3  and  C_4
REMARK    4  A    between atoms: C_4  and  C_5
REMARK                            x       y       z     vdW  Elec       q    Type
REMARK                         _______ _______ _______ _____ _____    ______ ____
ROOT
ATOM      1  C   UNL     1       3.051   5.475  -5.210  0.00  0.00    +0.000 C 
ATOM      2  C   UNL     1       2.617   6.237  -6.547  0.00  0.00    +0.000 C 
ATOM      3  C   UNL     1       1.630   4.995  -6.920  0.00  0.00    +0.002 C 
ATOM      4  C   UNL     1       1.021   5.915  -8.178  0.00  0.00    +0.030 C 
ATOM      5  C   UNL     1       2.201   5.213  -9.151  0.00  0.00    +0.002 C 
ATOM      6  C   UNL     1       3.214   6.442  -8.803  0.00  0.00    +0.000 C 
ATOM      7  C   UNL     1       1.746   5.747 -10.602  0.00  0.00    +0.000 C 
ATOM      8  C   UNL     1       0.670   6.892 -10.257  0.00  0.00    +0.005 C 
ATOM      9  C   UNL     1       0.054   7.129 -11.749  0.00  0.00    +0.033 C 
ATOM     10  C   UNL     1       1.313   6.836 -12.750  0.00  0.00    +0.152 C 
ATOM     11  C   UNL     1       0.930   5.228 -12.789  0.00  0.00    +0.033 C 
ATOM     12  O   UNL     1       0.477   7.138 -13.983  0.00  0.00    -0.223 OA
ATOM     13  C   UNL     1      -0.559   5.860  -9.968  0.00  0.00    +0.033 C 
ATOM     14  C   UNL     1       3.041   6.283 -11.084  0.00  0.00    +0.000 C 
ATOM     15  C   UNL     1       1.180   4.679 -11.416  0.00  0.00    +0.003 C 
ATOM     16  C   UNL     1      -0.077   4.821  -8.808  0.00  0.00    +0.152 C 
ATOM     17  O   UNL     1      -1.173   5.290  -7.869  0.00  0.00    -0.223 OA
ATOM     18  C   UNL     1       0.628   5.433  -5.731  0.00  0.00    +0.000 C 
ATOM     19  C   UNL     1       1.741   7.349  -6.355  0.00  0.00    +0.000 C 
ATOM     20  C   UNL     1       3.727   6.170  -7.447  0.00  0.00    +0.000 C 
ATOM     21  C   UNL     1       1.583   5.726  -4.571  0.00  0.00    +0.000 C 
ENDROOT
BRANCH   1  23
ATOM     22  C   UNL     1       5.351   6.566  -4.803  0.00  0.00    +0.000 C 
ATOM     23  C   UNL     1       3.812   6.729  -4.353  0.00  0.00    +0.001 C 
BRANCH  23  24
ATOM     24  C   UNL     1       4.113   5.740  -3.095  0.00  0.00    +0.012 C 
BRANCH  24  25
ATOM     25  C   UNL     1       3.958   6.483  -1.858  0.00  0.00    +0.114 C 
BRANCH  25  26
ATOM     26  C   UNL     1       4.314   5.651  -0.730  0.00  0.00    +0.365 C 
ATOM     27  O   UNL     1       4.217   6.345   0.490  0.00  0.00    -0.246 OA
ATOM     28  O   UNL     1       4.213   4.388  -0.733  0.00  0.00    -0.246 OA
ENDBRANCH  25  26
ENDBRANCH  24  25
ENDBRANCH  23  24
ENDBRANCH   1  23
TORSDOF 4
ENDMDL
