MODEL 1
REMARK VINA RESULT:      -8.1      0.000      0.000
REMARK  Name = 
REMARK  7 active torsions:
REMARK  status: ('A' for Active; 'I' for Inactive)
REMARK    1  A    between atoms: O_2  and  C_3
REMARK    2  A    between atoms: N_8  and  C_10
REMARK    3  A    between atoms: C_10  and  C_11
REMARK    4  A    between atoms: C_11  and  C_12
REMARK    5  A    between atoms: C_12  and  N_13
REMARK    6  A    between atoms: C_14  and  C_16
REMARK    7  A    between atoms: C_26  and  O_27
REMARK                            x       y       z     vdW  Elec       q    Type
REMARK                         _______ _______ _______ _____ _____    ______ ____
ROOT
ATOM      1  C   UNL     1       6.441   5.522 -10.867  0.00  0.00    +0.174 A 
ATOM      2  C   UNL     1       5.250   5.621 -11.539  0.00  0.00    +0.173 A 
ATOM      3  C   UNL     1       4.098   5.476 -10.781  0.00  0.00    +0.044 A 
ATOM      4  C   UNL     1       4.181   5.306  -9.427  0.00  0.00    +0.056 A 
ATOM      5  C   UNL     1       5.393   5.481  -8.772  0.00  0.00    +0.090 A 
ATOM      6  N   UNL     1       5.330   5.644  -7.445  0.00  0.00    -0.213 NA
ATOM      7  C   UNL     1       4.189   5.504  -6.766  0.00  0.00    +0.221 A 
ATOM      8  N   UNL     1       3.107   4.994  -7.403  0.00  0.00    -0.195 NA
ATOM      9  N   UNL     1       4.117   5.784  -5.362  0.00  0.00    -0.276 N 
ATOM     10  C   UNL     1       4.730   4.805  -4.486  0.00  0.00    +0.115 C 
ATOM     11  C   UNL     1       3.117   4.766  -8.719  0.00  0.00    +0.174 A 
ATOM     12  N   UNL     1       2.043   4.141  -9.385  0.00  0.00    -0.107 NA
ATOM     13  C   UNL     1       6.561   5.633  -9.493  0.00  0.00    +0.059 A 
ENDROOT
BRANCH   1  15
ATOM     14  C   UNL     1       8.059   5.287 -11.789  0.00  0.00    +0.253 C 
ATOM     15  O   UNL     1       7.591   5.264 -11.610  0.00  0.00    -0.468 OA
ENDBRANCH   1  15
BRANCH   2  16
ATOM     16  O   UNL     1       5.226   6.071 -12.841  0.00  0.00    -0.468 OA
ATOM     17  C   UNL     1       4.301   5.564 -13.800  0.00  0.00    +0.253 C 
ENDBRANCH   2  16
BRANCH   9  18
ATOM     18  C   UNL     1       2.950   6.522  -4.924  0.00  0.00    +0.095 C 
BRANCH  18  19
ATOM     19  C   UNL     1       2.182   5.729  -3.898  0.00  0.00    +0.045 C 
BRANCH  19  20
ATOM     20  C   UNL     1       1.032   4.955  -4.487  0.00  0.00    +0.117 C 
BRANCH  20  21
ATOM     21  N   UNL     1      -0.142   5.824  -4.578  0.00  0.00    -0.203 NA
ATOM     22  C   UNL     1      -1.085   5.923  -3.499  0.00  0.00    +0.269 C 
ATOM     23  O   UNL     1      -1.015   5.039  -2.591  0.00  0.00    -0.271 OA
BRANCH  22  24
ATOM     24  C   UNL     1      -2.607   5.760  -4.102  0.00  0.00    +0.193 C 
ATOM     25  O   UNL     1      -3.236   6.663  -3.028  0.00  0.00    -0.347 OA
ATOM     26  C   UNL     1      -2.258   7.586  -2.831  0.00  0.00    +0.143 C 
ATOM     27  C   UNL     1      -2.019   8.125  -4.202  0.00  0.00    +0.035 C 
ATOM     28  C   UNL     1      -2.410   7.049  -5.144  0.00  0.00    +0.042 C 
ENDBRANCH  22  24
ENDBRANCH  20  21
ENDBRANCH  19  20
ENDBRANCH  18  19
ENDBRANCH   9  18
TORSDOF 7
ENDMDL
MODEL 2
REMARK VINA RESULT:      -8.1      2.092      9.454
REMARK  Name = 
REMARK  7 active torsions:
REMARK  status: ('A' for Active; 'I' for Inactive)
REMARK    1  A    between atoms: O_2  and  C_3
REMARK    2  A    between atoms: N_8  and  C_10
REMARK    3  A    between atoms: C_10  and  C_11
REMARK    4  A    between atoms: C_11  and  C_12
REMARK    5  A    between atoms: C_12  and  N_13
REMARK    6  A    between atoms: C_14  and  C_16
REMARK    7  A    between atoms: C_26  and  O_27
REMARK                            x       y       z     vdW  Elec       q    Type
REMARK                         _______ _______ _______ _____ _____    ______ ____
ROOT
ATOM      1  C   UNL     1      -1.685   5.608  -4.518  0.00  0.00    +0.174 A 
ATOM      2  C   UNL     1      -0.481   5.699  -3.868  0.00  0.00    +0.173 A 
ATOM      3  C   UNL     1       0.653   5.478  -4.635  0.00  0.00    +0.044 A 
ATOM      4  C   UNL     1       0.543   5.247  -5.978  0.00  0.00    +0.056 A 
ATOM      5  C   UNL     1      -0.673   5.432  -6.623  0.00  0.00    +0.090 A 
ATOM      6  N   UNL     1      -0.626   5.529  -7.957  0.00  0.00    -0.213 NA
ATOM      7  C   UNL     1       0.499   5.318  -8.645  0.00  0.00    +0.221 A 
ATOM      8  N   UNL     1       1.573   4.802  -8.000  0.00  0.00    -0.195 NA
ATOM      9  N   UNL     1       0.557   5.529 -10.061  0.00  0.00    -0.276 N 
ATOM     10  C   UNL     1      -0.102   4.531 -10.880  0.00  0.00    +0.115 C 
ATOM     11  C   UNL     1       1.577   4.638  -6.675  0.00  0.00    +0.174 A 
ATOM     12  N   UNL     1       2.640   4.010  -5.995  0.00  0.00    -0.107 NA
ATOM     13  C   UNL     1      -1.823   5.657  -5.894  0.00  0.00    +0.059 A 
ENDROOT
BRANCH   1  15
ATOM     14  C   UNL     1      -3.303   5.327  -3.608  0.00  0.00    +0.253 C 
ATOM     15  O   UNL     1      -2.831   5.425  -3.747  0.00  0.00    -0.468 OA
ENDBRANCH   1  15
BRANCH   2  16
ATOM     16  O   UNL     1      -0.421   6.209  -2.590  0.00  0.00    -0.468 OA
ATOM     17  C   UNL     1       0.060   5.440  -1.490  0.00  0.00    +0.253 C 
ENDBRANCH   2  16
BRANCH   9  18
ATOM     18  C   UNL     1       1.741   6.204 -10.552  0.00  0.00    +0.095 C 
BRANCH  18  19
ATOM     19  C   UNL     1       1.651   6.407 -12.042  0.00  0.00    +0.045 C 
BRANCH  19  20
ATOM     20  C   UNL     1       2.865   5.910 -12.782  0.00  0.00    +0.117 C 
BRANCH  20  21
ATOM     21  N   UNL     1       4.073   6.347 -12.082  0.00  0.00    -0.203 NA
ATOM     22  C   UNL     1       5.366   5.821 -12.422  0.00  0.00    +0.269 C 
ATOM     23  O   UNL     1       5.390   4.780 -13.148  0.00  0.00    -0.271 OA
BRANCH  22  24
ATOM     24  C   UNL     1       6.138   5.366 -11.042  0.00  0.00    +0.193 C 
ATOM     25  O   UNL     1       7.539   5.529 -11.655  0.00  0.00    -0.347 OA
ATOM     26  C   UNL     1       7.362   6.595 -12.478  0.00  0.00    +0.143 C 
ATOM     27  C   UNL     1       6.830   7.646 -11.562  0.00  0.00    +0.035 C 
ATOM     28  C   UNL     1       6.158   6.928 -10.453  0.00  0.00    +0.042 C 
ENDBRANCH  22  24
ENDBRANCH  20  21
ENDBRANCH  19  20
ENDBRANCH  18  19
ENDBRANCH   9  18
TORSDOF 7
ENDMDL
MODEL 3
REMARK VINA RESULT:      -7.7      1.694      2.120
REMARK  Name = 
REMARK  7 active torsions:
REMARK  status: ('A' for Active; 'I' for Inactive)
REMARK    1  A    between atoms: O_2  and  C_3
REMARK    2  A    between atoms: N_8  and  C_10
REMARK    3  A    between atoms: C_10  and  C_11
REMARK    4  A    between atoms: C_11  and  C_12
REMARK    5  A    between atoms: C_12  and  N_13
REMARK    6  A    between atoms: C_14  and  C_16
REMARK    7  A    between atoms: C_26  and  O_27
REMARK                            x       y       z     vdW  Elec       q    Type
REMARK                         _______ _______ _______ _____ _____    ______ ____
ROOT
ATOM      1  C   UNL     1       6.725   5.888 -11.324  0.00  0.00    +0.174 A 
ATOM      2  C   UNL     1       5.997   6.531 -12.292  0.00  0.00    +0.173 A 
ATOM      3  C   UNL     1       4.621   6.542 -12.125  0.00  0.00    +0.044 A 
ATOM      4  C   UNL     1       4.057   5.986 -11.011  0.00  0.00    +0.056 A 
ATOM      5  C   UNL     1       4.856   5.591  -9.944  0.00  0.00    +0.090 A 
ATOM      6  N   UNL     1       4.229   5.391  -8.780  0.00  0.00    -0.213 NA
ATOM      7  C   UNL     1       2.898   5.425  -8.674  0.00  0.00    +0.221 A 
ATOM      8  N   UNL     1       2.153   5.469  -9.805  0.00  0.00    -0.195 NA
ATOM      9  N   UNL     1       2.248   5.313  -7.401  0.00  0.00    -0.276 N 
ATOM     10  C   UNL     1       2.236   3.990  -6.808  0.00  0.00    +0.115 C 
ATOM     11  C   UNL     1       2.718   5.624 -11.004  0.00  0.00    +0.174 A 
ATOM     12  N   UNL     1       1.975   5.570 -12.201  0.00  0.00    -0.107 NA
ATOM     13  C   UNL     1       6.230   5.571 -10.071  0.00  0.00    +0.059 A 
ENDROOT
BRANCH   1  15
ATOM     14  C   UNL     1       8.513   5.381 -11.590  0.00  0.00    +0.253 C 
ATOM     15  O   UNL     1       8.029   5.507 -11.632  0.00  0.00    -0.468 OA
ENDBRANCH   1  15
BRANCH   2  16
ATOM     16  O   UNL     1       6.634   7.309 -13.234  0.00  0.00    -0.468 OA
ATOM     17  C   UNL     1       6.604   6.991 -14.623  0.00  0.00    +0.253 C 
ENDBRANCH   2  16
BRANCH   9  18
ATOM     18  C   UNL     1       1.142   6.220  -7.174  0.00  0.00    +0.095 C 
BRANCH  18  19
ATOM     19  C   UNL     1       0.355   5.797  -5.961  0.00  0.00    +0.045 C 
BRANCH  19  20
ATOM     20  C   UNL     1       0.626   6.651  -4.751  0.00  0.00    +0.117 C 
BRANCH  20  21
ATOM     21  N   UNL     1      -0.601   6.782  -3.965  0.00  0.00    -0.203 NA
ATOM     22  C   UNL     1      -0.885   5.896  -2.870  0.00  0.00    +0.269 C 
ATOM     23  O   UNL     1      -0.181   4.843  -2.784  0.00  0.00    -0.271 OA
BRANCH  22  24
ATOM     24  C   UNL     1      -2.426   5.338  -3.019  0.00  0.00    +0.193 C 
ATOM     25  O   UNL     1      -2.521   4.914  -1.544  0.00  0.00    -0.347 OA
ATOM     26  C   UNL     1      -1.790   5.880  -0.928  0.00  0.00    +0.143 C 
ATOM     27  C   UNL     1      -2.447   7.142  -1.378  0.00  0.00    +0.035 C 
ATOM     28  C   UNL     1      -3.079   6.838  -2.684  0.00  0.00    +0.042 C 
ENDBRANCH  22  24
ENDBRANCH  20  21
ENDBRANCH  19  20
ENDBRANCH  18  19
ENDBRANCH   9  18
TORSDOF 7
ENDMDL
MODEL 4
REMARK VINA RESULT:      -7.7      2.654      4.962
REMARK  Name = 
REMARK  7 active torsions:
REMARK  status: ('A' for Active; 'I' for Inactive)
REMARK    1  A    between atoms: O_2  and  C_3
REMARK    2  A    between atoms: N_8  and  C_10
REMARK    3  A    between atoms: C_10  and  C_11
REMARK    4  A    between atoms: C_11  and  C_12
REMARK    5  A    between atoms: C_12  and  N_13
REMARK    6  A    between atoms: C_14  and  C_16
REMARK    7  A    between atoms: C_26  and  O_27
REMARK                            x       y       z     vdW  Elec       q    Type
REMARK                         _______ _______ _______ _____ _____    ______ ____
ROOT
ATOM      1  C   UNL     1       1.523   5.603 -11.962  0.00  0.00    +0.174 A 
ATOM      2  C   UNL     1       2.725   6.158 -11.604  0.00  0.00    +0.173 A 
ATOM      3  C   UNL     1       2.837   6.597 -10.294  0.00  0.00    +0.044 A 
ATOM      4  C   UNL     1       1.807   6.414  -9.415  0.00  0.00    +0.056 A 
ATOM      5  C   UNL     1       0.726   5.612  -9.759  0.00  0.00    +0.090 A 
ATOM      6  N   UNL     1      -0.051   5.202  -8.750  0.00  0.00    -0.213 NA
ATOM      7  C   UNL     1       0.111   5.649  -7.502  0.00  0.00    +0.221 A 
ATOM      8  N   UNL     1       0.952   6.689  -7.284  0.00  0.00    -0.195 NA
ATOM      9  N   UNL     1      -0.660   5.122  -6.415  0.00  0.00    -0.276 N 
ATOM     10  C   UNL     1      -2.047   5.539  -6.358  0.00  0.00    +0.115 C 
ATOM     11  C   UNL     1       1.724   7.175  -8.258  0.00  0.00    +0.174 A 
ATOM     12  N   UNL     1       2.529   8.320  -8.083  0.00  0.00    -0.107 NA
ATOM     13  C   UNL     1       0.582   5.153 -11.053  0.00  0.00    +0.059 A 
ENDROOT
BRANCH   1  15
ATOM     14  C   UNL     1       0.968   5.483 -13.751  0.00  0.00    +0.253 C 
ATOM     15  O   UNL     1       1.221   5.518 -13.320  0.00  0.00    -0.468 OA
ENDBRANCH   1  15
BRANCH   2  16
ATOM     16  O   UNL     1       3.810   6.058 -12.446  0.00  0.00    -0.468 OA
ATOM     17  C   UNL     1       4.919   5.211 -12.154  0.00  0.00    +0.253 C 
ENDBRANCH   2  16
BRANCH   9  18
ATOM     18  C   UNL     1       0.069   4.858  -5.191  0.00  0.00    +0.095 C 
BRANCH  18  19
ATOM     19  C   UNL     1      -0.519   5.644  -4.049  0.00  0.00    +0.045 C 
BRANCH  19  20
ATOM     20  C   UNL     1       0.524   6.216  -3.125  0.00  0.00    +0.117 C 
BRANCH  20  21
ATOM     21  N   UNL     1       1.770   6.418  -3.864  0.00  0.00    -0.203 NA
ATOM     22  C   UNL     1       2.972   5.715  -3.510  0.00  0.00    +0.269 C 
ATOM     23  O   UNL     1       2.986   5.131  -2.383  0.00  0.00    -0.271 OA
BRANCH  22  24
ATOM     24  C   UNL     1       4.214   6.790  -3.421  0.00  0.00    +0.193 C 
ATOM     25  O   UNL     1       5.281   5.737  -3.763  0.00  0.00    -0.347 OA
ATOM     26  C   UNL     1       4.617   4.941  -4.643  0.00  0.00    +0.143 C 
ATOM     27  C   UNL     1       4.164   5.900  -5.692  0.00  0.00    +0.035 C 
ATOM     28  C   UNL     1       4.051   7.221  -5.027  0.00  0.00    +0.042 C 
ENDBRANCH  22  24
ENDBRANCH  20  21
ENDBRANCH  19  20
ENDBRANCH  18  19
ENDBRANCH   9  18
TORSDOF 7
ENDMDL
MODEL 5
REMARK VINA RESULT:      -7.5      2.045      3.583
REMARK  Name = 
REMARK  7 active torsions:
REMARK  status: ('A' for Active; 'I' for Inactive)
REMARK    1  A    between atoms: O_2  and  C_3
REMARK    2  A    between atoms: N_8  and  C_10
REMARK    3  A    between atoms: C_10  and  C_11
REMARK    4  A    between atoms: C_11  and  C_12
REMARK    5  A    between atoms: C_12  and  N_13
REMARK    6  A    between atoms: C_14  and  C_16
REMARK    7  A    between atoms: C_26  and  O_27
REMARK                            x       y       z     vdW  Elec       q    Type
REMARK                         _______ _______ _______ _____ _____    ______ ____
ROOT
ATOM      1  C   UNL     1       6.421   5.963 -10.616  0.00  0.00    +0.174 A 
ATOM      2  C   UNL     1       5.723   6.593 -11.614  0.00  0.00    +0.173 A 
ATOM      3  C   UNL     1       4.340   6.549 -11.522  0.00  0.00    +0.044 A 
ATOM      4  C   UNL     1       3.739   5.955 -10.448  0.00  0.00    +0.056 A 
ATOM      5  C   UNL     1       4.493   5.574  -9.345  0.00  0.00    +0.090 A 
ATOM      6  N   UNL     1       3.812   5.332  -8.219  0.00  0.00    -0.213 NA
ATOM      7  C   UNL     1       2.477   5.314  -8.185  0.00  0.00    +0.221 A 
ATOM      8  N   UNL     1       1.794   5.348  -9.355  0.00  0.00    -0.195 NA
ATOM      9  N   UNL     1       1.764   5.158  -6.952  0.00  0.00    -0.276 N 
ATOM     10  C   UNL     1       1.771   3.827  -6.378  0.00  0.00    +0.115 C 
ATOM     11  C   UNL     1       2.416   5.543 -10.519  0.00  0.00    +0.174 A 
ATOM     12  N   UNL     1       1.741   5.479 -11.756  0.00  0.00    -0.107 NA
ATOM     13  C   UNL     1       5.872   5.608  -9.397  0.00  0.00    +0.059 A 
ENDROOT
BRANCH   1  15
ATOM     14  C   UNL     1       8.167   5.427 -11.050  0.00  0.00    +0.253 C 
ATOM     15  O   UNL     1       7.754   5.636 -10.858  0.00  0.00    -0.468 OA
ENDBRANCH   1  15
BRANCH   2  16
ATOM     16  O   UNL     1       6.379   7.409 -12.509  0.00  0.00    -0.468 OA
ATOM     17  C   UNL     1       6.457   7.099 -13.898  0.00  0.00    +0.253 C 
ENDBRANCH   2  16
BRANCH   9  18
ATOM     18  C   UNL     1       0.613   6.019  -6.773  0.00  0.00    +0.095 C 
BRANCH  18  19
ATOM     19  C   UNL     1      -0.091   5.695  -5.482  0.00  0.00    +0.045 C 
BRANCH  19  20
ATOM     20  C   UNL     1       0.217   6.671  -4.377  0.00  0.00    +0.117 C 
BRANCH  20  21
ATOM     21  N   UNL     1       1.665   6.863  -4.290  0.00  0.00    -0.203 NA
ATOM     22  C   UNL     1       2.475   6.054  -3.422  0.00  0.00    +0.269 C 
ATOM     23  O   UNL     1       1.869   5.365  -2.544  0.00  0.00    -0.271 OA
BRANCH  22  24
ATOM     24  C   UNL     1       3.466   7.034  -2.548  0.00  0.00    +0.193 C 
ATOM     25  O   UNL     1       4.500   5.926  -2.291  0.00  0.00    -0.347 OA
ATOM     26  C   UNL     1       4.448   5.220  -3.450  0.00  0.00    +0.143 C 
ATOM     27  C   UNL     1       4.719   6.255  -4.490  0.00  0.00    +0.035 C 
ATOM     28  C   UNL     1       4.280   7.548  -3.912  0.00  0.00    +0.042 C 
ENDBRANCH  22  24
ENDBRANCH  20  21
ENDBRANCH  19  20
ENDBRANCH  18  19
ENDBRANCH   9  18
TORSDOF 7
ENDMDL
MODEL 6
REMARK VINA RESULT:      -7.4      2.232      3.380
REMARK  Name = 
REMARK  7 active torsions:
REMARK  status: ('A' for Active; 'I' for Inactive)
REMARK    1  A    between atoms: O_2  and  C_3
REMARK    2  A    between atoms: N_8  and  C_10
REMARK    3  A    between atoms: C_10  and  C_11
REMARK    4  A    between atoms: C_11  and  C_12
REMARK    5  A    between atoms: C_12  and  N_13
REMARK    6  A    between atoms: C_14  and  C_16
REMARK    7  A    between atoms: C_26  and  O_27
REMARK                            x       y       z     vdW  Elec       q    Type
REMARK                         _______ _______ _______ _____ _____    ______ ____
ROOT
ATOM      1  C   UNL     1       6.090   5.596 -10.771  0.00  0.00    +0.174 A 
ATOM      2  C   UNL     1       4.962   5.774 -11.530  0.00  0.00    +0.173 A 
ATOM      3  C   UNL     1       3.748   5.621 -10.878  0.00  0.00    +0.044 A 
ATOM      4  C   UNL     1       3.714   5.369  -9.535  0.00  0.00    +0.056 A 
ATOM      5  C   UNL     1       4.873   5.465  -8.775  0.00  0.00    +0.090 A 
ATOM      6  N   UNL     1       4.704   5.551  -7.450  0.00  0.00    -0.213 NA
ATOM      7  C   UNL     1       3.508   5.408  -6.875  0.00  0.00    +0.221 A 
ATOM      8  N   UNL     1       2.469   4.972  -7.627  0.00  0.00    -0.195 NA
ATOM      9  N   UNL     1       3.329   5.607  -5.467  0.00  0.00    -0.276 N 
ATOM     10  C   UNL     1       3.840   4.558  -4.606  0.00  0.00    +0.115 C 
ATOM     11  C   UNL     1       2.581   4.823  -8.949  0.00  0.00    +0.174 A 
ATOM     12  N   UNL     1       1.549   4.274  -9.737  0.00  0.00    -0.107 NA
ATOM     13  C   UNL     1       6.099   5.621  -9.388  0.00  0.00    +0.059 A 
ENDROOT
BRANCH   1  15
ATOM     14  C   UNL     1       7.624   5.209 -11.783  0.00  0.00    +0.253 C 
ATOM     15  O   UNL     1       7.290   5.345 -11.434  0.00  0.00    -0.468 OA
ENDBRANCH   1  15
BRANCH   2  16
ATOM     16  O   UNL     1       5.058   6.300 -12.799  0.00  0.00    -0.468 OA
ATOM     17  C   UNL     1       4.513   5.637 -13.937  0.00  0.00    +0.253 C 
ENDBRANCH   2  16
BRANCH   9  18
ATOM     18  C   UNL     1       2.150   6.355  -5.078  0.00  0.00    +0.095 C 
BRANCH  18  19
ATOM     19  C   UNL     1       1.171   5.460  -4.364  0.00  0.00    +0.045 C 
BRANCH  19  20
ATOM     20  C   UNL     1       0.716   6.017  -3.041  0.00  0.00    +0.117 C 
BRANCH  20  21
ATOM     21  N   UNL     1       1.845   6.668  -2.375  0.00  0.00    -0.203 NA
ATOM     22  C   UNL     1       2.461   6.090  -1.213  0.00  0.00    +0.269 C 
ATOM     23  O   UNL     1       1.829   5.155  -0.630  0.00  0.00    -0.271 OA
BRANCH  22  24
ATOM     24  C   UNL     1       2.615   7.251  -0.056  0.00  0.00    +0.193 C 
ATOM     25  O   UNL     1       3.834   6.579   0.597  0.00  0.00    -0.347 OA
ATOM     26  C   UNL     1       4.474   6.052  -0.480  0.00  0.00    +0.143 C 
ATOM     27  C   UNL     1       4.670   7.234  -1.369  0.00  0.00    +0.035 C 
ATOM     28  C   UNL     1       3.591   8.193  -1.030  0.00  0.00    +0.042 C 
ENDBRANCH  22  24
ENDBRANCH  20  21
ENDBRANCH  19  20
ENDBRANCH  18  19
ENDBRANCH   9  18
TORSDOF 7
ENDMDL
MODEL 7
REMARK VINA RESULT:      -7.3      2.884      4.798
REMARK  Name = 
REMARK  7 active torsions:
REMARK  status: ('A' for Active; 'I' for Inactive)
REMARK    1  A    between atoms: O_2  and  C_3
REMARK    2  A    between atoms: N_8  and  C_10
REMARK    3  A    between atoms: C_10  and  C_11
REMARK    4  A    between atoms: C_11  and  C_12
REMARK    5  A    between atoms: C_12  and  N_13
REMARK    6  A    between atoms: C_14  and  C_16
REMARK    7  A    between atoms: C_26  and  O_27
REMARK                            x       y       z     vdW  Elec       q    Type
REMARK                         _______ _______ _______ _____ _____    ______ ____
ROOT
ATOM      1  C   UNL     1       5.936   5.752 -13.766  0.00  0.00    +0.174 A 
ATOM      2  C   UNL     1       6.683   5.477 -12.650  0.00  0.00    +0.173 A 
ATOM      3  C   UNL     1       6.026   5.552 -11.432  0.00  0.00    +0.044 A 
ATOM      4  C   UNL     1       4.687   5.827 -11.387  0.00  0.00    +0.056 A 
ATOM      5  C   UNL     1       3.934   5.831 -12.553  0.00  0.00    +0.090 A 
ATOM      6  N   UNL     1       2.606   5.758 -12.399  0.00  0.00    -0.213 NA
ATOM      7  C   UNL     1       2.026   5.823 -11.199  0.00  0.00    +0.221 A 
ATOM      8  N   UNL     1       2.779   6.167 -10.126  0.00  0.00    -0.195 NA
ATOM      9  N   UNL     1       0.613   5.639 -11.042  0.00  0.00    -0.276 N 
ATOM     10  C   UNL     1      -0.224   6.739 -11.479  0.00  0.00    +0.115 C 
ATOM     11  C   UNL     1       4.104   6.298 -10.220  0.00  0.00    +0.174 A 
ATOM     12  N   UNL     1       4.896   6.754  -9.145  0.00  0.00    -0.107 NA
ATOM     13  C   UNL     1       4.552   5.755 -13.785  0.00  0.00    +0.059 A 
ENDROOT
BRANCH   1  15
ATOM     14  C   UNL     1       6.769   6.324 -15.348  0.00  0.00    +0.253 C 
ATOM     15  O   UNL     1       6.611   6.078 -14.941  0.00  0.00    -0.468 OA
ENDBRANCH   1  15
BRANCH   2  16
ATOM     16  O   UNL     1       7.943   4.935 -12.778  0.00  0.00    -0.468 OA
ATOM     17  C   UNL     1       9.113   5.629 -12.351  0.00  0.00    +0.253 C 
ENDBRANCH   2  16
BRANCH   9  18
ATOM     18  C   UNL     1       0.203   4.814  -9.925  0.00  0.00    +0.095 C 
BRANCH  18  19
ATOM     19  C   UNL     1      -0.329   5.670  -8.806  0.00  0.00    +0.045 C 
BRANCH  19  20
ATOM     20  C   UNL     1      -0.261   4.997  -7.460  0.00  0.00    +0.117 C 
BRANCH  20  21
ATOM     21  N   UNL     1       0.776   5.637  -6.650  0.00  0.00    -0.203 NA
ATOM     22  C   UNL     1       1.968   4.931  -6.268  0.00  0.00    +0.269 C 
ATOM     23  O   UNL     1       1.964   3.671  -6.421  0.00  0.00    -0.271 OA
BRANCH  22  24
ATOM     24  C   UNL     1       2.219   5.139  -4.655  0.00  0.00    +0.193 C 
ATOM     25  O   UNL     1       3.735   4.906  -4.761  0.00  0.00    -0.347 OA
ATOM     26  C   UNL     1       4.021   5.463  -5.967  0.00  0.00    +0.143 C 
ATOM     27  C   UNL     1       3.495   6.853  -5.832  0.00  0.00    +0.035 C 
ATOM     28  C   UNL     1       2.409   6.789  -4.824  0.00  0.00    +0.042 C 
ENDBRANCH  22  24
ENDBRANCH  20  21
ENDBRANCH  19  20
ENDBRANCH  18  19
ENDBRANCH   9  18
TORSDOF 7
ENDMDL
MODEL 8
REMARK VINA RESULT:      -7.3      2.306      8.618
REMARK  Name = 
REMARK  7 active torsions:
REMARK  status: ('A' for Active; 'I' for Inactive)
REMARK    1  A    between atoms: O_2  and  C_3
REMARK    2  A    between atoms: N_8  and  C_10
REMARK    3  A    between atoms: C_10  and  C_11
REMARK    4  A    between atoms: C_11  and  C_12
REMARK    5  A    between atoms: C_12  and  N_13
REMARK    6  A    between atoms: C_14  and  C_16
REMARK    7  A    between atoms: C_26  and  O_27
REMARK                            x       y       z     vdW  Elec       q    Type
REMARK                         _______ _______ _______ _____ _____    ______ ____
ROOT
ATOM      1  C   UNL     1      -1.027   5.620  -3.553  0.00  0.00    +0.174 A 
ATOM      2  C   UNL     1      -0.157   6.127  -2.622  0.00  0.00    +0.173 A 
ATOM      3  C   UNL     1       1.192   6.052  -2.933  0.00  0.00    +0.044 A 
ATOM      4  C   UNL     1       1.595   5.551  -4.139  0.00  0.00    +0.056 A 
ATOM      5  C   UNL     1       0.665   5.304  -5.141  0.00  0.00    +0.090 A 
ATOM      6  N   UNL     1       1.154   5.154  -6.377  0.00  0.00    -0.213 NA
ATOM      7  C   UNL     1       2.466   5.101  -6.621  0.00  0.00    +0.221 A 
ATOM      8  N   UNL     1       3.321   4.999  -5.575  0.00  0.00    -0.195 NA
ATOM      9  N   UNL     1       2.974   5.047  -7.960  0.00  0.00    -0.276 N 
ATOM     10  C   UNL     1       2.820   3.780  -8.648  0.00  0.00    +0.115 C 
ATOM     11  C   UNL     1       2.894   5.095  -4.314  0.00  0.00    +0.174 A 
ATOM     12  N   UNL     1       3.746   4.890  -3.210  0.00  0.00    -0.107 NA
ATOM     13  C   UNL     1      -0.687   5.372  -4.871  0.00  0.00    +0.059 A 
ENDROOT
BRANCH   1  15
ATOM     14  C   UNL     1      -2.811   5.203  -3.140  0.00  0.00    +0.253 C 
ATOM     15  O   UNL     1      -2.321   5.309  -3.137  0.00  0.00    -0.468 OA
ENDBRANCH   1  15
BRANCH   2  16
ATOM     16  O   UNL     1      -0.632   6.869  -1.563  0.00  0.00    -0.468 OA
ATOM     17  C   UNL     1      -0.532   6.414  -0.216  0.00  0.00    +0.253 C 
ENDBRANCH   2  16
BRANCH   9  18
ATOM     18  C   UNL     1       4.121   5.888  -8.236  0.00  0.00    +0.095 C 
BRANCH  18  19
ATOM     19  C   UNL     1       4.676   5.589  -9.604  0.00  0.00    +0.045 C 
BRANCH  19  20
ATOM     20  C   UNL     1       4.336   6.642 -10.625  0.00  0.00    +0.117 C 
BRANCH  20  21
ATOM     21  N   UNL     1       2.900   6.608 -10.898  0.00  0.00    -0.203 NA
ATOM     22  C   UNL     1       2.367   5.868 -12.008  0.00  0.00    +0.269 C 
ATOM     23  O   UNL     1       3.194   5.478 -12.890  0.00  0.00    -0.271 OA
BRANCH  22  24
ATOM     24  C   UNL     1       1.319   6.827 -12.838  0.00  0.00    +0.193 C 
ATOM     25  O   UNL     1       0.556   5.638 -13.444  0.00  0.00    -0.347 OA
ATOM     26  C   UNL     1       0.603   4.730 -12.434  0.00  0.00    +0.143 C 
ATOM     27  C   UNL     1       0.015   5.475 -11.282  0.00  0.00    +0.035 C 
ATOM     28  C   UNL     1       0.264   6.913 -11.547  0.00  0.00    +0.042 C 
ENDBRANCH  22  24
ENDBRANCH  20  21
ENDBRANCH  19  20
ENDBRANCH  18  19
ENDBRANCH   9  18
TORSDOF 7
ENDMDL
MODEL 9
REMARK VINA RESULT:      -7.2      2.073      9.631
REMARK  Name = 
REMARK  7 active torsions:
REMARK  status: ('A' for Active; 'I' for Inactive)
REMARK    1  A    between atoms: O_2  and  C_3
REMARK    2  A    between atoms: N_8  and  C_10
REMARK    3  A    between atoms: C_10  and  C_11
REMARK    4  A    between atoms: C_11  and  C_12
REMARK    5  A    between atoms: C_12  and  N_13
REMARK    6  A    between atoms: C_14  and  C_16
REMARK    7  A    between atoms: C_26  and  O_27
REMARK                            x       y       z     vdW  Elec       q    Type
REMARK                         _______ _______ _______ _____ _____    ______ ____
ROOT
ATOM      1  C   UNL     1      -0.156   5.880  -2.138  0.00  0.00    +0.174 A 
ATOM      2  C   UNL     1       1.123   5.777  -1.655  0.00  0.00    +0.173 A 
ATOM      3  C   UNL     1       2.128   5.615  -2.596  0.00  0.00    +0.044 A 
ATOM      4  C   UNL     1       1.830   5.626  -3.931  0.00  0.00    +0.056 A 
ATOM      5  C   UNL     1       0.564   6.001  -4.363  0.00  0.00    +0.090 A 
ATOM      6  N   UNL     1       0.453   6.322  -5.657  0.00  0.00    -0.213 NA
ATOM      7  C   UNL     1       1.459   6.157  -6.520  0.00  0.00    +0.221 A 
ATOM      8  N   UNL     1       2.555   5.467  -6.121  0.00  0.00    -0.195 NA
ATOM      9  N   UNL     1       1.359   6.603  -7.878  0.00  0.00    -0.276 N 
ATOM     10  C   UNL     1       0.516   5.807  -8.748  0.00  0.00    +0.115 C 
ATOM     11  C   UNL     1       2.710   5.078  -4.853  0.00  0.00    +0.174 A 
ATOM     12  N   UNL     1       3.789   4.272  -4.437  0.00  0.00    -0.107 NA
ATOM     13  C   UNL     1      -0.461   6.174  -3.455  0.00  0.00    +0.059 A 
ENDROOT
BRANCH   1  15
ATOM     14  C   UNL     1      -1.637   5.693  -0.999  0.00  0.00    +0.253 C 
ATOM     15  O   UNL     1      -1.209   5.645  -1.255  0.00  0.00    -0.468 OA
ENDBRANCH   1  15
BRANCH   2  16
ATOM     16  O   UNL     1       1.387   6.054  -0.332  0.00  0.00    -0.468 OA
ATOM     17  C   UNL     1       1.567   7.387   0.140  0.00  0.00    +0.253 C 
ENDBRANCH   2  16
BRANCH   9  18
ATOM     18  C   UNL     1       2.527   7.272  -8.412  0.00  0.00    +0.095 C 
BRANCH  18  19
ATOM     19  C   UNL     1       2.925   6.663  -9.731  0.00  0.00    +0.045 C 
BRANCH  19  20
ATOM     20  C   UNL     1       4.115   5.747  -9.627  0.00  0.00    +0.117 C 
BRANCH  20  21
ATOM     21  N   UNL     1       5.035   6.020 -10.732  0.00  0.00    -0.203 NA
ATOM     22  C   UNL     1       6.452   5.830 -10.589  0.00  0.00    +0.269 C 
ATOM     23  O   UNL     1       6.897   5.684  -9.409  0.00  0.00    -0.271 OA
BRANCH  22  24
ATOM     24  C   UNL     1       7.230   7.166 -11.150  0.00  0.00    +0.193 C 
ATOM     25  O   UNL     1       8.518   6.397 -11.487  0.00  0.00    -0.347 OA
ATOM     26  C   UNL     1       8.028   5.197 -11.895  0.00  0.00    +0.143 C 
ATOM     27  C   UNL     1       7.082   5.569 -12.987  0.00  0.00    +0.035 C 
ATOM     28  C   UNL     1       6.636   6.953 -12.695  0.00  0.00    +0.042 C 
ENDBRANCH  22  24
ENDBRANCH  20  21
ENDBRANCH  19  20
ENDBRANCH  18  19
ENDBRANCH   9  18
TORSDOF 7
ENDMDL
