MODEL 1
REMARK VINA RESULT:      -8.6      0.000      0.000
REMARK  Name = 
REMARK  6 active torsions:
REMARK  status: ('A' for Active; 'I' for Inactive)
REMARK    1  A    between atoms: C_5  and  C_6
REMARK    2  A    between atoms: C_6  and  C_14
REMARK    3  A    between atoms: C_7  and  C_8
REMARK    4  A    between atoms: C_8  and  N_9
REMARK    5  A    between atoms: C_18  and  C_19
REMARK    6  A    between atoms: C_20  and  C_21
REMARK                            x       y       z     vdW  Elec       q    Type
REMARK                         _______ _______ _______ _____ _____    ______ ____
ROOT
ATOM      1  C   UNL     1       3.779   5.999  -9.635  0.00  0.00    +0.015 C 
ATOM      2  C   UNL     1       4.942   5.551 -10.112  0.00  0.00    -0.007 C 
ENDROOT
BRANCH   1   7
ATOM      3  C   UNL     1       4.619   7.559  -4.396  0.00  0.00    +0.031 C 
ATOM      4  C   UNL     1       3.939   6.753  -5.457  0.00  0.00    -0.022 A 
ATOM      5  C   UNL     1       2.911   7.280  -6.229  0.00  0.00    -0.004 A 
ATOM      6  C   UNL     1       2.730   6.876  -7.545  0.00  0.00    -0.000 A 
ATOM      7  C   UNL     1       3.715   6.125  -8.177  0.00  0.00    +0.001 A 
ATOM      8  C   UNL     1       4.478   5.331  -7.332  0.00  0.00    -0.000 A 
ATOM      9  C   UNL     1       4.536   5.609  -5.973  0.00  0.00    -0.004 A 
ENDBRANCH   1   7
BRANCH   1  10
ATOM     10  C   UNL     1       2.589   5.733 -10.453  0.00  0.00    +0.081 A 
ATOM     11  N   UNL     1       2.009   6.710 -11.188  0.00  0.00    -0.245 NA
ATOM     12  C   UNL     1       0.799   6.592 -11.753  0.00  0.00    +0.082 A 
ATOM     13  C   UNL     1      -0.074   5.690 -11.155  0.00  0.00    +0.019 A 
ATOM     14  C   UNL     1       0.365   4.776 -10.227  0.00  0.00    +0.003 A 
ATOM     15  C   UNL     1       1.738   4.726 -10.014  0.00  0.00    +0.019 A 
BRANCH  12  16
ATOM     16  C   UNL     1       0.289   7.575 -12.714  0.00  0.00    +0.026 C 
ATOM     17  C   UNL     1       0.388   7.329 -13.999  0.00  0.00    +0.088 C 
BRANCH  17  18
ATOM     18  C   UNL     1       1.149   6.199 -14.545  0.00  0.00    +0.388 C 
ATOM     19  O   UNL     1       2.383   6.530 -15.115  0.00  0.00    -0.241 OA
ATOM     20  O   UNL     1       0.572   5.198 -15.059  0.00  0.00    -0.241 OA
ENDBRANCH  17  18
ENDBRANCH  12  16
ENDBRANCH   1  10
BRANCH   2  21
ATOM     21  C   UNL     1       5.210   5.546 -11.566  0.00  0.00    +0.099 C 
BRANCH  21  22
ATOM     22  N   UNL     1       6.327   6.451 -11.813  0.00  0.00    -0.269 NA
ATOM     23  C   UNL     1       7.575   5.946 -11.307  0.00  0.00    +0.072 C 
ATOM     24  C   UNL     1       8.509   5.779 -12.478  0.00  0.00    +0.019 C 
ATOM     25  C   UNL     1       7.550   5.714 -13.640  0.00  0.00    +0.019 C 
ATOM     26  C   UNL     1       6.482   6.688 -13.226  0.00  0.00    +0.072 C 
ENDBRANCH  21  22
ENDBRANCH   2  21
TORSDOF 6
ENDMDL
MODEL 2
REMARK VINA RESULT:      -8.6      1.629      5.022
REMARK  Name = 
REMARK  6 active torsions:
REMARK  status: ('A' for Active; 'I' for Inactive)
REMARK    1  A    between atoms: C_5  and  C_6
REMARK    2  A    between atoms: C_6  and  C_14
REMARK    3  A    between atoms: C_7  and  C_8
REMARK    4  A    between atoms: C_8  and  N_9
REMARK    5  A    between atoms: C_18  and  C_19
REMARK    6  A    between atoms: C_20  and  C_21
REMARK                            x       y       z     vdW  Elec       q    Type
REMARK                         _______ _______ _______ _____ _____    ______ ____
ROOT
ATOM      1  C   UNL     1       3.593   6.223  -9.476  0.00  0.00    +0.015 C 
ATOM      2  C   UNL     1       3.243   6.951  -8.415  0.00  0.00    -0.007 C 
ENDROOT
BRANCH   1   7
ATOM      3  C   UNL     1       8.419   5.752 -12.137  0.00  0.00    +0.031 C 
ATOM      4  C   UNL     1       7.509   6.363 -11.118  0.00  0.00    -0.022 A 
ATOM      5  C   UNL     1       6.566   7.324 -11.463  0.00  0.00    -0.004 A 
ATOM      6  C   UNL     1       5.358   7.412 -10.784  0.00  0.00    -0.000 A 
ATOM      7  C   UNL     1       4.980   6.394  -9.916  0.00  0.00    +0.001 A 
ATOM      8  C   UNL     1       6.032   5.706  -9.325  0.00  0.00    -0.000 A 
ATOM      9  C   UNL     1       7.300   5.745  -9.891  0.00  0.00    -0.004 A 
ENDBRANCH   1   7
BRANCH   1  10
ATOM     10  C   UNL     1       2.515   5.856 -10.404  0.00  0.00    +0.081 A 
ATOM     11  N   UNL     1       1.869   6.793 -11.136  0.00  0.00    -0.245 NA
ATOM     12  C   UNL     1       0.734   6.553 -11.807  0.00  0.00    +0.082 A 
ATOM     13  C   UNL     1      -0.055   5.513 -11.330  0.00  0.00    +0.019 A 
ATOM     14  C   UNL     1       0.428   4.609 -10.414  0.00  0.00    +0.003 A 
ATOM     15  C   UNL     1       1.775   4.723 -10.088  0.00  0.00    +0.019 A 
BRANCH  12  16
ATOM     16  C   UNL     1       0.173   7.518 -12.758  0.00  0.00    +0.026 C 
ATOM     17  C   UNL     1       0.325   7.315 -14.045  0.00  0.00    +0.088 C 
BRANCH  17  18
ATOM     18  C   UNL     1       1.189   6.264 -14.596  0.00  0.00    +0.388 C 
ATOM     19  O   UNL     1       2.317   6.719 -15.286  0.00  0.00    -0.241 OA
ATOM     20  O   UNL     1       0.715   5.166 -15.007  0.00  0.00    -0.241 OA
ENDBRANCH  17  18
ENDBRANCH  12  16
ENDBRANCH   1  10
BRANCH   2  21
ATOM     21  C   UNL     1       1.937   6.746  -7.755  0.00  0.00    +0.099 C 
BRANCH  21  22
ATOM     22  N   UNL     1       2.196   6.325  -6.383  0.00  0.00    -0.269 NA
ATOM     23  C   UNL     1       1.056   6.496  -5.523  0.00  0.00    +0.072 C 
ATOM     24  C   UNL     1       0.664   5.137  -5.005  0.00  0.00    +0.019 C 
ATOM     25  C   UNL     1       1.296   4.218  -6.021  0.00  0.00    +0.019 C 
ATOM     26  C   UNL     1       2.577   4.935  -6.344  0.00  0.00    +0.072 C 
ENDBRANCH  21  22
ENDBRANCH   2  21
TORSDOF 6
ENDMDL
MODEL 3
REMARK VINA RESULT:      -8.5      4.890      6.906
REMARK  Name = 
REMARK  6 active torsions:
REMARK  status: ('A' for Active; 'I' for Inactive)
REMARK    1  A    between atoms: C_5  and  C_6
REMARK    2  A    between atoms: C_6  and  C_14
REMARK    3  A    between atoms: C_7  and  C_8
REMARK    4  A    between atoms: C_8  and  N_9
REMARK    5  A    between atoms: C_18  and  C_19
REMARK    6  A    between atoms: C_20  and  C_21
REMARK                            x       y       z     vdW  Elec       q    Type
REMARK                         _______ _______ _______ _____ _____    ______ ____
ROOT
ATOM      1  C   UNL     1       2.044   6.695  -6.603  0.00  0.00    +0.015 C 
ATOM      2  C   UNL     1       2.520   6.550  -7.840  0.00  0.00    -0.007 C 
ENDROOT
BRANCH   1   7
ATOM      3  C   UNL     1       4.083   4.926  -1.775  0.00  0.00    +0.031 C 
ATOM      4  C   UNL     1       4.204   5.313  -3.214  0.00  0.00    -0.022 A 
ATOM      5  C   UNL     1       3.865   4.437  -4.239  0.00  0.00    -0.004 A 
ATOM      6  C   UNL     1       3.345   4.910  -5.437  0.00  0.00    -0.000 A 
ATOM      7  C   UNL     1       2.937   6.235  -5.536  0.00  0.00    +0.001 A 
ATOM      8  C   UNL     1       3.609   7.119  -4.703  0.00  0.00    -0.000 A 
ATOM      9  C   UNL     1       4.289   6.650  -3.587  0.00  0.00    -0.004 A 
ENDBRANCH   1   7
BRANCH   1  10
ATOM     10  C   UNL     1       0.582   6.693  -6.458  0.00  0.00    +0.081 A 
ATOM     11  N   UNL     1      -0.012   7.139  -5.328  0.00  0.00    -0.245 NA
ATOM     12  C   UNL     1      -1.307   6.940  -5.045  0.00  0.00    +0.082 A 
ATOM     13  C   UNL     1      -1.905   5.837  -5.644  0.00  0.00    +0.019 A 
ATOM     14  C   UNL     1      -1.296   5.163  -6.675  0.00  0.00    +0.003 A 
ATOM     15  C   UNL     1      -0.116   5.717  -7.159  0.00  0.00    +0.019 A 
BRANCH  12  16
ATOM     16  C   UNL     1      -1.972   7.613  -3.925  0.00  0.00    +0.026 C 
ATOM     17  C   UNL     1      -2.082   6.990  -2.775  0.00  0.00    +0.088 C 
BRANCH  17  18
ATOM     18  C   UNL     1      -1.738   5.575  -2.591  0.00  0.00    +0.388 C 
ATOM     19  O   UNL     1      -2.825   4.696  -2.548  0.00  0.00    -0.241 OA
ATOM     20  O   UNL     1      -0.735   5.222  -1.906  0.00  0.00    -0.241 OA
ENDBRANCH  17  18
ENDBRANCH  12  16
ENDBRANCH   1  10
BRANCH   2  21
ATOM     21  C   UNL     1       1.809   7.133  -8.996  0.00  0.00    +0.099 C 
BRANCH  21  22
ATOM     22  N   UNL     1       1.982   6.226 -10.126  0.00  0.00    -0.269 NA
ATOM     23  C   UNL     1       1.741   4.852  -9.779  0.00  0.00    +0.072 C 
ATOM     24  C   UNL     1       0.583   4.365 -10.611  0.00  0.00    +0.019 C 
ATOM     25  C   UNL     1      -0.088   5.658 -11.005  0.00  0.00    +0.019 C 
ATOM     26  C   UNL     1       1.085   6.578 -11.198  0.00  0.00    +0.072 C 
ENDBRANCH  21  22
ENDBRANCH   2  21
TORSDOF 6
ENDMDL
MODEL 4
REMARK VINA RESULT:      -8.5      5.436      8.226
REMARK  Name = 
REMARK  6 active torsions:
REMARK  status: ('A' for Active; 'I' for Inactive)
REMARK    1  A    between atoms: C_5  and  C_6
REMARK    2  A    between atoms: C_6  and  C_14
REMARK    3  A    between atoms: C_7  and  C_8
REMARK    4  A    between atoms: C_8  and  N_9
REMARK    5  A    between atoms: C_18  and  C_19
REMARK    6  A    between atoms: C_20  and  C_21
REMARK                            x       y       z     vdW  Elec       q    Type
REMARK                         _______ _______ _______ _____ _____    ______ ____
ROOT
ATOM      1  C   UNL     1       1.176   6.395  -5.817  0.00  0.00    +0.015 C 
ATOM      2  C   UNL     1       1.547   7.155  -6.849  0.00  0.00    -0.007 C 
ENDROOT
BRANCH   1   7
ATOM      3  C   UNL     1      -3.586   6.242  -3.007  0.00  0.00    +0.031 C 
ATOM      4  C   UNL     1      -2.745   6.598  -4.193  0.00  0.00    -0.022 A 
ATOM      5  C   UNL     1      -1.926   7.721  -4.198  0.00  0.00    -0.004 A 
ATOM      6  C   UNL     1      -0.730   7.726  -4.904  0.00  0.00    -0.000 A 
ATOM      7  C   UNL     1      -0.225   6.536  -5.415  0.00  0.00    +0.001 A 
ATOM      8  C   UNL     1      -1.183   5.580  -5.727  0.00  0.00    -0.000 A 
ATOM      9  C   UNL     1      -2.452   5.651  -5.166  0.00  0.00    -0.004 A 
ENDBRANCH   1   7
BRANCH   1  10
ATOM     10  C   UNL     1       2.231   6.020  -4.867  0.00  0.00    +0.081 A 
ATOM     11  N   UNL     1       2.892   6.954  -4.145  0.00  0.00    -0.245 NA
ATOM     12  C   UNL     1       4.011   6.699  -3.454  0.00  0.00    +0.082 A 
ATOM     13  C   UNL     1       4.779   5.629  -3.898  0.00  0.00    +0.019 A 
ATOM     14  C   UNL     1       4.285   4.719  -4.802  0.00  0.00    +0.003 A 
ATOM     15  C   UNL     1       2.946   4.861  -5.149  0.00  0.00    +0.019 A 
BRANCH  12  16
ATOM     16  C   UNL     1       4.584   7.668  -2.514  0.00  0.00    +0.026 C 
ATOM     17  C   UNL     1       4.533   7.424  -1.226  0.00  0.00    +0.088 C 
BRANCH  17  18
ATOM     18  C   UNL     1       3.767   6.311  -0.649  0.00  0.00    +0.388 C 
ATOM     19  O   UNL     1       2.643   6.683   0.094  0.00  0.00    -0.241 OA
ATOM     20  O   UNL     1       4.332   5.245  -0.272  0.00  0.00    -0.241 OA
ENDBRANCH  17  18
ENDBRANCH  12  16
ENDBRANCH   1  10
BRANCH   2  21
ATOM     21  C   UNL     1       2.875   6.983  -7.474  0.00  0.00    +0.099 C 
BRANCH  21  22
ATOM     22  N   UNL     1       2.666   6.447  -8.815  0.00  0.00    -0.269 NA
ATOM     23  C   UNL     1       3.825   6.583  -9.656  0.00  0.00    +0.072 C 
ATOM     24  C   UNL     1       4.269   5.199 -10.052  0.00  0.00    +0.019 C 
ATOM     25  C   UNL     1       3.634   4.346  -8.982  0.00  0.00    +0.019 C 
ATOM     26  C   UNL     1       2.325   5.048  -8.752  0.00  0.00    +0.072 C 
ENDBRANCH  21  22
ENDBRANCH   2  21
TORSDOF 6
ENDMDL
MODEL 5
REMARK VINA RESULT:      -8.4      3.756      7.042
REMARK  Name = 
REMARK  6 active torsions:
REMARK  status: ('A' for Active; 'I' for Inactive)
REMARK    1  A    between atoms: C_5  and  C_6
REMARK    2  A    between atoms: C_6  and  C_14
REMARK    3  A    between atoms: C_7  and  C_8
REMARK    4  A    between atoms: C_8  and  N_9
REMARK    5  A    between atoms: C_18  and  C_19
REMARK    6  A    between atoms: C_20  and  C_21
REMARK                            x       y       z     vdW  Elec       q    Type
REMARK                         _______ _______ _______ _____ _____    ______ ____
ROOT
ATOM      1  C   UNL     1       4.060   6.034  -9.391  0.00  0.00    +0.015 C 
ATOM      2  C   UNL     1       3.472   4.929  -9.852  0.00  0.00    -0.007 C 
ENDROOT
BRANCH   1   7
ATOM      3  C   UNL     1       8.706   5.873 -12.389  0.00  0.00    +0.031 C 
ATOM      4  C   UNL     1       7.830   6.429 -11.311  0.00  0.00    -0.022 A 
ATOM      5  C   UNL     1       6.800   7.318 -11.592  0.00  0.00    -0.004 A 
ATOM      6  C   UNL     1       5.640   7.329 -10.828  0.00  0.00    -0.000 A 
ATOM      7  C   UNL     1       5.397   6.296  -9.930  0.00  0.00    +0.001 A 
ATOM      8  C   UNL     1       6.534   5.690  -9.412  0.00  0.00    -0.000 A 
ATOM      9  C   UNL     1       7.752   5.811 -10.069  0.00  0.00    -0.004 A 
ENDBRANCH   1   7
BRANCH   1  10
ATOM     10  C   UNL     1       3.649   6.487  -8.056  0.00  0.00    +0.081 A 
ATOM     11  N   UNL     1       3.836   5.713  -6.963  0.00  0.00    -0.245 NA
ATOM     12  C   UNL     1       3.272   5.964  -5.774  0.00  0.00    +0.082 A 
ATOM     13  C   UNL     1       2.093   6.700  -5.794  0.00  0.00    +0.019 A 
ATOM     14  C   UNL     1       1.685   7.368  -6.925  0.00  0.00    +0.003 A 
ATOM     15  C   UNL     1       2.572   7.364  -7.996  0.00  0.00    +0.019 A 
BRANCH  12  16
ATOM     16  C   UNL     1       3.657   5.237  -4.560  0.00  0.00    +0.026 C 
ATOM     17  C   UNL     1       4.267   5.880  -3.592  0.00  0.00    +0.088 C 
BRANCH  17  18
ATOM     18  C   UNL     1       4.754   7.258  -3.724  0.00  0.00    +0.388 C 
ATOM     19  O   UNL     1       6.095   7.384  -4.099  0.00  0.00    -0.241 OA
ATOM     20  O   UNL     1       4.312   8.190  -2.991  0.00  0.00    -0.241 OA
ENDBRANCH  17  18
ENDBRANCH  12  16
ENDBRANCH   1  10
BRANCH   2  21
ATOM     21  C   UNL     1       2.058   4.638  -9.536  0.00  0.00    +0.099 C 
BRANCH  21  22
ATOM     22  N   UNL     1       1.302   4.712 -10.781  0.00  0.00    -0.269 NA
ATOM     23  C   UNL     1      -0.110   4.880 -10.566  0.00  0.00    +0.072 C 
ATOM     24  C   UNL     1      -0.516   6.190 -11.189  0.00  0.00    +0.019 C 
ATOM     25  C   UNL     1       0.800   6.924 -11.267  0.00  0.00    +0.019 C 
ATOM     26  C   UNL     1       1.763   5.815 -11.587  0.00  0.00    +0.072 C 
ENDBRANCH  21  22
ENDBRANCH   2  21
TORSDOF 6
ENDMDL
MODEL 6
REMARK VINA RESULT:      -8.4      2.382      6.592
REMARK  Name = 
REMARK  6 active torsions:
REMARK  status: ('A' for Active; 'I' for Inactive)
REMARK    1  A    between atoms: C_5  and  C_6
REMARK    2  A    between atoms: C_6  and  C_14
REMARK    3  A    between atoms: C_7  and  C_8
REMARK    4  A    between atoms: C_8  and  N_9
REMARK    5  A    between atoms: C_18  and  C_19
REMARK    6  A    between atoms: C_20  and  C_21
REMARK                            x       y       z     vdW  Elec       q    Type
REMARK                         _______ _______ _______ _____ _____    ______ ____
ROOT
ATOM      1  C   UNL     1       2.156   6.759  -9.524  0.00  0.00    +0.015 C 
ATOM      2  C   UNL     1       1.467   6.753  -8.381  0.00  0.00    -0.007 C 
ENDROOT
BRANCH   1   7
ATOM      3  C   UNL     1       0.840   3.982 -14.123  0.00  0.00    +0.031 C 
ATOM      4  C   UNL     1       0.529   4.891 -12.976  0.00  0.00    -0.022 A 
ATOM      5  C   UNL     1       0.245   4.397 -11.708  0.00  0.00    -0.004 A 
ATOM      6  C   UNL     1       0.597   5.112 -10.571  0.00  0.00    -0.000 A 
ATOM      7  C   UNL     1       1.444   6.208 -10.680  0.00  0.00    +0.001 A 
ATOM      8  C   UNL     1       1.388   6.873 -11.898  0.00  0.00    -0.000 A 
ATOM      9  C   UNL     1       0.875   6.236 -13.020  0.00  0.00    -0.004 A 
ENDBRANCH   1   7
BRANCH   1  10
ATOM     10  C   UNL     1       3.619   6.712  -9.407  0.00  0.00    +0.081 A 
ATOM     11  N   UNL     1       4.417   7.109 -10.425  0.00  0.00    -0.245 NA
ATOM     12  C   UNL     1       5.735   6.865 -10.470  0.00  0.00    +0.082 A 
ATOM     13  C   UNL     1       6.182   5.765  -9.748  0.00  0.00    +0.019 A 
ATOM     14  C   UNL     1       5.379   5.139  -8.824  0.00  0.00    +0.003 A 
ATOM     15  C   UNL     1       4.151   5.739  -8.570  0.00  0.00    +0.019 A 
BRANCH  12  16
ATOM     16  C   UNL     1       6.608   7.486 -11.471  0.00  0.00    +0.026 C 
ATOM     17  C   UNL     1       6.951   6.802 -12.537  0.00  0.00    +0.088 C 
BRANCH  17  18
ATOM     18  C   UNL     1       6.659   5.373 -12.704  0.00  0.00    +0.388 C 
ATOM     19  O   UNL     1       7.771   4.526 -12.650  0.00  0.00    -0.241 OA
ATOM     20  O   UNL     1       5.715   4.972 -13.442  0.00  0.00    -0.241 OA
ENDBRANCH  17  18
ENDBRANCH  12  16
ENDBRANCH   1  10
BRANCH   2  21
ATOM     21  C   UNL     1       1.989   7.439  -7.181  0.00  0.00    +0.099 C 
BRANCH  21  22
ATOM     22  N   UNL     1       1.366   6.825  -6.014  0.00  0.00    -0.269 NA
ATOM     23  C   UNL     1       0.672   5.605  -6.330  0.00  0.00    +0.072 C 
ATOM     24  C   UNL     1       1.327   4.491  -5.556  0.00  0.00    +0.019 C 
ATOM     25  C   UNL     1       2.683   5.077  -5.247  0.00  0.00    +0.019 C 
ATOM     26  C   UNL     1       2.357   6.525  -5.012  0.00  0.00    +0.072 C 
ENDBRANCH  21  22
ENDBRANCH   2  21
TORSDOF 6
ENDMDL
MODEL 7
REMARK VINA RESULT:      -8.3      5.672      9.744
REMARK  Name = 
REMARK  6 active torsions:
REMARK  status: ('A' for Active; 'I' for Inactive)
REMARK    1  A    between atoms: C_5  and  C_6
REMARK    2  A    between atoms: C_6  and  C_14
REMARK    3  A    between atoms: C_7  and  C_8
REMARK    4  A    between atoms: C_8  and  N_9
REMARK    5  A    between atoms: C_18  and  C_19
REMARK    6  A    between atoms: C_20  and  C_21
REMARK                            x       y       z     vdW  Elec       q    Type
REMARK                         _______ _______ _______ _____ _____    ______ ____
ROOT
ATOM      1  C   UNL     1       1.151   6.109  -5.913  0.00  0.00    +0.015 C 
ATOM      2  C   UNL     1      -0.036   5.543  -5.689  0.00  0.00    -0.007 C 
ENDROOT
BRANCH   1   7
ATOM      3  C   UNL     1       3.554   5.700 -10.878  0.00  0.00    +0.031 C 
ATOM      4  C   UNL     1       2.527   6.236  -9.931  0.00  0.00    -0.022 A 
ATOM      5  C   UNL     1       1.390   5.508  -9.598  0.00  0.00    -0.004 A 
ATOM      6  C   UNL     1       0.815   5.623  -8.339  0.00  0.00    -0.000 A 
ATOM      7  C   UNL     1       1.501   6.280  -7.325  0.00  0.00    +0.001 A 
ATOM      8  C   UNL     1       2.375   7.270  -7.754  0.00  0.00    -0.000 A 
ATOM      9  C   UNL     1       2.832   7.279  -9.066  0.00  0.00    -0.004 A 
ENDBRANCH   1   7
BRANCH   1  10
ATOM     10  C   UNL     1       2.168   5.934  -4.868  0.00  0.00    +0.081 A 
ATOM     11  N   UNL     1       2.624   6.985  -4.148  0.00  0.00    -0.245 NA
ATOM     12  C   UNL     1       3.708   6.928  -3.363  0.00  0.00    +0.082 A 
ATOM     13  C   UNL     1       4.658   5.968  -3.692  0.00  0.00    +0.019 A 
ATOM     14  C   UNL     1       4.377   4.959  -4.582  0.00  0.00    +0.003 A 
ATOM     15  C   UNL     1       3.065   4.885  -5.036  0.00  0.00    +0.019 A 
BRANCH  12  16
ATOM     16  C   UNL     1       4.055   8.009  -2.435  0.00  0.00    +0.026 C 
ATOM     17  C   UNL     1       4.043   7.777  -1.144  0.00  0.00    +0.088 C 
BRANCH  17  18
ATOM     18  C   UNL     1       3.523   6.537  -0.554  0.00  0.00    +0.388 C 
ATOM     19  O   UNL     1       2.276   6.649   0.069  0.00  0.00    -0.241 OA
ATOM     20  O   UNL     1       4.294   5.665  -0.059  0.00  0.00    -0.241 OA
ENDBRANCH  17  18
ENDBRANCH  12  16
ENDBRANCH   1  10
BRANCH   2  21
ATOM     21  C   UNL     1      -0.595   5.474  -4.323  0.00  0.00    +0.099 C 
BRANCH  21  22
ATOM     22  N   UNL     1      -1.944   6.026  -4.369  0.00  0.00    -0.269 NA
ATOM     23  C   UNL     1      -2.850   5.359  -3.474  0.00  0.00    +0.072 C 
ATOM     24  C   UNL     1      -3.343   6.377  -2.478  0.00  0.00    +0.019 C 
ATOM     25  C   UNL     1      -2.279   7.442  -2.563  0.00  0.00    +0.019 C 
ATOM     26  C   UNL     1      -1.930   7.426  -4.025  0.00  0.00    +0.072 C 
ENDBRANCH  21  22
ENDBRANCH   2  21
TORSDOF 6
ENDMDL
MODEL 8
REMARK VINA RESULT:      -8.2      5.738      9.869
REMARK  Name = 
REMARK  6 active torsions:
REMARK  status: ('A' for Active; 'I' for Inactive)
REMARK    1  A    between atoms: C_5  and  C_6
REMARK    2  A    between atoms: C_6  and  C_14
REMARK    3  A    between atoms: C_7  and  C_8
REMARK    4  A    between atoms: C_8  and  N_9
REMARK    5  A    between atoms: C_18  and  C_19
REMARK    6  A    between atoms: C_20  and  C_21
REMARK                            x       y       z     vdW  Elec       q    Type
REMARK                         _______ _______ _______ _____ _____    ______ ____
ROOT
ATOM      1  C   UNL     1       0.820   6.524  -5.874  0.00  0.00    +0.015 C 
ATOM      2  C   UNL     1      -0.429   6.543  -5.406  0.00  0.00    -0.007 C 
ENDROOT
BRANCH   1   7
ATOM      3  C   UNL     1       0.249   6.990 -11.357  0.00  0.00    +0.031 C 
ATOM      4  C   UNL     1       0.838   6.385 -10.121  0.00  0.00    -0.022 A 
ATOM      5  C   UNL     1       1.879   6.996  -9.432  0.00  0.00    -0.004 A 
ATOM      6  C   UNL     1       1.990   6.870  -8.054  0.00  0.00    -0.000 A 
ATOM      7  C   UNL     1       0.937   6.334  -7.323  0.00  0.00    +0.001 A 
ATOM      8  C   UNL     1       0.142   5.430  -8.015  0.00  0.00    -0.000 A 
ATOM      9  C   UNL     1       0.145   5.417  -9.404  0.00  0.00    -0.004 A 
ENDBRANCH   1   7
BRANCH   1  10
ATOM     10  C   UNL     1       1.865   6.086  -4.940  0.00  0.00    +0.081 A 
ATOM     11  N   UNL     1       2.633   6.980  -4.276  0.00  0.00    -0.245 NA
ATOM     12  C   UNL     1       3.745   6.646  -3.606  0.00  0.00    +0.082 A 
ATOM     13  C   UNL     1       4.394   5.491  -4.028  0.00  0.00    +0.019 A 
ATOM     14  C   UNL     1       3.788   4.599  -4.879  0.00  0.00    +0.003 A 
ATOM     15  C   UNL     1       2.458   4.855  -5.194  0.00  0.00    +0.019 A 
BRANCH  12  16
ATOM     16  C   UNL     1       4.436   7.592  -2.724  0.00  0.00    +0.026 C 
ATOM     17  C   UNL     1       4.484   7.351  -1.435  0.00  0.00    +0.088 C 
BRANCH  17  18
ATOM     18  C   UNL     1       3.724   6.274  -0.789  0.00  0.00    +0.388 C 
ATOM     19  O   UNL     1       2.608   6.688  -0.056  0.00  0.00    -0.241 OA
ATOM     20  O   UNL     1       4.292   5.229  -0.359  0.00  0.00    -0.241 OA
ENDBRANCH  17  18
ENDBRANCH  12  16
ENDBRANCH   1  10
BRANCH   2  21
ATOM     21  C   UNL     1      -0.702   6.906  -4.000  0.00  0.00    +0.099 C 
BRANCH  21  22
ATOM     22  N   UNL     1      -1.229   5.721  -3.332  0.00  0.00    -0.269 NA
ATOM     23  C   UNL     1      -0.987   5.726  -1.915  0.00  0.00    +0.072 C 
ATOM     24  C   UNL     1      -2.325   5.715  -1.221  0.00  0.00    +0.019 C 
ATOM     25  C   UNL     1      -3.244   6.227  -2.303  0.00  0.00    +0.019 C 
ATOM     26  C   UNL     1      -2.651   5.614  -3.540  0.00  0.00    +0.072 C 
ENDBRANCH  21  22
ENDBRANCH   2  21
TORSDOF 6
ENDMDL
MODEL 9
REMARK VINA RESULT:      -8.1      4.723      8.807
REMARK  Name = 
REMARK  6 active torsions:
REMARK  status: ('A' for Active; 'I' for Inactive)
REMARK    1  A    between atoms: C_5  and  C_6
REMARK    2  A    between atoms: C_6  and  C_14
REMARK    3  A    between atoms: C_7  and  C_8
REMARK    4  A    between atoms: C_8  and  N_9
REMARK    5  A    between atoms: C_18  and  C_19
REMARK    6  A    between atoms: C_20  and  C_21
REMARK                            x       y       z     vdW  Elec       q    Type
REMARK                         _______ _______ _______ _____ _____    ______ ____
ROOT
ATOM      1  C   UNL     1       0.402   5.762  -7.951  0.00  0.00    +0.015 C 
ATOM      2  C   UNL     1      -0.698   5.399  -7.290  0.00  0.00    -0.007 C 
ENDROOT
BRANCH   1   7
ATOM      3  C   UNL     1       1.469   5.463 -13.370  0.00  0.00    +0.031 C 
ATOM      4  C   UNL     1       0.556   5.620 -12.195  0.00  0.00    -0.022 A 
ATOM      5  C   UNL     1       0.104   4.524 -11.470  0.00  0.00    -0.004 A 
ATOM      6  C   UNL     1      -0.145   4.626 -10.107  0.00  0.00    -0.000 A 
ATOM      7  C   UNL     1       0.279   5.752  -9.411  0.00  0.00    +0.001 A 
ATOM      8  C   UNL     1       0.354   6.915 -10.167  0.00  0.00    -0.000 A 
ATOM      9  C   UNL     1       0.429   6.845 -11.552  0.00  0.00    -0.004 A 
ENDBRANCH   1   7
BRANCH   1  10
ATOM     10  C   UNL     1       1.683   5.535  -7.270  0.00  0.00    +0.081 A 
ATOM     11  N   UNL     1       2.229   6.479  -6.469  0.00  0.00    -0.245 NA
ATOM     12  C   UNL     1       3.491   6.427  -6.021  0.00  0.00    +0.082 A 
ATOM     13  C   UNL     1       4.390   5.700  -6.793  0.00  0.00    +0.019 A 
ATOM     14  C   UNL     1       3.959   4.856  -7.789  0.00  0.00    +0.003 A 
ATOM     15  C   UNL     1       2.584   4.683  -7.897  0.00  0.00    +0.019 A 
BRANCH  12  16
ATOM     16  C   UNL     1       3.989   7.343  -4.990  0.00  0.00    +0.026 C 
ATOM     17  C   UNL     1       4.025   6.946  -3.740  0.00  0.00    +0.088 C 
BRANCH  17  18
ATOM     18  C   UNL     1       3.421   5.690  -3.278  0.00  0.00    +0.388 C 
ATOM     19  O   UNL     1       2.090   5.786  -2.860  0.00  0.00    -0.241 OA
ATOM     20  O   UNL     1       4.105   4.803  -2.691  0.00  0.00    -0.241 OA
ENDBRANCH  17  18
ENDBRANCH  12  16
ENDBRANCH   1  10
BRANCH   2  21
ATOM     21  C   UNL     1      -0.775   5.537  -5.820  0.00  0.00    +0.099 C 
BRANCH  21  22
ATOM     22  N   UNL     1      -2.115   6.010  -5.490  0.00  0.00    -0.269 NA
ATOM     23  C   UNL     1      -2.656   5.378  -4.317  0.00  0.00    +0.072 C 
ATOM     24  C   UNL     1      -2.905   6.452  -3.291  0.00  0.00    +0.019 C 
ATOM     25  C   UNL     1      -2.003   7.562  -3.771  0.00  0.00    +0.019 C 
ATOM     26  C   UNL     1      -2.108   7.433  -5.265  0.00  0.00    +0.072 C 
ENDBRANCH  21  22
ENDBRANCH   2  21
TORSDOF 6
ENDMDL
