MODEL 1
REMARK VINA RESULT:      -5.5      0.000      0.000
REMARK  Name = 
REMARK  7 active torsions:
REMARK  status: ('A' for Active; 'I' for Inactive)
REMARK    1  A    between atoms: C_12  and  O_13
REMARK    2  A    between atoms: O_13  and  C_14
REMARK    3  A    between atoms: C_20  and  O_21
REMARK    4  A    between atoms: O_21  and  C_22
REMARK    5  A    between atoms: C_22  and  C_24
REMARK    6  A    between atoms: C_31  and  O_32
REMARK    7  A    between atoms: O_32  and  C_33
REMARK                            x       y       z     vdW  Elec       q    Type
REMARK                         _______ _______ _______ _____ _____    ______ ____
ROOT
ATOM      1  C   UNL     1      -2.037   8.189  -2.040  0.00  0.00    -0.006 C 
ATOM      2  C   UNL     1      -1.534   7.661  -1.357  0.00  0.00    -0.005 C 
ATOM      3  C   UNL     1      -0.238   7.129  -2.154  0.00  0.00    +0.194 C 
ATOM      4  C   UNL     1       0.508   6.317  -0.857  0.00  0.00    +0.128 C 
ATOM      5  C   UNL     1       1.853   7.086  -0.633  0.00  0.00    +0.197 C 
ATOM      6  C   UNL     1       2.898   5.977  -0.473  0.00  0.00    +0.052 C 
ATOM      7  C   UNL     1       2.025   4.627  -0.546  0.00  0.00    +0.044 C 
ATOM      8  C   UNL     1       3.120   3.809  -1.409  0.00  0.00    +0.004 C 
ATOM      9  C   UNL     1       1.862   7.745   0.704  0.00  0.00    +0.205 C 
ATOM     10  O   UNL     1       2.953   8.311   1.029  0.00  0.00    -0.288 OA
ATOM     11  C   UNL     1       0.700   8.423   1.324  0.00  0.00    +0.012 C 
ATOM     12  C   UNL     1       0.732   9.933   1.438  0.00  0.00    +0.034 C 
ATOM     13  C   UNL     1      -0.259   7.626   1.429  0.00  0.00    -0.028 C 
ATOM     14  C   UNL     1      -0.972   7.185   2.800  0.00  0.00    +0.022 C 
ATOM     15  C   UNL     1      -2.535   7.750   2.393  0.00  0.00    +0.004 C 
ATOM     16  C   UNL     1      -3.198   7.852   3.750  0.00  0.00    +0.000 C 
ATOM     17  C   UNL     1      -2.726   8.677   1.435  0.00  0.00    +0.000 C 
ATOM     18  C   UNL     1      -2.146   6.119   2.117  0.00  0.00    +0.005 C 
ATOM     19  C   UNL     1      -1.604   6.105   0.587  0.00  0.00    +0.005 C 
ATOM     20  C   UNL     1       1.133   5.130  -1.911  0.00  0.00    +0.177 C 
ATOM     21  C   UNL     1      -2.247   6.822  -0.394  0.00  0.00    +0.026 C 
ENDROOT
BRANCH   5  22
ATOM     22  O   UNL     1       2.325   7.964  -1.494  0.00  0.00    -0.448 OA
BRANCH  22  23
ATOM     23  C   UNL     1       3.625   8.468  -1.370  0.00  0.00    +0.318 C 
ATOM     24  O   UNL     1       4.601   8.058  -2.071  0.00  0.00    -0.250 OA
ATOM     25  C   UNL     1       3.687   9.952  -1.127  0.00  0.00    +0.121 C 
ENDBRANCH  22  23
ENDBRANCH   5  22
BRANCH   3  26
ATOM     26  O   UNL     1      -1.008   5.855  -2.539  0.00  0.00    -0.448 OA
BRANCH  26  27
ATOM     27  C   UNL     1      -1.818   5.852  -3.624  0.00  0.00    +0.318 C 
ATOM     28  O   UNL     1      -1.311   5.861  -4.781  0.00  0.00    -0.250 OA
ATOM     29  C   UNL     1      -3.054   5.004  -3.529  0.00  0.00    +0.121 C 
ENDBRANCH  26  27
ENDBRANCH   3  26
BRANCH  20  30
ATOM     30  O   UNL     1       2.239   5.874  -2.622  0.00  0.00    -0.449 OA
BRANCH  30  31
ATOM     31  C   UNL     1       2.196   5.589  -3.933  0.00  0.00    +0.341 C 
ATOM     32  O   UNL     1       1.415   4.632  -4.013  0.00  0.00    -0.245 OA
BRANCH  31  33
ATOM     33  C   UNL     1       2.595   6.035  -5.226  0.00  0.00    +0.076 A 
ATOM     34  C   UNL     1       1.846   5.535  -6.287  0.00  0.00    +0.006 A 
ATOM     35  C   UNL     1       2.299   5.479  -7.563  0.00  0.00    +0.000 A 
ATOM     36  C   UNL     1       3.615   5.683  -7.810  0.00  0.00    +0.000 A 
ATOM     37  C   UNL     1       4.492   5.760  -6.747  0.00  0.00    +0.000 A 
ATOM     38  C   UNL     1       3.941   6.250  -5.557  0.00  0.00    +0.006 A 
ENDBRANCH  31  33
ENDBRANCH  30  31
ENDBRANCH  20  30
TORSDOF 7
ENDMDL
MODEL 2
REMARK VINA RESULT:      -5.4      2.025      7.048
REMARK  Name = 
REMARK  7 active torsions:
REMARK  status: ('A' for Active; 'I' for Inactive)
REMARK    1  A    between atoms: C_12  and  O_13
REMARK    2  A    between atoms: O_13  and  C_14
REMARK    3  A    between atoms: C_20  and  O_21
REMARK    4  A    between atoms: O_21  and  C_22
REMARK    5  A    between atoms: C_22  and  C_24
REMARK    6  A    between atoms: C_31  and  O_32
REMARK    7  A    between atoms: O_32  and  C_33
REMARK                            x       y       z     vdW  Elec       q    Type
REMARK                         _______ _______ _______ _____ _____    ______ ____
ROOT
ATOM      1  C   UNL     1      -0.457   5.036  -4.607  0.00  0.00    -0.006 C 
ATOM      2  C   UNL     1       0.363   5.601  -4.687  0.00  0.00    -0.005 C 
ATOM      3  C   UNL     1       0.793   5.883  -3.160  0.00  0.00    +0.194 C 
ATOM      4  C   UNL     1       2.197   6.789  -3.482  0.00  0.00    +0.128 C 
ATOM      5  C   UNL     1       3.366   5.928  -2.897  0.00  0.00    +0.197 C 
ATOM      6  C   UNL     1       4.232   6.937  -2.137  0.00  0.00    +0.052 C 
ATOM      7  C   UNL     1       3.507   8.345  -2.424  0.00  0.00    +0.044 C 
ATOM      8  C   UNL     1       3.738   8.918  -0.931  0.00  0.00    +0.004 C 
ATOM      9  C   UNL     1       4.272   5.466  -3.987  0.00  0.00    +0.205 C 
ATOM     10  O   UNL     1       5.314   4.845  -3.607  0.00  0.00    -0.288 OA
ATOM     11  C   UNL     1       3.827   5.003  -5.321  0.00  0.00    +0.012 C 
ATOM     12  C   UNL     1       3.954   3.530  -5.645  0.00  0.00    +0.034 C 
ATOM     13  C   UNL     1       3.165   5.900  -5.891  0.00  0.00    -0.028 C 
ATOM     14  C   UNL     1       3.535   6.600  -7.289  0.00  0.00    +0.022 C 
ATOM     15  C   UNL     1       2.106   6.143  -8.114  0.00  0.00    +0.004 C 
ATOM     16  C   UNL     1       2.513   6.301  -9.564  0.00  0.00    +0.000 C 
ATOM     17  C   UNL     1       1.344   5.115  -7.695  0.00  0.00    +0.000 C 
ATOM     18  C   UNL     1       2.184   7.671  -7.375  0.00  0.00    +0.005 C 
ATOM     19  C   UNL     1       1.573   7.415  -5.893  0.00  0.00    +0.005 C 
ATOM     20  C   UNL     1       1.943   7.747  -2.094  0.00  0.00    +0.177 C 
ATOM     21  C   UNL     1       0.454   6.635  -5.718  0.00  0.00    +0.026 C 
ENDROOT
BRANCH   5  22
ATOM     22  O   UNL     1       3.163   4.895  -2.106  0.00  0.00    -0.448 OA
BRANCH  22  23
ATOM     23  C   UNL     1       4.137   4.488  -1.187  0.00  0.00    +0.318 C 
ATOM     24  O   UNL     1       4.525   5.210  -0.217  0.00  0.00    -0.250 OA
ATOM     25  C   UNL     1       4.057   3.032  -0.813  0.00  0.00    +0.121 C 
ENDBRANCH  22  23
ENDBRANCH   5  22
BRANCH   3  26
ATOM     26  O   UNL     1      -0.061   7.160  -3.162  0.00  0.00    -0.448 OA
BRANCH  26  27
ATOM     27  C   UNL     1      -1.372   7.103  -2.827  0.00  0.00    +0.318 C 
ATOM     28  O   UNL     1      -1.700   6.983  -1.613  0.00  0.00    -0.250 OA
ATOM     29  C   UNL     1      -2.297   7.998  -3.602  0.00  0.00    +0.121 C 
ENDBRANCH  26  27
ENDBRANCH   3  26
BRANCH  20  30
ATOM     30  O   UNL     1       2.311   6.803  -0.974  0.00  0.00    -0.449 OA
BRANCH  30  31
ATOM     31  C   UNL     1       1.449   6.960   0.043  0.00  0.00    +0.341 C 
ATOM     32  O   UNL     1       0.809   5.901   0.068  0.00  0.00    -0.245 OA
BRANCH  31  33
ATOM     33  C   UNL     1       1.096   7.799   1.139  0.00  0.00    +0.076 A 
ATOM     34  C   UNL     1       0.144   8.775   0.860  0.00  0.00    +0.006 A 
ATOM     35  C   UNL     1      -0.008   9.904   1.594  0.00  0.00    +0.000 A 
ATOM     36  C   UNL     1       0.946  10.246   2.493  0.00  0.00    +0.000 A 
ATOM     37  C   UNL     1       2.132   9.541   2.510  0.00  0.00    +0.000 A 
ATOM     38  C   UNL     1       2.037   8.207   2.097  0.00  0.00    +0.006 A 
ENDBRANCH  31  33
ENDBRANCH  30  31
ENDBRANCH  20  30
TORSDOF 7
ENDMDL
MODEL 3
REMARK VINA RESULT:      -4.9      3.633      7.019
REMARK  Name = 
REMARK  7 active torsions:
REMARK  status: ('A' for Active; 'I' for Inactive)
REMARK    1  A    between atoms: C_12  and  O_13
REMARK    2  A    between atoms: O_13  and  C_14
REMARK    3  A    between atoms: C_20  and  O_21
REMARK    4  A    between atoms: O_21  and  C_22
REMARK    5  A    between atoms: C_22  and  C_24
REMARK    6  A    between atoms: C_31  and  O_32
REMARK    7  A    between atoms: O_32  and  C_33
REMARK                            x       y       z     vdW  Elec       q    Type
REMARK                         _______ _______ _______ _____ _____    ______ ____
ROOT
ATOM      1  C   UNL     1       4.480   3.639  -4.700  0.00  0.00    -0.006 C 
ATOM      2  C   UNL     1       4.165   4.587  -4.703  0.00  0.00    -0.005 C 
ATOM      3  C   UNL     1       3.422   4.746  -6.124  0.00  0.00    +0.194 C 
ATOM      4  C   UNL     1       2.920   6.361  -5.939  0.00  0.00    +0.128 C 
ATOM      5  C   UNL     1       1.356   6.290  -5.942  0.00  0.00    +0.197 C 
ATOM      6  C   UNL     1       0.930   7.431  -6.870  0.00  0.00    +0.052 C 
ATOM      7  C   UNL     1       2.324   8.129  -7.273  0.00  0.00    +0.044 C 
ATOM      8  C   UNL     1       1.898   8.396  -8.809  0.00  0.00    +0.004 C 
ATOM      9  C   UNL     1       0.811   6.715  -4.621  0.00  0.00    +0.205 C 
ATOM     10  O   UNL     1      -0.456   6.794  -4.551  0.00  0.00    -0.288 OA
ATOM     11  C   UNL     1       1.402   6.369  -3.308  0.00  0.00    +0.012 C 
ATOM     12  C   UNL     1       0.659   5.385  -2.429  0.00  0.00    +0.034 C 
ATOM     13  C   UNL     1       2.585   6.771  -3.247  0.00  0.00    -0.028 C 
ATOM     14  C   UNL     1       3.169   7.824  -2.182  0.00  0.00    +0.022 C 
ATOM     15  C   UNL     1       4.340   6.777  -1.502  0.00  0.00    +0.004 C 
ATOM     16  C   UNL     1       4.633   7.448  -0.177  0.00  0.00    +0.000 C 
ATOM     17  C   UNL     1       4.247   5.439  -1.619  0.00  0.00    +0.000 C 
ATOM     18  C   UNL     1       4.800   7.841  -2.745  0.00  0.00    +0.005 C 
ATOM     19  C   UNL     1       4.603   6.964  -4.097  0.00  0.00    +0.005 C 
ATOM     20  C   UNL     1       3.107   6.650  -7.610  0.00  0.00    +0.177 C 
ATOM     21  C   UNL     1       5.004   5.650  -4.147  0.00  0.00    +0.026 C 
ENDROOT
BRANCH   5  22
ATOM     22  O   UNL     1       0.692   5.210  -6.299  0.00  0.00    -0.448 OA
BRANCH  22  23
ATOM     23  C   UNL     1      -0.573   5.305  -6.891  0.00  0.00    +0.318 C 
ATOM     24  O   UNL     1      -0.789   5.060  -8.118  0.00  0.00    -0.250 OA
ATOM     25  C   UNL     1      -1.698   4.828  -6.011  0.00  0.00    +0.121 C 
ENDBRANCH  22  23
ENDBRANCH   5  22
BRANCH   3  26
ATOM     26  O   UNL     1       4.746   5.205  -6.757  0.00  0.00    -0.448 OA
BRANCH  26  27
ATOM     27  C   UNL     1       5.254   4.546  -7.825  0.00  0.00    +0.318 C 
ATOM     28  O   UNL     1       4.496   3.818  -8.526  0.00  0.00    -0.250 OA
ATOM     29  C   UNL     1       6.279   5.285  -8.638  0.00  0.00    +0.121 C 
ENDBRANCH  26  27
ENDBRANCH   3  26
BRANCH  20  30
ATOM     30  O   UNL     1       1.926   5.917  -8.203  0.00  0.00    -0.449 OA
BRANCH  30  31
ATOM     31  C   UNL     1       2.221   5.539  -9.457  0.00  0.00    +0.341 C 
ATOM     32  O   UNL     1       1.908   4.342  -9.497  0.00  0.00    -0.245 OA
BRANCH  31  33
ATOM     33  C   UNL     1       2.620   6.008 -10.741  0.00  0.00    +0.076 A 
ATOM     34  C   UNL     1       1.732   5.738 -11.778  0.00  0.00    +0.006 A 
ATOM     35  C   UNL     1       2.094   5.703 -13.084  0.00  0.00    +0.000 A 
ATOM     36  C   UNL     1       3.408   5.686 -13.409  0.00  0.00    +0.000 A 
ATOM     37  C   UNL     1       4.343   5.518 -12.408  0.00  0.00    +0.000 A 
ATOM     38  C   UNL     1       3.962   6.003 -11.151  0.00  0.00    +0.006 A 
ENDBRANCH  31  33
ENDBRANCH  30  31
ENDBRANCH  20  30
TORSDOF 7
ENDMDL
MODEL 4
REMARK VINA RESULT:      -4.4      3.637      6.913
REMARK  Name = 
REMARK  7 active torsions:
REMARK  status: ('A' for Active; 'I' for Inactive)
REMARK    1  A    between atoms: C_12  and  O_13
REMARK    2  A    between atoms: O_13  and  C_14
REMARK    3  A    between atoms: C_20  and  O_21
REMARK    4  A    between atoms: O_21  and  C_22
REMARK    5  A    between atoms: C_22  and  C_24
REMARK    6  A    between atoms: C_31  and  O_32
REMARK    7  A    between atoms: O_32  and  C_33
REMARK                            x       y       z     vdW  Elec       q    Type
REMARK                         _______ _______ _______ _____ _____    ______ ____
ROOT
ATOM      1  C   UNL     1       1.463   4.428  -3.434  0.00  0.00    -0.006 C 
ATOM      2  C   UNL     1       1.104   5.134  -4.043  0.00  0.00    -0.005 C 
ATOM      3  C   UNL     1       2.127   5.130  -5.289  0.00  0.00    +0.194 C 
ATOM      4  C   UNL     1       1.352   6.323  -6.223  0.00  0.00    +0.128 C 
ATOM      5  C   UNL     1       0.898   5.574  -7.521  0.00  0.00    +0.197 C 
ATOM      6  C   UNL     1       1.293   6.520  -8.658  0.00  0.00    +0.052 C 
ATOM      7  C   UNL     1       1.888   7.803  -7.890  0.00  0.00    +0.044 C 
ATOM      8  C   UNL     1       3.082   8.049  -8.952  0.00  0.00    +0.004 C 
ATOM      9  C   UNL     1      -0.589   5.544  -7.614  0.00  0.00    +0.205 C 
ATOM     10  O   UNL     1      -1.062   5.050  -8.685  0.00  0.00    -0.288 OA
ATOM     11  C   UNL     1      -1.508   5.329  -6.472  0.00  0.00    +0.012 C 
ATOM     12  C   UNL     1      -2.258   4.016  -6.398  0.00  0.00    +0.034 C 
ATOM     13  C   UNL     1      -1.315   6.198  -5.593  0.00  0.00    -0.028 C 
ATOM     14  C   UNL     1      -2.402   7.255  -5.059  0.00  0.00    +0.022 C 
ATOM     15  C   UNL     1      -2.370   6.752  -3.423  0.00  0.00    +0.004 C 
ATOM     16  C   UNL     1      -3.675   7.309  -2.896  0.00  0.00    +0.000 C 
ATOM     17  C   UNL     1      -1.917   5.535  -3.066  0.00  0.00    +0.000 C 
ATOM     18  C   UNL     1      -1.397   8.058  -3.908  0.00  0.00    +0.005 C 
ATOM     19  C   UNL     1       0.020   7.363  -4.291  0.00  0.00    +0.005 C 
ATOM     20  C   UNL     1       2.849   6.875  -6.828  0.00  0.00    +0.177 C 
ATOM     21  C   UNL     1       0.556   6.376  -3.499  0.00  0.00    +0.026 C 
ENDROOT
BRANCH   5  22
ATOM     22  O   UNL     1       1.323   4.367  -7.833  0.00  0.00    -0.448 OA
BRANCH  22  23
ATOM     23  C   UNL     1       1.993   4.128  -9.039  0.00  0.00    +0.318 C 
ATOM     24  O   UNL     1       2.959   3.312  -9.151  0.00  0.00    -0.250 OA
ATOM     25  C   UNL     1       1.093   4.110 -10.246  0.00  0.00    +0.121 C 
ENDBRANCH  22  23
ENDBRANCH   5  22
BRANCH   3  26
ATOM     26  O   UNL     1       2.978   6.199  -4.585  0.00  0.00    -0.448 OA
BRANCH  26  27
ATOM     27  C   UNL     1       4.085   5.841  -3.894  0.00  0.00    +0.318 C 
ATOM     28  O   UNL     1       4.695   4.778  -4.201  0.00  0.00    -0.250 OA
ATOM     29  C   UNL     1       5.010   6.956  -3.494  0.00  0.00    +0.121 C 
ENDBRANCH  26  27
ENDBRANCH   3  26
BRANCH  20  30
ATOM     30  O   UNL     1       3.234   5.780  -7.795  0.00  0.00    -0.449 OA
BRANCH  30  31
ATOM     31  C   UNL     1       4.547   5.865  -8.065  0.00  0.00    +0.341 C 
ATOM     32  O   UNL     1       5.066   6.137  -6.974  0.00  0.00    -0.245 OA
BRANCH  31  33
ATOM     33  C   UNL     1       5.537   5.643  -9.064  0.00  0.00    +0.076 A 
ATOM     34  C   UNL     1       6.853   5.819  -8.648  0.00  0.00    +0.006 A 
ATOM     35  C   UNL     1       7.879   6.079  -9.497  0.00  0.00    +0.000 A 
ATOM     36  C   UNL     1       7.608   6.428 -10.777  0.00  0.00    +0.000 A 
ATOM     37  C   UNL     1       6.303   6.691 -11.139  0.00  0.00    +0.000 A 
ATOM     38  C   UNL     1       5.333   5.997 -10.407  0.00  0.00    +0.006 A 
ENDBRANCH  31  33
ENDBRANCH  30  31
ENDBRANCH  20  30
TORSDOF 7
ENDMDL
MODEL 5
REMARK VINA RESULT:      -3.7      3.970      9.841
REMARK  Name = 
REMARK  7 active torsions:
REMARK  status: ('A' for Active; 'I' for Inactive)
REMARK    1  A    between atoms: C_12  and  O_13
REMARK    2  A    between atoms: O_13  and  C_14
REMARK    3  A    between atoms: C_20  and  O_21
REMARK    4  A    between atoms: O_21  and  C_22
REMARK    5  A    between atoms: C_22  and  C_24
REMARK    6  A    between atoms: C_31  and  O_32
REMARK    7  A    between atoms: O_32  and  C_33
REMARK                            x       y       z     vdW  Elec       q    Type
REMARK                         _______ _______ _______ _____ _____    ______ ____
ROOT
ATOM      1  C   UNL     1       0.070   3.472 -10.588  0.00  0.00    -0.006 C 
ATOM      2  C   UNL     1       0.402   4.414 -10.623  0.00  0.00    -0.005 C 
ATOM      3  C   UNL     1       1.030   4.658  -9.159  0.00  0.00    +0.194 C 
ATOM      4  C   UNL     1       1.578   6.250  -9.410  0.00  0.00    +0.128 C 
ATOM      5  C   UNL     1       3.135   6.156  -9.273  0.00  0.00    +0.197 C 
ATOM      6  C   UNL     1       3.507   7.352  -8.392  0.00  0.00    +0.052 C 
ATOM      7  C   UNL     1       2.099   8.095  -8.154  0.00  0.00    +0.044 C 
ATOM      8  C   UNL     1       2.404   8.461  -6.609  0.00  0.00    +0.004 C 
ATOM      9  C   UNL     1       3.794   6.482 -10.570  0.00  0.00    +0.205 C 
ATOM     10  O   UNL     1       5.064   6.537 -10.541  0.00  0.00    -0.288 OA
ATOM     11  C   UNL     1       3.305   6.055 -11.902  0.00  0.00    +0.012 C 
ATOM     12  C   UNL     1       4.097   5.002 -12.649  0.00  0.00    +0.034 C 
ATOM     13  C   UNL     1       2.139   6.469 -12.087  0.00  0.00    -0.028 C 
ATOM     14  C   UNL     1       1.666   7.455 -13.264  0.00  0.00    +0.022 C 
ATOM     15  C   UNL     1       0.532   6.381 -13.967  0.00  0.00    +0.004 C 
ATOM     16  C   UNL     1       0.362   6.964 -15.354  0.00  0.00    +0.000 C 
ATOM     17  C   UNL     1       0.589   5.053 -13.754  0.00  0.00    +0.000 C 
ATOM     18  C   UNL     1      -0.006   7.534 -12.840  0.00  0.00    +0.005 C 
ATOM     19  C   UNL     1       0.063   6.749 -11.421  0.00  0.00    +0.005 C 
ATOM     20  C   UNL     1       1.261   6.655  -7.783  0.00  0.00    +0.177 C 
ATOM     21  C   UNL     1      -0.367   5.447 -11.316  0.00  0.00    +0.026 C 
ENDROOT
BRANCH   5  22
ATOM     22  O   UNL     1       3.746   5.094  -8.792  0.00  0.00    -0.448 OA
BRANCH  22  23
ATOM     23  C   UNL     1       4.957   5.211  -8.100  0.00  0.00    +0.318 C 
ATOM     24  O   UNL     1       5.050   5.130  -6.836  0.00  0.00    -0.250 OA
ATOM     25  C   UNL     1       6.125   4.563  -8.795  0.00  0.00    +0.121 C 
ENDBRANCH  22  23
ENDBRANCH   5  22
BRANCH   3  26
ATOM     26  O   UNL     1      -0.331   5.179  -8.670  0.00  0.00    -0.448 OA
BRANCH  26  27
ATOM     27  C   UNL     1      -0.932   4.610  -7.598  0.00  0.00    +0.318 C 
ATOM     28  O   UNL     1      -0.257   3.877  -6.821  0.00  0.00    -0.250 OA
ATOM     29  C   UNL     1      -1.949   5.451  -6.880  0.00  0.00    +0.121 C 
ENDBRANCH  26  27
ENDBRANCH   3  26
BRANCH  20  30
ATOM     30  O   UNL     1       2.375   5.948  -7.047  0.00  0.00    -0.449 OA
BRANCH  30  31
ATOM     31  C   UNL     1       1.952   5.607  -5.820  0.00  0.00    +0.341 C 
ATOM     32  O   UNL     1       2.227   4.404  -5.724  0.00  0.00    -0.245 OA
BRANCH  31  33
ATOM     33  C   UNL     1       1.444   6.117  -4.590  0.00  0.00    +0.076 A 
ATOM     34  C   UNL     1       2.393   6.329  -3.596  0.00  0.00    +0.006 A 
ATOM     35  C   UNL     1       2.094   6.387  -2.275  0.00  0.00    +0.000 A 
ATOM     36  C   UNL     1       0.871   5.985  -1.852  0.00  0.00    +0.000 A 
ATOM     37  C   UNL     1       0.028   5.356  -2.745  0.00  0.00    +0.000 A 
ATOM     38  C   UNL     1       0.194   5.730  -4.084  0.00  0.00    +0.006 A 
ENDBRANCH  31  33
ENDBRANCH  30  31
ENDBRANCH  20  30
TORSDOF 7
ENDMDL
MODEL 6
REMARK VINA RESULT:      -3.5      1.714      7.711
REMARK  Name = 
REMARK  7 active torsions:
REMARK  status: ('A' for Active; 'I' for Inactive)
REMARK    1  A    between atoms: C_12  and  O_13
REMARK    2  A    between atoms: O_13  and  C_14
REMARK    3  A    between atoms: C_20  and  O_21
REMARK    4  A    between atoms: O_21  and  C_22
REMARK    5  A    between atoms: C_22  and  C_24
REMARK    6  A    between atoms: C_31  and  O_32
REMARK    7  A    between atoms: O_32  and  C_33
REMARK                            x       y       z     vdW  Elec       q    Type
REMARK                         _______ _______ _______ _____ _____    ______ ____
ROOT
ATOM      1  C   UNL     1       4.461   8.487  -4.075  0.00  0.00    -0.006 C 
ATOM      2  C   UNL     1       4.043   7.584  -4.169  0.00  0.00    -0.005 C 
ATOM      3  C   UNL     1       2.937   7.543  -2.997  0.00  0.00    +0.194 C 
ATOM      4  C   UNL     1       2.307   5.998  -3.333  0.00  0.00    +0.128 C 
ATOM      5  C   UNL     1       0.819   6.260  -3.742  0.00  0.00    +0.197 C 
ATOM      6  C   UNL     1       0.026   5.196  -2.978  0.00  0.00    +0.052 C 
ATOM      7  C   UNL     1       1.169   4.341  -2.233  0.00  0.00    +0.044 C 
ATOM      8  C   UNL     1       0.323   4.154  -0.868  0.00  0.00    +0.004 C 
ATOM      9  C   UNL     1       0.594   5.883  -5.167  0.00  0.00    +0.205 C 
ATOM     10  O   UNL     1      -0.609   5.958  -5.570  0.00  0.00    -0.288 OA
ATOM     11  C   UNL     1       1.548   6.131  -6.272  0.00  0.00    +0.012 C 
ATOM     12  C   UNL     1       1.190   7.183  -7.300  0.00  0.00    +0.034 C 
ATOM     13  C   UNL     1       2.647   5.586  -6.025  0.00  0.00    -0.028 C 
ATOM     14  C   UNL     1       3.356   4.451  -6.915  0.00  0.00    +0.022 C 
ATOM     15  C   UNL     1       4.785   5.334  -7.245  0.00  0.00    +0.004 C 
ATOM     16  C   UNL     1       5.332   4.610  -8.456  0.00  0.00    +0.000 C 
ATOM     17  C   UNL     1       4.829   6.676  -7.136  0.00  0.00    +0.000 C 
ATOM     18  C   UNL     1       4.767   4.244  -5.941  0.00  0.00    +0.005 C 
ATOM     19  C   UNL     1       4.330   5.162  -4.676  0.00  0.00    +0.005 C 
ATOM     20  C   UNL     1       2.011   5.717  -1.677  0.00  0.00    +0.177 C 
ATOM     21  C   UNL     1       4.861   6.418  -4.501  0.00  0.00    +0.026 C 
ENDROOT
BRANCH   5  22
ATOM     22  O   UNL     1       0.222   7.419  -3.557  0.00  0.00    -0.448 OA
BRANCH  22  23
ATOM     23  C   UNL     1      -1.174   7.521  -3.565  0.00  0.00    +0.318 C 
ATOM     24  O   UNL     1      -1.887   7.424  -2.519  0.00  0.00    -0.250 OA
ATOM     25  C   UNL     1      -1.707   8.555  -4.521  0.00  0.00    +0.121 C 
ENDBRANCH  22  23
ENDBRANCH   5  22
BRANCH   3  26
ATOM     26  O   UNL     1       3.981   6.936  -2.045  0.00  0.00    -0.448 OA
BRANCH  26  27
ATOM     27  C   UNL     1       4.515   7.687  -1.054  0.00  0.00    +0.318 C 
ATOM     28  O   UNL     1       3.943   8.759  -0.706  0.00  0.00    -0.250 OA
ATOM     29  C   UNL     1       5.113   6.937   0.103  0.00  0.00    +0.121 C 
ENDBRANCH  26  27
ENDBRANCH   3  26
BRANCH  20  30
ATOM     30  O   UNL     1       0.814   6.600  -1.406  0.00  0.00    -0.449 OA
BRANCH  30  31
ATOM     31  C   UNL     1       0.800   6.944  -0.108  0.00  0.00    +0.341 C 
ATOM     32  O   UNL     1       1.888   6.542   0.327  0.00  0.00    -0.245 OA
BRANCH  31  33
ATOM     33  C   UNL     1       0.091   7.679   0.884  0.00  0.00    +0.076 A 
ATOM     34  C   UNL     1      -1.273   7.832   0.652  0.00  0.00    +0.006 A 
ATOM     35  C   UNL     1      -2.021   8.818   1.205  0.00  0.00    +0.000 A 
ATOM     36  C   UNL     1      -1.404   9.855   1.820  0.00  0.00    +0.000 A 
ATOM     37  C   UNL     1      -0.034   9.980   1.709  0.00  0.00    +0.000 A 
ATOM     38  C   UNL     1       0.661   8.776   1.548  0.00  0.00    +0.006 A 
ENDBRANCH  31  33
ENDBRANCH  30  31
ENDBRANCH  20  30
TORSDOF 7
ENDMDL
MODEL 7
REMARK VINA RESULT:      -3.5      2.105      7.049
REMARK  Name = 
REMARK  7 active torsions:
REMARK  status: ('A' for Active; 'I' for Inactive)
REMARK    1  A    between atoms: C_12  and  O_13
REMARK    2  A    between atoms: O_13  and  C_14
REMARK    3  A    between atoms: C_20  and  O_21
REMARK    4  A    between atoms: O_21  and  C_22
REMARK    5  A    between atoms: C_22  and  C_24
REMARK    6  A    between atoms: C_31  and  O_32
REMARK    7  A    between atoms: O_32  and  C_33
REMARK                            x       y       z     vdW  Elec       q    Type
REMARK                         _______ _______ _______ _____ _____    ______ ____
ROOT
ATOM      1  C   UNL     1       3.398   8.094  -4.949  0.00  0.00    -0.006 C 
ATOM      2  C   UNL     1       3.046   7.169  -4.814  0.00  0.00    -0.005 C 
ATOM      3  C   UNL     1       3.154   6.940  -3.223  0.00  0.00    +0.194 C 
ATOM      4  C   UNL     1       2.483   5.377  -3.172  0.00  0.00    +0.128 C 
ATOM      5  C   UNL     1       1.171   5.539  -2.334  0.00  0.00    +0.197 C 
ATOM      6  C   UNL     1       1.194   4.353  -1.365  0.00  0.00    +0.052 C 
ATOM      7  C   UNL     1       2.519   3.545  -1.793  0.00  0.00    +0.044 C 
ATOM      8  C   UNL     1       2.945   3.179  -0.278  0.00  0.00    +0.004 C 
ATOM      9  C   UNL     1      -0.026   5.255  -3.176  0.00  0.00    +0.205 C 
ATOM     10  O   UNL     1      -1.140   5.257  -2.564  0.00  0.00    -0.288 OA
ATOM     11  C   UNL     1      -0.189   5.672  -4.588  0.00  0.00    +0.012 C 
ATOM     12  C   UNL     1      -1.188   6.766  -4.899  0.00  0.00    +0.034 C 
ATOM     13  C   UNL     1       0.741   5.207  -5.285  0.00  0.00    -0.028 C 
ATOM     14  C   UNL     1       0.573   4.212  -6.536  0.00  0.00    +0.022 C 
ATOM     15  C   UNL     1       1.301   5.239  -7.696  0.00  0.00    +0.004 C 
ATOM     16  C   UNL     1       0.787   4.662  -8.997  0.00  0.00    +0.000 C 
ATOM     17  C   UNL     1       1.408   6.567  -7.497  0.00  0.00    +0.000 C 
ATOM     18  C   UNL     1       2.247   4.053  -6.930  0.00  0.00    +0.005 C 
ATOM     19  C   UNL     1       2.876   4.828  -5.649  0.00  0.00    +0.005 C 
ATOM     20  C   UNL     1       3.496   4.942  -1.870  0.00  0.00    +0.177 C 
ATOM     21  C   UNL     1       3.362   6.108  -5.770  0.00  0.00    +0.026 C 
ENDROOT
BRANCH   5  22
ATOM     22  O   UNL     1       0.898   6.623  -1.638  0.00  0.00    -0.448 OA
BRANCH  22  23
ATOM     23  C   UNL     1       0.065   6.569  -0.514  0.00  0.00    +0.318 C 
ATOM     24  O   UNL     1       0.502   6.459   0.673  0.00  0.00    -0.250 OA
ATOM     25  C   UNL     1      -1.134   7.476  -0.596  0.00  0.00    +0.121 C 
ENDBRANCH  22  23
ENDBRANCH   5  22
BRANCH   3  26
ATOM     26  O   UNL     1       4.563   6.354  -3.410  0.00  0.00    -0.448 OA
BRANCH  26  27
ATOM     27  C   UNL     1       5.651   7.152  -3.306  0.00  0.00    +0.318 C 
ATOM     28  O   UNL     1       6.216   7.294  -2.185  0.00  0.00    -0.250 OA
ATOM     29  C   UNL     1       6.621   7.109  -4.454  0.00  0.00    +0.121 C 
ENDBRANCH  26  27
ENDBRANCH   3  26
BRANCH  20  30
ATOM     30  O   UNL     1       2.880   5.693  -0.712  0.00  0.00    -0.449 OA
BRANCH  30  31
ATOM     31  C   UNL     1       3.817   6.457  -0.128  0.00  0.00    +0.341 C 
ATOM     32  O   UNL     1       4.740   5.672   0.121  0.00  0.00    -0.245 OA
BRANCH  31  33
ATOM     33  C   UNL     1       4.184   7.798   0.183  0.00  0.00    +0.076 A 
ATOM     34  C   UNL     1       4.696   7.994   1.462  0.00  0.00    +0.006 A 
ATOM     35  C   UNL     1       4.697   9.194   2.093  0.00  0.00    +0.000 A 
ATOM     36  C   UNL     1       3.960  10.211   1.585  0.00  0.00    +0.000 A 
ATOM     37  C   UNL     1       3.084   9.952   0.551  0.00  0.00    +0.000 A 
ATOM     38  C   UNL     1       3.455   8.899  -0.292  0.00  0.00    +0.006 A 
ENDBRANCH  31  33
ENDBRANCH  30  31
ENDBRANCH  20  30
TORSDOF 7
ENDMDL
MODEL 8
REMARK VINA RESULT:      -3.4      2.697      4.966
REMARK  Name = 
REMARK  7 active torsions:
REMARK  status: ('A' for Active; 'I' for Inactive)
REMARK    1  A    between atoms: C_12  and  O_13
REMARK    2  A    between atoms: O_13  and  C_14
REMARK    3  A    between atoms: C_20  and  O_21
REMARK    4  A    between atoms: O_21  and  C_22
REMARK    5  A    between atoms: C_22  and  C_24
REMARK    6  A    between atoms: C_31  and  O_32
REMARK    7  A    between atoms: O_32  and  C_33
REMARK                            x       y       z     vdW  Elec       q    Type
REMARK                         _______ _______ _______ _____ _____    ______ ____
ROOT
ATOM      1  C   UNL     1      -1.170   7.940  -3.986  0.00  0.00    -0.006 C 
ATOM      2  C   UNL     1      -0.496   7.210  -3.878  0.00  0.00    -0.005 C 
ATOM      3  C   UNL     1      -0.109   6.811  -5.391  0.00  0.00    +0.194 C 
ATOM      4  C   UNL     1       1.053   5.623  -5.023  0.00  0.00    +0.128 C 
ATOM      5  C   UNL     1       2.394   6.194  -5.594  0.00  0.00    +0.197 C 
ATOM      6  C   UNL     1       3.031   5.005  -6.318  0.00  0.00    +0.052 C 
ATOM      7  C   UNL     1       2.007   3.797  -6.027  0.00  0.00    +0.044 C 
ATOM      8  C   UNL     1       2.135   3.158  -7.506  0.00  0.00    +0.004 C 
ATOM      9  C   UNL     1       3.358   6.466  -4.490  0.00  0.00    +0.205 C 
ATOM     10  O   UNL     1       4.519   6.835  -4.855  0.00  0.00    -0.288 OA
ATOM     11  C   UNL     1       3.001   7.042  -3.173  0.00  0.00    +0.012 C 
ATOM     12  C   UNL     1       3.444   8.457  -2.869  0.00  0.00    +0.034 C 
ATOM     13  C   UNL     1       2.146   6.325  -2.606  0.00  0.00    -0.028 C 
ATOM     14  C   UNL     1       2.325   5.588  -1.189  0.00  0.00    +0.022 C 
ATOM     15  C   UNL     1       1.017   6.364  -0.404  0.00  0.00    +0.004 C 
ATOM     16  C   UNL     1       1.351   6.149   1.057  0.00  0.00    +0.000 C 
ATOM     17  C   UNL     1       0.509   7.527  -0.856  0.00  0.00    +0.000 C 
ATOM     18  C   UNL     1       0.770   4.842  -1.119  0.00  0.00    +0.005 C 
ATOM     19  C   UNL     1       0.259   5.198  -2.618  0.00  0.00    +0.005 C 
ATOM     20  C   UNL     1       0.620   4.718  -6.402  0.00  0.00    +0.177 C 
ATOM     21  C   UNL     1      -0.656   6.202  -2.830  0.00  0.00    +0.026 C 
ENDROOT
BRANCH   5  22
ATOM     22  O   UNL     1       2.440   7.232  -6.404  0.00  0.00    -0.448 OA
BRANCH  22  23
ATOM     23  C   UNL     1       3.311   7.253  -7.498  0.00  0.00    +0.318 C 
ATOM     24  O   UNL     1       4.010   6.255  -7.854  0.00  0.00    -0.250 OA
ATOM     25  C   UNL     1       2.794   8.032  -8.679  0.00  0.00    +0.121 C 
ENDBRANCH  22  23
ENDBRANCH   5  22
BRANCH   3  26
ATOM     26  O   UNL     1      -1.225   5.753  -5.389  0.00  0.00    -0.448 OA
BRANCH  26  27
ATOM     27  C   UNL     1      -2.361   5.961  -6.097  0.00  0.00    +0.318 C 
ATOM     28  O   UNL     1      -3.112   4.983  -6.371  0.00  0.00    -0.250 OA
ATOM     29  C   UNL     1      -3.121   7.218  -5.781  0.00  0.00    +0.121 C 
ENDBRANCH  26  27
ENDBRANCH   3  26
BRANCH  20  30
ATOM     30  O   UNL     1       1.210   5.536  -7.528  0.00  0.00    -0.449 OA
BRANCH  30  31
ATOM     31  C   UNL     1       0.494   5.336  -8.646  0.00  0.00    +0.341 C 
ATOM     32  O   UNL     1      -0.630   5.019  -8.237  0.00  0.00    -0.245 OA
BRANCH  31  33
ATOM     33  C   UNL     1       0.506   5.471 -10.064  0.00  0.00    +0.076 A 
ATOM     34  C   UNL     1       1.758   5.370 -10.662  0.00  0.00    +0.006 A 
ATOM     35  C   UNL     1       2.047   5.880 -11.885  0.00  0.00    +0.000 A 
ATOM     36  C   UNL     1       1.177   6.738 -12.469  0.00  0.00    +0.000 A 
ATOM     37  C   UNL     1       0.112   7.217 -11.733  0.00  0.00    +0.000 A 
ATOM     38  C   UNL     1      -0.354   6.355 -10.734  0.00  0.00    +0.006 A 
ENDBRANCH  31  33
ENDBRANCH  30  31
ENDBRANCH  20  30
TORSDOF 7
ENDMDL
MODEL 9
REMARK VINA RESULT:      -3.2      4.696      9.929
REMARK  Name = 
REMARK  7 active torsions:
REMARK  status: ('A' for Active; 'I' for Inactive)
REMARK    1  A    between atoms: C_12  and  O_13
REMARK    2  A    between atoms: O_13  and  C_14
REMARK    3  A    between atoms: C_20  and  O_21
REMARK    4  A    between atoms: O_21  and  C_22
REMARK    5  A    between atoms: C_22  and  C_24
REMARK    6  A    between atoms: C_31  and  O_32
REMARK    7  A    between atoms: O_32  and  C_33
REMARK                            x       y       z     vdW  Elec       q    Type
REMARK                         _______ _______ _______ _____ _____    ______ ____
ROOT
ATOM      1  C   UNL     1       2.841   4.467 -11.781  0.00  0.00    -0.006 C 
ATOM      2  C   UNL     1       3.231   5.153 -11.167  0.00  0.00    -0.005 C 
ATOM      3  C   UNL     1       2.204   5.191  -9.925  0.00  0.00    +0.194 C 
ATOM      4  C   UNL     1       3.030   6.341  -8.982  0.00  0.00    +0.128 C 
ATOM      5  C   UNL     1       3.443   5.565  -7.686  0.00  0.00    +0.197 C 
ATOM      6  C   UNL     1       3.089   6.523  -6.545  0.00  0.00    +0.052 C 
ATOM      7  C   UNL     1       2.558   7.837  -7.309  0.00  0.00    +0.044 C 
ATOM      8  C   UNL     1       1.374   8.134  -6.251  0.00  0.00    +0.004 C 
ATOM      9  C   UNL     1       4.927   5.464  -7.587  0.00  0.00    +0.205 C 
ATOM     10  O   UNL     1       5.371   4.942  -6.517  0.00  0.00    -0.288 OA
ATOM     11  C   UNL     1       5.839   5.210  -8.727  0.00  0.00    +0.012 C 
ATOM     12  C   UNL     1       6.526   3.864  -8.804  0.00  0.00    +0.034 C 
ATOM     13  C   UNL     1       5.691   6.092  -9.602  0.00  0.00    -0.028 C 
ATOM     14  C   UNL     1       6.830   7.099 -10.126  0.00  0.00    +0.022 C 
ATOM     15  C   UNL     1       6.781   6.606 -11.764  0.00  0.00    +0.004 C 
ATOM     16  C   UNL     1       8.113   7.103 -12.284  0.00  0.00    +0.000 C 
ATOM     17  C   UNL     1       6.272   5.414 -12.130  0.00  0.00    +0.000 C 
ATOM     18  C   UNL     1       5.869   7.954 -11.277  0.00  0.00    +0.005 C 
ATOM     19  C   UNL     1       4.419   7.326 -10.903  0.00  0.00    +0.005 C 
ATOM     20  C   UNL     1       1.559   6.961  -8.380  0.00  0.00    +0.177 C 
ATOM     21  C   UNL     1       3.840   6.370 -11.703  0.00  0.00    +0.026 C 
ENDROOT
BRANCH   5  22
ATOM     22  O   UNL     1       2.960   4.378  -7.382  0.00  0.00    -0.448 OA
BRANCH  22  23
ATOM     23  C   UNL     1       2.321   4.153  -6.157  0.00  0.00    +0.318 C 
ATOM     24  O   UNL     1       1.353   3.344  -6.013  0.00  0.00    -0.250 OA
ATOM     25  C   UNL     1       3.252   4.137  -4.974  0.00  0.00    +0.121 C 
ENDBRANCH  22  23
ENDBRANCH   5  22
BRANCH   3  26
ATOM     26  O   UNL     1       1.408   6.303 -10.627  0.00  0.00    -0.448 OA
BRANCH  26  27
ATOM     27  C   UNL     1       0.283   6.003 -11.317  0.00  0.00    +0.318 C 
ATOM     28  O   UNL     1      -0.273   4.881 -11.145  0.00  0.00    -0.250 OA
ATOM     29  C   UNL     1      -0.699   7.124 -11.509  0.00  0.00    +0.121 C 
ENDBRANCH  26  27
ENDBRANCH   3  26
BRANCH  20  30
ATOM     30  O   UNL     1       1.118   5.880  -7.420  0.00  0.00    -0.449 OA
BRANCH  30  31
ATOM     31  C   UNL     1      -0.201   5.994  -7.198  0.00  0.00    +0.341 C 
ATOM     32  O   UNL     1      -0.720   5.700  -8.282  0.00  0.00    -0.245 OA
BRANCH  31  33
ATOM     33  C   UNL     1      -1.190   6.191  -6.191  0.00  0.00    +0.076 A 
ATOM     34  C   UNL     1      -0.750   6.023  -4.882  0.00  0.00    +0.006 A 
ATOM     35  C   UNL     1      -1.576   5.742  -3.844  0.00  0.00    +0.000 A 
ATOM     36  C   UNL     1      -2.851   5.362  -4.095  0.00  0.00    +0.000 A 
ATOM     37  C   UNL     1      -3.227   5.092  -5.395  0.00  0.00    +0.000 A 
ATOM     38  C   UNL     1      -2.526   5.805  -6.376  0.00  0.00    +0.006 A 
ENDBRANCH  31  33
ENDBRANCH  30  31
ENDBRANCH  20  30
TORSDOF 7
ENDMDL
