MODEL 1
REMARK VINA RESULT:     -10.7      0.000      0.000
REMARK  Name = 
REMARK  4 active torsions:
REMARK  status: ('A' for Active; 'I' for Inactive)
REMARK    1  A    between atoms: C_4  and  C_5
REMARK    2  A    between atoms: N_7  and  C_8
REMARK    3  A    between atoms: C_20  and  C_21
REMARK    4  A    between atoms: C_21  and  C_22
REMARK                            x       y       z     vdW  Elec       q    Type
REMARK                         _______ _______ _______ _____ _____    ______ ____
ROOT
ATOM      1  C   UNL     1       1.330   5.797  -6.565  0.00  0.00    +0.243 C 
ATOM      2  C   UNL     1       2.333   6.726  -7.127  0.00  0.00    +0.274 C 
ATOM      3  O   UNL     1       2.226   7.985  -7.000  0.00  0.00    -0.270 OA
ATOM      4  N   UNL     1       2.613   6.117  -8.372  0.00  0.00    -0.225 N 
ATOM      5  C   UNL     1       1.883   4.928  -8.562  0.00  0.00    +0.307 C 
ATOM      6  C   UNL     1       0.426   5.367  -9.214  0.00  0.00    +0.149 C 
ATOM      7  N   UNL     1       1.054   6.135 -10.449  0.00  0.00    -0.273 N 
ATOM      8  C   UNL     1       2.411   6.016 -10.710  0.00  0.00    +0.244 C 
ATOM      9  O   UNL     1       2.809   6.391 -11.855  0.00  0.00    -0.273 OA
ATOM     10  C   UNL     1      -0.098   6.027 -11.343  0.00  0.00    +0.094 C 
ATOM     11  C   UNL     1      -0.515   4.562 -11.275  0.00  0.00    +0.023 C 
ATOM     12  C   UNL     1       0.241   3.982 -10.109  0.00  0.00    +0.029 C 
ATOM     13  O   UNL     1       2.431   3.938  -9.271  0.00  0.00    -0.172 OA
ATOM     14  C   UNL     1       3.381   6.738  -9.608  0.00  0.00    +0.160 C 
ATOM     15  O   UNL     1       1.484   4.612  -7.308  0.00  0.00    -0.294 OA
ATOM     16  C   UNL     1      -0.085   6.349  -6.707  0.00  0.00    +0.063 C 
ENDROOT
BRANCH   1  18
ATOM     17  C   UNL     1       1.445   6.008  -4.017  0.00  0.00    +0.245 C 
ATOM     18  N   UNL     1       1.470   5.382  -5.251  0.00  0.00    -0.173 NA
ATOM     19  O   UNL     1       0.917   7.162  -4.084  0.00  0.00    -0.273 OA
BRANCH  17  34
ATOM     20  C   UNL     1       3.955   5.453  -2.441  0.00  0.00    +0.090 C 
ATOM     21  N   UNL     1       3.195   5.528  -2.422  0.00  0.00    -0.272 NA
ATOM     22  C   UNL     1       2.879   6.811  -1.573  0.00  0.00    +0.066 C 
ATOM     23  C   UNL     1       1.641   6.025  -0.669  0.00  0.00    +0.038 C 
ATOM     24  C   UNL     1       1.306   7.354   0.161  0.00  0.00    -0.020 A 
ATOM     25  C   UNL     1       2.415   7.843   0.834  0.00  0.00    +0.011 A 
ATOM     26  C   UNL     1       2.405   8.310   2.113  0.00  0.00    +0.081 A 
ATOM     27  N   UNL     1       3.656   8.788   2.320  0.00  0.00    -0.244 NA
ATOM     28  C   UNL     1       4.492   8.303   1.368  0.00  0.00    +0.095 A 
ATOM     29  C   UNL     1       1.246   8.226   2.869  0.00  0.00    +0.019 A 
ATOM     30  C   UNL     1       0.145   7.607   2.285  0.00  0.00    +0.001 A 
ATOM     31  C   UNL     1       3.714   7.508   0.532  0.00  0.00    -0.001 A 
ATOM     32  C   UNL     1       0.187   7.160   0.969  0.00  0.00    -0.004 A 
ATOM     33  C   UNL     1       0.573   6.373  -1.849  0.00  0.00    +0.016 C 
ATOM     34  C   UNL     1       0.770   5.085  -2.863  0.00  0.00    +0.095 C 
ATOM     35  C   UNL     1       4.018   6.422  -0.455  0.00  0.00    +0.044 C 
ATOM     36  C   UNL     1       2.213   4.571  -2.251  0.00  0.00    +0.081 C 
ENDBRANCH  17  34
ENDBRANCH   1  18
BRANCH  14  37
ATOM     37  C   UNL     1       4.455   5.466  -9.640  0.00  0.00    +0.056 C 
BRANCH  37  38
ATOM     38  C   UNL     1       5.707   6.043 -10.164  0.00  0.00    -0.020 A 
ATOM     39  C   UNL     1       5.760   7.273 -10.809  0.00  0.00    -0.004 A 
ATOM     40  C   UNL     1       6.990   7.699 -11.293  0.00  0.00    -0.000 A 
ATOM     41  C   UNL     1       8.107   6.900 -11.149  0.00  0.00    -0.000 A 
ATOM     42  C   UNL     1       8.133   6.097 -10.015  0.00  0.00    -0.000 A 
ATOM     43  C   UNL     1       6.899   5.627  -9.586  0.00  0.00    -0.004 A 
ENDBRANCH  37  38
ENDBRANCH  14  37
TORSDOF 4
ENDMDL
MODEL 2
REMARK VINA RESULT:     -10.7      2.855      9.261
REMARK  Name = 
REMARK  4 active torsions:
REMARK  status: ('A' for Active; 'I' for Inactive)
REMARK    1  A    between atoms: C_4  and  C_5
REMARK    2  A    between atoms: N_7  and  C_8
REMARK    3  A    between atoms: C_20  and  C_21
REMARK    4  A    between atoms: C_21  and  C_22
REMARK                            x       y       z     vdW  Elec       q    Type
REMARK                         _______ _______ _______ _____ _____    ______ ____
ROOT
ATOM      1  C   UNL     1       0.471   5.612  -6.772  0.00  0.00    +0.243 C 
ATOM      2  C   UNL     1       1.154   4.788  -5.753  0.00  0.00    +0.274 C 
ATOM      3  O   UNL     1       1.253   3.527  -5.867  0.00  0.00    -0.270 OA
ATOM      4  N   UNL     1       0.719   5.402  -4.556  0.00  0.00    -0.225 N 
ATOM      5  C   UNL     1      -0.127   6.502  -4.797  0.00  0.00    +0.307 C 
ATOM      6  C   UNL     1      -1.662   5.898  -4.931  0.00  0.00    +0.149 C 
ATOM      7  N   UNL     1      -1.652   5.182  -3.519  0.00  0.00    -0.273 N 
ATOM      8  C   UNL     1      -0.621   5.442  -2.628  0.00  0.00    +0.244 C 
ATOM      9  O   UNL     1      -0.806   5.093  -1.422  0.00  0.00    -0.273 OA
ATOM     10  C   UNL     1      -3.100   5.151  -3.314  0.00  0.00    +0.094 C 
ATOM     11  C   UNL     1      -3.575   6.563  -3.635  0.00  0.00    +0.023 C 
ATOM     12  C   UNL     1      -2.405   7.240  -4.299  0.00  0.00    +0.029 C 
ATOM     13  O   UNL     1      -0.105   7.534  -3.950  0.00  0.00    -0.172 OA
ATOM     14  C   UNL     1       0.834   4.848  -3.079  0.00  0.00    +0.160 C 
ATOM     15  O   UNL     1       0.116   6.795  -6.096  0.00  0.00    -0.294 OA
ATOM     16  C   UNL     1      -0.765   4.909  -7.324  0.00  0.00    +0.063 C 
ENDROOT
BRANCH   1  18
ATOM     17  C   UNL     1       1.485   5.567  -9.121  0.00  0.00    +0.245 C 
ATOM     18  N   UNL     1       1.199   6.061  -7.860  0.00  0.00    -0.173 NA
ATOM     19  O   UNL     1       0.697   4.625  -9.449  0.00  0.00    -0.273 OA
BRANCH  17  34
ATOM     20  C   UNL     1       4.109   6.780  -8.265  0.00  0.00    +0.090 C 
ATOM     21  N   UNL     1       3.626   6.650  -8.842  0.00  0.00    -0.272 NA
ATOM     22  C   UNL     1       4.342   5.660  -9.829  0.00  0.00    +0.066 C 
ATOM     23  C   UNL     1       3.899   6.574 -11.220  0.00  0.00    +0.038 C 
ATOM     24  C   UNL     1       4.601   5.533 -12.215  0.00  0.00    -0.020 A 
ATOM     25  C   UNL     1       5.947   5.364 -11.930  0.00  0.00    +0.011 A 
ATOM     26  C   UNL     1       6.939   5.305 -12.861  0.00  0.00    +0.081 A 
ATOM     27  N   UNL     1       8.062   5.018 -12.159  0.00  0.00    -0.244 NA
ATOM     28  C   UNL     1       7.848   5.264 -10.841  0.00  0.00    +0.095 A 
ATOM     29  C   UNL     1       6.641   5.515 -14.199  0.00  0.00    +0.019 A 
ATOM     30  C   UNL     1       5.326   5.834 -14.520  0.00  0.00    +0.001 A 
ATOM     31  C   UNL     1       6.533   5.702 -10.732  0.00  0.00    -0.001 A 
ATOM     32  C   UNL     1       4.336   5.867 -13.542  0.00  0.00    -0.004 A 
ATOM     33  C   UNL     1       2.467   5.799 -11.260  0.00  0.00    +0.016 C 
ATOM     34  C   UNL     1       1.556   6.734 -10.248  0.00  0.00    +0.095 C 
ATOM     35  C   UNL     1       5.769   6.462  -9.690  0.00  0.00    +0.044 C 
ATOM     36  C   UNL     1       2.812   7.528  -9.531  0.00  0.00    +0.081 C 
ENDBRANCH  17  34
ENDBRANCH   1  18
BRANCH  14  37
ATOM     37  C   UNL     1       1.615   6.227  -2.572  0.00  0.00    +0.056 C 
BRANCH  37  38
ATOM     38  C   UNL     1       2.893   6.231  -3.310  0.00  0.00    -0.020 A 
ATOM     39  C   UNL     1       3.515   7.398  -3.736  0.00  0.00    -0.004 A 
ATOM     40  C   UNL     1       4.698   7.277  -4.456  0.00  0.00    -0.000 A 
ATOM     41  C   UNL     1       5.207   6.027  -4.747  0.00  0.00    -0.000 A 
ATOM     42  C   UNL     1       4.950   5.036  -3.808  0.00  0.00    -0.000 A 
ATOM     43  C   UNL     1       3.733   5.137  -3.148  0.00  0.00    -0.004 A 
ENDBRANCH  37  38
ENDBRANCH  14  37
TORSDOF 4
ENDMDL
MODEL 3
REMARK VINA RESULT:     -10.6      2.788      5.583
REMARK  Name = 
REMARK  4 active torsions:
REMARK  status: ('A' for Active; 'I' for Inactive)
REMARK    1  A    between atoms: C_4  and  C_5
REMARK    2  A    between atoms: N_7  and  C_8
REMARK    3  A    between atoms: C_20  and  C_21
REMARK    4  A    between atoms: C_21  and  C_22
REMARK                            x       y       z     vdW  Elec       q    Type
REMARK                         _______ _______ _______ _____ _____    ______ ____
ROOT
ATOM      1  C   UNL     1       4.359   5.676  -8.484  0.00  0.00    +0.243 C 
ATOM      2  C   UNL     1       3.670   4.811  -9.465  0.00  0.00    +0.274 C 
ATOM      3  O   UNL     1       3.570   3.556  -9.298  0.00  0.00    -0.270 OA
ATOM      4  N   UNL     1       4.103   5.373 -10.688  0.00  0.00    -0.225 N 
ATOM      5  C   UNL     1       4.951   6.481 -10.497  0.00  0.00    +0.307 C 
ATOM      6  C   UNL     1       6.486   5.879 -10.343  0.00  0.00    +0.149 C 
ATOM      7  N   UNL     1       6.469   5.104 -11.724  0.00  0.00    -0.273 N 
ATOM      8  C   UNL     1       5.436   5.329 -12.621  0.00  0.00    +0.244 C 
ATOM      9  O   UNL     1       5.615   4.929 -13.812  0.00  0.00    -0.273 OA
ATOM     10  C   UNL     1       7.916   5.061 -11.933  0.00  0.00    +0.094 C 
ATOM     11  C   UNL     1       8.396   6.485 -11.673  0.00  0.00    +0.023 C 
ATOM     12  C   UNL     1       7.229   7.192 -11.034  0.00  0.00    +0.029 C 
ATOM     13  O   UNL     1       4.929   7.476 -11.387  0.00  0.00    -0.172 OA
ATOM     14  C   UNL     1       3.981   4.757 -12.140  0.00  0.00    +0.160 C 
ATOM     15  O   UNL     1       4.714   6.828  -9.211  0.00  0.00    -0.294 OA
ATOM     16  C   UNL     1       5.595   4.994  -7.907  0.00  0.00    +0.063 C 
ENDROOT
BRANCH   1  18
ATOM     17  C   UNL     1       3.362   5.736  -6.128  0.00  0.00    +0.245 C 
ATOM     18  N   UNL     1       3.636   6.172  -7.413  0.00  0.00    -0.173 NA
ATOM     19  O   UNL     1       4.158   4.816  -5.762  0.00  0.00    -0.273 OA
BRANCH  17  34
ATOM     20  C   UNL     1       0.626   6.759  -6.877  0.00  0.00    +0.090 C 
ATOM     21  N   UNL     1       1.149   6.686  -6.326  0.00  0.00    -0.272 NA
ATOM     22  C   UNL     1       0.551   5.712  -5.249  0.00  0.00    +0.066 C 
ATOM     23  C   UNL     1       1.023   6.720  -3.935  0.00  0.00    +0.038 C 
ATOM     24  C   UNL     1       0.442   5.696  -2.848  0.00  0.00    -0.020 A 
ATOM     25  C   UNL     1      -0.906   5.440  -3.040  0.00  0.00    +0.011 A 
ATOM     26  C   UNL     1      -1.836   5.376  -2.047  0.00  0.00    +0.081 A 
ATOM     27  N   UNL     1      -2.980   4.993  -2.663  0.00  0.00    -0.244 NA
ATOM     28  C   UNL     1      -2.860   5.181  -4.002  0.00  0.00    +0.095 A 
ATOM     29  C   UNL     1      -1.471   5.672  -0.742  0.00  0.00    +0.019 A 
ATOM     30  C   UNL     1      -0.160   6.078  -0.520  0.00  0.00    +0.001 A 
ATOM     31  C   UNL     1      -1.581   5.683  -4.214  0.00  0.00    -0.001 A 
ATOM     32  C   UNL     1       0.766   6.113  -1.558  0.00  0.00    -0.004 A 
ATOM     33  C   UNL     1       2.497   6.026  -3.946  0.00  0.00    +0.016 C 
ATOM     34  C   UNL     1       3.291   6.955  -5.057  0.00  0.00    +0.095 C 
ATOM     35  C   UNL     1      -0.925   6.427  -5.338  0.00  0.00    +0.044 C 
ATOM     36  C   UNL     1       1.952   7.641  -5.732  0.00  0.00    +0.081 C 
ENDBRANCH  17  34
ENDBRANCH   1  18
BRANCH  14  37
ATOM     37  C   UNL     1       3.201   6.116 -12.702  0.00  0.00    +0.056 C 
BRANCH  37  38
ATOM     38  C   UNL     1       1.858   6.059 -12.093  0.00  0.00    -0.020 A 
ATOM     39  C   UNL     1       1.060   7.183 -11.920  0.00  0.00    -0.004 A 
ATOM     40  C   UNL     1      -0.173   7.014 -11.300  0.00  0.00    -0.000 A 
ATOM     41  C   UNL     1      -0.561   5.765 -10.858  0.00  0.00    -0.000 A 
ATOM     42  C   UNL     1      -0.087   4.689 -11.598  0.00  0.00    -0.000 A 
ATOM     43  C   UNL     1       1.174   4.851 -12.153  0.00  0.00    -0.004 A 
ENDBRANCH  37  38
ENDBRANCH  14  37
TORSDOF 4
ENDMDL
MODEL 4
REMARK VINA RESULT:      -9.7      2.533      9.647
REMARK  Name = 
REMARK  4 active torsions:
REMARK  status: ('A' for Active; 'I' for Inactive)
REMARK    1  A    between atoms: C_4  and  C_5
REMARK    2  A    between atoms: N_7  and  C_8
REMARK    3  A    between atoms: C_20  and  C_21
REMARK    4  A    between atoms: C_21  and  C_22
REMARK                            x       y       z     vdW  Elec       q    Type
REMARK                         _______ _______ _______ _____ _____    ______ ____
ROOT
ATOM      1  C   UNL     1       0.558   5.551  -7.046  0.00  0.00    +0.243 C 
ATOM      2  C   UNL     1       1.284   4.863  -5.958  0.00  0.00    +0.274 C 
ATOM      3  O   UNL     1       1.485   3.610  -5.975  0.00  0.00    -0.270 OA
ATOM      4  N   UNL     1       0.778   5.528  -4.817  0.00  0.00    -0.225 N 
ATOM      5  C   UNL     1      -0.148   6.535  -5.152  0.00  0.00    +0.307 C 
ATOM      6  C   UNL     1      -1.628   5.799  -5.261  0.00  0.00    +0.149 C 
ATOM      7  N   UNL     1      -1.588   5.193  -3.799  0.00  0.00    -0.273 N 
ATOM      8  C   UNL     1      -0.600   5.602  -2.916  0.00  0.00    +0.244 C 
ATOM      9  O   UNL     1      -0.779   5.330  -1.690  0.00  0.00    -0.273 OA
ATOM     10  C   UNL     1      -3.033   5.060  -3.612  0.00  0.00    +0.094 C 
ATOM     11  C   UNL     1      -3.613   6.402  -4.046  0.00  0.00    +0.023 C 
ATOM     12  C   UNL     1      -2.488   7.121  -4.743  0.00  0.00    +0.029 C 
ATOM     13  O   UNL     1      -0.226   7.625  -4.385  0.00  0.00    -0.172 OA
ATOM     14  C   UNL     1       0.908   5.096  -3.301  0.00  0.00    +0.160 C 
ATOM     15  O   UNL     1       0.095   6.748  -6.466  0.00  0.00    -0.294 OA
ATOM     16  C   UNL     1      -0.607   4.711  -7.560  0.00  0.00    +0.063 C 
ENDROOT
BRANCH   1  18
ATOM     17  C   UNL     1       1.497   5.474  -9.425  0.00  0.00    +0.245 C 
ATOM     18  N   UNL     1       1.269   5.976  -8.155  0.00  0.00    -0.173 NA
ATOM     19  O   UNL     1       0.665   4.564  -9.730  0.00  0.00    -0.273 OA
BRANCH  17  34
ATOM     20  C   UNL     1       4.064   6.749  -8.486  0.00  0.00    +0.090 C 
ATOM     21  N   UNL     1       3.603   6.608  -9.079  0.00  0.00    -0.272 NA
ATOM     22  C   UNL     1       4.374   5.633 -10.039  0.00  0.00    +0.066 C 
ATOM     23  C   UNL     1       3.955   6.534 -11.446  0.00  0.00    +0.038 C 
ATOM     24  C   UNL     1       4.713   5.508 -12.415  0.00  0.00    -0.020 A 
ATOM     25  C   UNL     1       6.052   5.371 -12.086  0.00  0.00    +0.011 A 
ATOM     26  C   UNL     1       7.075   5.333 -12.984  0.00  0.00    +0.081 A 
ATOM     27  N   UNL     1       8.181   5.074 -12.245  0.00  0.00    -0.244 NA
ATOM     28  C   UNL     1       7.919   5.316 -10.936  0.00  0.00    +0.095 A 
ATOM     29  C   UNL     1       6.816   5.534 -14.332  0.00  0.00    +0.019 A 
ATOM     30  C   UNL     1       5.505   5.823 -14.696  0.00  0.00    +0.001 A 
ATOM     31  C   UNL     1       6.591   5.724 -10.871  0.00  0.00    -0.001 A 
ATOM     32  C   UNL     1       4.484   5.834 -13.751  0.00  0.00    -0.004 A 
ATOM     33  C   UNL     1       2.543   5.726 -11.531  0.00  0.00    +0.016 C 
ATOM     34  C   UNL     1       1.579   6.641 -10.552  0.00  0.00    +0.095 C 
ATOM     35  C   UNL     1       5.776   6.468  -9.856  0.00  0.00    +0.044 C 
ATOM     36  C   UNL     1       2.791   7.465  -9.796  0.00  0.00    +0.081 C 
ENDBRANCH  17  34
ENDBRANCH   1  18
BRANCH  14  37
ATOM     37  C   UNL     1       1.566   6.568  -2.889  0.00  0.00    +0.056 C 
BRANCH  37  38
ATOM     38  C   UNL     1       2.695   6.240  -1.999  0.00  0.00    -0.020 A 
ATOM     39  C   UNL     1       3.208   4.954  -1.872  0.00  0.00    -0.004 A 
ATOM     40  C   UNL     1       4.251   4.756  -0.975  0.00  0.00    -0.000 A 
ATOM     41  C   UNL     1       4.730   5.813  -0.226  0.00  0.00    -0.000 A 
ATOM     42  C   UNL     1       4.662   7.062  -0.831  0.00  0.00    -0.000 A 
ATOM     43  C   UNL     1       3.577   7.262  -1.672  0.00  0.00    -0.004 A 
ENDBRANCH  37  38
ENDBRANCH  14  37
TORSDOF 4
ENDMDL
MODEL 5
REMARK VINA RESULT:      -9.5      2.359     10.486
REMARK  Name = 
REMARK  4 active torsions:
REMARK  status: ('A' for Active; 'I' for Inactive)
REMARK    1  A    between atoms: C_4  and  C_5
REMARK    2  A    between atoms: N_7  and  C_8
REMARK    3  A    between atoms: C_20  and  C_21
REMARK    4  A    between atoms: C_21  and  C_22
REMARK                            x       y       z     vdW  Elec       q    Type
REMARK                         _______ _______ _______ _____ _____    ______ ____
ROOT
ATOM      1  C   UNL     1       3.110   6.028  -4.659  0.00  0.00    +0.243 C 
ATOM      2  C   UNL     1       1.872   6.761  -4.319  0.00  0.00    +0.274 C 
ATOM      3  O   UNL     1       1.656   7.941  -4.735  0.00  0.00    -0.270 OA
ATOM      4  N   UNL     1       1.693   6.399  -2.964  0.00  0.00    -0.225 N 
ATOM      5  C   UNL     1       2.695   5.520  -2.509  0.00  0.00    +0.307 C 
ATOM      6  C   UNL     1       3.953   6.464  -1.990  0.00  0.00    +0.149 C 
ATOM      7  N   UNL     1       3.083   7.298  -0.962  0.00  0.00    -0.273 N 
ATOM      8  C   UNL     1       1.792   6.887  -0.668  0.00  0.00    +0.244 C 
ATOM      9  O   UNL     1       1.251   7.393   0.362  0.00  0.00    -0.273 OA
ATOM     10  C   UNL     1       4.176   7.702  -0.078  0.00  0.00    +0.094 C 
ATOM     11  C   UNL     1       4.960   6.424   0.193  0.00  0.00    +0.023 C 
ATOM     12  C   UNL     1       4.442   5.416  -0.800  0.00  0.00    +0.029 C 
ATOM     13  O   UNL     1       2.386   4.608  -1.584  0.00  0.00    -0.172 OA
ATOM     14  C   UNL     1       0.727   7.058  -1.899  0.00  0.00    +0.160 C 
ATOM     15  O   UNL     1       3.229   5.044  -3.658  0.00  0.00    -0.294 OA
ATOM     16  C   UNL     1       4.324   6.951  -4.661  0.00  0.00    +0.063 C 
ENDROOT
BRANCH   1  18
ATOM     17  C   UNL     1       3.317   5.618  -7.176  0.00  0.00    +0.245 C 
ATOM     18  N   UNL     1       3.151   5.304  -5.838  0.00  0.00    -0.173 NA
ATOM     19  O   UNL     1       3.799   6.784  -7.331  0.00  0.00    -0.273 OA
BRANCH  17  34
ATOM     20  C   UNL     1       1.029   4.501  -8.791  0.00  0.00    +0.090 C 
ATOM     21  N   UNL     1       1.782   4.625  -8.755  0.00  0.00    -0.272 NA
ATOM     22  C   UNL     1       2.130   5.674  -9.871  0.00  0.00    +0.066 C 
ATOM     23  C   UNL     1       3.498   4.780 -10.418  0.00  0.00    +0.038 C 
ATOM     24  C   UNL     1       3.861   5.879 -11.526  0.00  0.00    -0.020 A 
ATOM     25  C   UNL     1       2.814   6.100 -12.406  0.00  0.00    +0.011 A 
ATOM     26  C   UNL     1       2.946   6.231 -13.755  0.00  0.00    +0.081 A 
ATOM     27  N   UNL     1       1.705   6.547 -14.199  0.00  0.00    -0.244 NA
ATOM     28  C   UNL     1       0.791   6.256 -13.239  0.00  0.00    +0.095 A 
ATOM     29  C   UNL     1       4.186   6.045 -14.348  0.00  0.00    +0.019 A 
ATOM     30  C   UNL     1       5.242   5.676 -13.521  0.00  0.00    +0.001 A 
ATOM     31  C   UNL     1       1.506   5.756 -12.156  0.00  0.00    -0.001 A 
ATOM     32  C   UNL     1       5.072   5.572 -12.144  0.00  0.00    -0.004 A 
ATOM     33  C   UNL     1       4.409   5.491  -9.270  0.00  0.00    +0.016 C 
ATOM     34  C   UNL     1       4.159   4.488  -7.982  0.00  0.00    +0.095 C 
ATOM     35  C   UNL     1       1.144   4.933 -10.956  0.00  0.00    +0.044 C 
ATOM     36  C   UNL     1       2.821   3.731  -8.578  0.00  0.00    +0.081 C 
ENDBRANCH  17  34
ENDBRANCH   1  18
BRANCH  14  37
ATOM     37  C   UNL     1       0.019   5.590  -1.562  0.00  0.00    +0.056 C 
BRANCH  37  38
ATOM     38  C   UNL     1      -1.346   5.695  -2.110  0.00  0.00    -0.020 A 
ATOM     39  C   UNL     1      -2.297   6.574  -1.605  0.00  0.00    -0.004 A 
ATOM     40  C   UNL     1      -3.563   6.561  -2.178  0.00  0.00    -0.000 A 
ATOM     41  C   UNL     1      -3.852   5.677  -3.199  0.00  0.00    -0.000 A 
ATOM     42  C   UNL     1      -2.791   5.351  -4.035  0.00  0.00    -0.000 A 
ATOM     43  C   UNL     1      -1.543   5.305  -3.429  0.00  0.00    -0.004 A 
ENDBRANCH  37  38
ENDBRANCH  14  37
TORSDOF 4
ENDMDL
MODEL 6
REMARK VINA RESULT:      -9.1      2.180      3.663
REMARK  Name = 
REMARK  4 active torsions:
REMARK  status: ('A' for Active; 'I' for Inactive)
REMARK    1  A    between atoms: C_4  and  C_5
REMARK    2  A    between atoms: N_7  and  C_8
REMARK    3  A    between atoms: C_20  and  C_21
REMARK    4  A    between atoms: C_21  and  C_22
REMARK                            x       y       z     vdW  Elec       q    Type
REMARK                         _______ _______ _______ _____ _____    ______ ____
ROOT
ATOM      1  C   UNL     1       1.676   5.875 -10.311  0.00  0.00    +0.243 C 
ATOM      2  C   UNL     1       2.940   6.562 -10.651  0.00  0.00    +0.274 C 
ATOM      3  O   UNL     1       3.155   7.770 -10.325  0.00  0.00    -0.270 OA
ATOM      4  N   UNL     1       3.177   6.084 -11.960  0.00  0.00    -0.225 N 
ATOM      5  C   UNL     1       2.183   5.182 -12.388  0.00  0.00    +0.307 C 
ATOM      6  C   UNL     1       0.967   6.093 -13.045  0.00  0.00    +0.149 C 
ATOM      7  N   UNL     1       1.897   6.827 -14.095  0.00  0.00    -0.273 N 
ATOM      8  C   UNL     1       3.195   6.377 -14.291  0.00  0.00    +0.244 C 
ATOM      9  O   UNL     1       3.792   6.788 -15.332  0.00  0.00    -0.273 OA
ATOM     10  C   UNL     1       0.855   7.168 -15.063  0.00  0.00    +0.094 C 
ATOM     11  C   UNL     1       0.064   5.880 -15.263  0.00  0.00    +0.023 C 
ATOM     12  C   UNL     1       0.518   4.954 -14.165  0.00  0.00    +0.029 C 
ATOM     13  O   UNL     1       2.521   4.191 -13.216  0.00  0.00    -0.172 OA
ATOM     14  C   UNL     1       4.202   6.639 -13.029  0.00  0.00    +0.160 C 
ATOM     15  O   UNL     1       1.589   4.812 -11.230  0.00  0.00    -0.294 OA
ATOM     16  C   UNL     1       0.478   6.809 -10.445  0.00  0.00    +0.063 C 
ENDROOT
BRANCH   1  18
ATOM     17  C   UNL     1       1.413   5.687  -7.773  0.00  0.00    +0.245 C 
ATOM     18  N   UNL     1       1.568   5.255  -9.078  0.00  0.00    -0.173 NA
ATOM     19  O   UNL     1       1.020   6.895  -7.719  0.00  0.00    -0.273 OA
BRANCH  17  34
ATOM     20  C   UNL     1       3.610   4.425  -6.139  0.00  0.00    +0.090 C 
ATOM     21  N   UNL     1       2.874   4.624  -6.169  0.00  0.00    -0.272 NA
ATOM     22  C   UNL     1       2.659   5.759  -5.105  0.00  0.00    +0.066 C 
ATOM     23  C   UNL     1       1.221   5.041  -4.487  0.00  0.00    +0.038 C 
ATOM     24  C   UNL     1       0.996   6.228  -3.435  0.00  0.00    -0.020 A 
ATOM     25  C   UNL     1       2.080   6.384  -2.585  0.00  0.00    +0.011 A 
ATOM     26  C   UNL     1       1.994   6.597  -1.243  0.00  0.00    +0.081 A 
ATOM     27  N   UNL     1       3.270   6.807  -0.839  0.00  0.00    -0.244 NA
ATOM     28  C   UNL     1       4.127   6.373  -1.797  0.00  0.00    +0.095 A 
ATOM     29  C   UNL     1       0.755   6.572  -0.620  0.00  0.00    +0.019 A 
ATOM     30  C   UNL     1      -0.352   6.271  -1.408  0.00  0.00    +0.001 A 
ATOM     31  C   UNL     1       3.340   5.894  -2.839  0.00  0.00    -0.001 A 
ATOM     32  C   UNL     1      -0.225   6.079  -2.780  0.00  0.00    -0.004 A 
ATOM     33  C   UNL     1       0.361   5.782  -5.656  0.00  0.00    +0.016 C 
ATOM     34  C   UNL     1       0.478   4.693  -6.892  0.00  0.00    +0.095 C 
ATOM     35  C   UNL     1       3.589   4.978  -3.999  0.00  0.00    +0.044 C 
ATOM     36  C   UNL     1       1.745   3.834  -6.280  0.00  0.00    +0.081 C 
ENDBRANCH  17  34
ENDBRANCH   1  18
BRANCH  14  37
ATOM     37  C   UNL     1       4.902   5.139 -13.206  0.00  0.00    +0.056 C 
BRANCH  37  38
ATOM     38  C   UNL     1       6.283   5.307 -12.715  0.00  0.00    -0.020 A 
ATOM     39  C   UNL     1       7.321   5.760 -13.521  0.00  0.00    -0.004 A 
ATOM     40  C   UNL     1       8.589   5.844 -12.959  0.00  0.00    -0.000 A 
ATOM     41  C   UNL     1       8.794   5.461 -11.648  0.00  0.00    -0.000 A 
ATOM     42  C   UNL     1       7.721   5.658 -10.787  0.00  0.00    -0.000 A 
ATOM     43  C   UNL     1       6.463   5.504 -11.352  0.00  0.00    -0.004 A 
ENDBRANCH  37  38
ENDBRANCH  14  37
TORSDOF 4
ENDMDL
MODEL 7
REMARK VINA RESULT:      -9.0      3.736      7.679
REMARK  Name = 
REMARK  4 active torsions:
REMARK  status: ('A' for Active; 'I' for Inactive)
REMARK    1  A    between atoms: C_4  and  C_5
REMARK    2  A    between atoms: N_7  and  C_8
REMARK    3  A    between atoms: C_20  and  C_21
REMARK    4  A    between atoms: C_21  and  C_22
REMARK                            x       y       z     vdW  Elec       q    Type
REMARK                         _______ _______ _______ _____ _____    ______ ____
ROOT
ATOM      1  C   UNL     1       3.007   6.878  -1.166  0.00  0.00    +0.243 C 
ATOM      2  C   UNL     1       1.823   6.010  -1.340  0.00  0.00    +0.274 C 
ATOM      3  O   UNL     1       1.676   4.937  -0.677  0.00  0.00    -0.270 OA
ATOM      4  N   UNL     1       1.641   6.058  -2.741  0.00  0.00    -0.225 N 
ATOM      5  C   UNL     1       2.592   6.882  -3.375  0.00  0.00    +0.307 C 
ATOM      6  C   UNL     1       3.914   5.932  -3.676  0.00  0.00    +0.149 C 
ATOM      7  N   UNL     1       3.115   4.840  -4.499  0.00  0.00    -0.273 N 
ATOM      8  C   UNL     1       1.804   5.093  -4.876  0.00  0.00    +0.244 C 
ATOM      9  O   UNL     1       1.311   4.341  -5.772  0.00  0.00    -0.273 OA
ATOM     10  C   UNL     1       4.243   4.325  -5.275  0.00  0.00    +0.094 C 
ATOM     11  C   UNL     1       4.949   5.564  -5.816  0.00  0.00    +0.023 C 
ATOM     12  C   UNL     1       4.354   6.727  -5.065  0.00  0.00    +0.029 C 
ATOM     13  O   UNL     1       2.239   7.550  -4.475  0.00  0.00    -0.172 OA
ATOM     14  C   UNL     1       0.735   5.123  -3.638  0.00  0.00    +0.160 C 
ATOM     15  O   UNL     1       3.078   7.628  -2.356  0.00  0.00    -0.294 OA
ATOM     16  C   UNL     1       4.277   6.059  -0.963  0.00  0.00    +0.063 C 
ENDROOT
BRANCH   1  18
ATOM     17  C   UNL     1       3.578   9.078   0.009  0.00  0.00    +0.245 C 
ATOM     18  N   UNL     1       2.984   7.841  -0.172  0.00  0.00    -0.173 NA
ATOM     19  O   UNL     1       4.026   9.551  -1.082  0.00  0.00    -0.273 OA
BRANCH  17  34
ATOM     20  C   UNL     1       4.829   8.818   2.740  0.00  0.00    +0.090 C 
ATOM     21  N   UNL     1       4.446   9.267   2.255  0.00  0.00    -0.272 NA
ATOM     22  C   UNL     1       5.407  10.448   1.867  0.00  0.00    +0.066 C 
ATOM     23  C   UNL     1       4.184  11.642   2.085  0.00  0.00    +0.038 C 
ATOM     24  C   UNL     1       5.167  12.829   1.649  0.00  0.00    -0.020 A 
ATOM     25  C   UNL     1       6.302  12.886   2.442  0.00  0.00    +0.011 A 
ATOM     26  C   UNL     1       6.851  14.030   2.934  0.00  0.00    +0.081 A 
ATOM     27  N   UNL     1       7.995  13.636   3.545  0.00  0.00    -0.244 NA
ATOM     28  C   UNL     1       7.961  12.295   3.749  0.00  0.00    +0.095 A 
ATOM     29  C   UNL     1       6.213  15.244   2.730  0.00  0.00    +0.019 A 
ATOM     30  C   UNL     1       4.991  15.222   2.065  0.00  0.00    +0.001 A 
ATOM     31  C   UNL     1       6.752  11.849   3.226  0.00  0.00    -0.001 A 
ATOM     32  C   UNL     1       4.471  14.034   1.560  0.00  0.00    -0.004 A 
ATOM     33  C   UNL     1       3.668  11.376   0.563  0.00  0.00    +0.016 C 
ATOM     34  C   UNL     1       2.611  10.127   0.785  0.00  0.00    +0.095 C 
ATOM     35  C   UNL     1       5.923  10.615   3.418  0.00  0.00    +0.044 C 
ATOM     36  C   UNL     1       3.133   9.693   2.289  0.00  0.00    +0.081 C 
ENDBRANCH  17  34
ENDBRANCH   1  18
BRANCH  14  37
ATOM     37  C   UNL     1      -0.060   6.435  -4.286  0.00  0.00    +0.056 C 
BRANCH  37  38
ATOM     38  C   UNL     1      -1.411   6.386  -3.695  0.00  0.00    -0.020 A 
ATOM     39  C   UNL     1      -2.363   5.444  -4.065  0.00  0.00    -0.004 A 
ATOM     40  C   UNL     1      -3.615   5.517  -3.467  0.00  0.00    -0.000 A 
ATOM     41  C   UNL     1      -3.891   6.517  -2.555  0.00  0.00    -0.000 A 
ATOM     42  C   UNL     1      -2.814   6.952  -1.792  0.00  0.00    -0.000 A 
ATOM     43  C   UNL     1      -1.581   6.933  -2.430  0.00  0.00    -0.004 A 
ENDBRANCH  37  38
ENDBRANCH  14  37
TORSDOF 4
ENDMDL
MODEL 8
REMARK VINA RESULT:      -9.0      3.558     11.485
REMARK  Name = 
REMARK  4 active torsions:
REMARK  status: ('A' for Active; 'I' for Inactive)
REMARK    1  A    between atoms: C_4  and  C_5
REMARK    2  A    between atoms: N_7  and  C_8
REMARK    3  A    between atoms: C_20  and  C_21
REMARK    4  A    between atoms: C_21  and  C_22
REMARK                            x       y       z     vdW  Elec       q    Type
REMARK                         _______ _______ _______ _____ _____    ______ ____
ROOT
ATOM      1  C   UNL     1       3.093   5.887  -8.637  0.00  0.00    +0.243 C 
ATOM      2  C   UNL     1       2.120   6.870  -8.115  0.00  0.00    +0.274 C 
ATOM      3  O   UNL     1       2.288   8.121  -8.260  0.00  0.00    -0.270 OA
ATOM      4  N   UNL     1       1.782   6.297  -6.868  0.00  0.00    -0.225 N 
ATOM      5  C   UNL     1       2.452   5.079  -6.640  0.00  0.00    +0.307 C 
ATOM      6  C   UNL     1       3.912   5.463  -5.959  0.00  0.00    +0.149 C 
ATOM      7  N   UNL     1       3.290   6.280  -4.753  0.00  0.00    -0.273 N 
ATOM      8  C   UNL     1       1.923   6.228  -4.524  0.00  0.00    +0.244 C 
ATOM      9  O   UNL     1       1.516   6.641  -3.396  0.00  0.00    -0.273 OA
ATOM     10  C   UNL     1       4.414   6.134  -3.829  0.00  0.00    +0.094 C 
ATOM     11  C   UNL     1       4.764   4.651  -3.862  0.00  0.00    +0.023 C 
ATOM     12  C   UNL     1       4.011   4.086  -5.038  0.00  0.00    +0.029 C 
ATOM     13  O   UNL     1       1.843   4.128  -5.929  0.00  0.00    -0.172 OA
ATOM     14  C   UNL     1       1.014   6.974  -5.662  0.00  0.00    +0.160 C 
ATOM     15  O   UNL     1       2.867   4.723  -7.878  0.00  0.00    -0.294 OA
ATOM     16  C   UNL     1       4.528   6.376  -8.468  0.00  0.00    +0.063 C 
ENDROOT
BRANCH   1  18
ATOM     17  C   UNL     1       3.102   6.047 -11.191  0.00  0.00    +0.245 C 
ATOM     18  N   UNL     1       2.966   5.456  -9.946  0.00  0.00    -0.173 NA
ATOM     19  O   UNL     1       3.737   7.145 -11.125  0.00  0.00    -0.273 OA
BRANCH  17  34
ATOM     20  C   UNL     1       0.619   5.712 -12.868  0.00  0.00    +0.090 C 
ATOM     21  N   UNL     1       1.383   5.709 -12.854  0.00  0.00    -0.272 NA
ATOM     22  C   UNL     1       1.863   6.935 -13.711  0.00  0.00    +0.066 C 
ATOM     23  C   UNL     1       3.053   6.009 -14.544  0.00  0.00    +0.038 C 
ATOM     24  C   UNL     1       3.556   7.279 -15.381  0.00  0.00    -0.020 A 
ATOM     25  C   UNL     1       2.534   7.862 -16.113  0.00  0.00    +0.011 A 
ATOM     26  C   UNL     1       2.646   8.296 -17.398  0.00  0.00    +0.081 A 
ATOM     27  N   UNL     1       1.460   8.893 -17.670  0.00  0.00    -0.244 NA
ATOM     28  C   UNL     1       0.539   8.516 -16.748  0.00  0.00    +0.095 A 
ATOM     29  C   UNL     1       3.822   8.079 -18.099  0.00  0.00    +0.019 A 
ATOM     30  C   UNL     1       4.828   7.366 -17.456  0.00  0.00    +0.001 A 
ATOM     31  C   UNL     1       1.195   7.665 -15.864  0.00  0.00    -0.001 A 
ATOM     32  C   UNL     1       4.684   6.954 -16.134  0.00  0.00    -0.004 A 
ATOM     33  C   UNL     1       4.098   6.274 -13.323  0.00  0.00    +0.016 C 
ATOM     34  C   UNL     1       3.728   5.035 -12.296  0.00  0.00    +0.095 C 
ATOM     35  C   UNL     1       0.740   6.638 -14.872  0.00  0.00    +0.044 C 
ATOM     36  C   UNL     1       2.269   4.655 -12.964  0.00  0.00    +0.081 C 
ENDBRANCH  17  34
ENDBRANCH   1  18
BRANCH  14  37
ATOM     37  C   UNL     1      -0.117   5.753  -5.636  0.00  0.00    +0.056 C 
BRANCH  37  38
ATOM     38  C   UNL     1      -1.140   6.208  -4.675  0.00  0.00    -0.020 A 
ATOM     39  C   UNL     1      -1.487   7.544  -4.518  0.00  0.00    -0.004 A 
ATOM     40  C   UNL     1      -2.439   7.859  -3.556  0.00  0.00    -0.000 A 
ATOM     41  C   UNL     1      -2.992   6.863  -2.776  0.00  0.00    -0.000 A 
ATOM     42  C   UNL     1      -3.112   5.618  -3.382  0.00  0.00    -0.000 A 
ATOM     43  C   UNL     1      -2.114   5.295  -4.291  0.00  0.00    -0.004 A 
ENDBRANCH  37  38
ENDBRANCH  14  37
TORSDOF 4
ENDMDL
MODEL 9
REMARK VINA RESULT:      -8.8      2.648      9.950
REMARK  Name = 
REMARK  4 active torsions:
REMARK  status: ('A' for Active; 'I' for Inactive)
REMARK    1  A    between atoms: C_4  and  C_5
REMARK    2  A    between atoms: N_7  and  C_8
REMARK    3  A    between atoms: C_20  and  C_21
REMARK    4  A    between atoms: C_21  and  C_22
REMARK                            x       y       z     vdW  Elec       q    Type
REMARK                         _______ _______ _______ _____ _____    ______ ____
ROOT
ATOM      1  C   UNL     1       2.127   5.942  -1.316  0.00  0.00    +0.243 C 
ATOM      2  C   UNL     1       3.046   6.744  -0.482  0.00  0.00    +0.274 C 
ATOM      3  O   UNL     1       3.964   6.207   0.211  0.00  0.00    -0.270 OA
ATOM      4  N   UNL     1       2.165   7.709   0.058  0.00  0.00    -0.225 N 
ATOM      5  C   UNL     1       0.844   7.545  -0.402  0.00  0.00    +0.307 C 
ATOM      6  C   UNL     1       0.121   6.457   0.616  0.00  0.00    +0.149 C 
ATOM      7  N   UNL     1       0.420   7.282   1.934  0.00  0.00    -0.273 N 
ATOM      8  C   UNL     1       0.898   8.581   1.834  0.00  0.00    +0.244 C 
ATOM      9  O   UNL     1       0.836   9.295   2.881  0.00  0.00    -0.273 OA
ATOM     10  C   UNL     1      -0.660   6.728   2.751  0.00  0.00    +0.094 C 
ATOM     11  C   UNL     1      -1.901   6.803   1.870  0.00  0.00    +0.023 C 
ATOM     12  C   UNL     1      -1.395   7.119   0.486  0.00  0.00    +0.029 C 
ATOM     13  O   UNL     1       0.072   8.623  -0.555  0.00  0.00    -0.172 OA
ATOM     14  C   UNL     1       2.426   8.700   1.263  0.00  0.00    +0.160 C 
ATOM     15  O   UNL     1       0.997   6.763  -1.496  0.00  0.00    -0.294 OA
ATOM     16  C   UNL     1       1.745   4.634  -0.630  0.00  0.00    +0.063 C 
ENDROOT
BRANCH   1  18
ATOM     17  C   UNL     1       3.059   6.321  -3.669  0.00  0.00    +0.245 C 
ATOM     18  N   UNL     1       2.510   5.622  -2.608  0.00  0.00    -0.173 NA
ATOM     19  O   UNL     1       3.566   7.425  -3.296  0.00  0.00    -0.273 OA
BRANCH  17  34
ATOM     20  C   UNL     1       1.021   4.602  -5.076  0.00  0.00    +0.090 C 
ATOM     21  N   UNL     1       1.716   4.917  -5.105  0.00  0.00    -0.272 NA
ATOM     22  C   UNL     1       1.689   5.987  -6.255  0.00  0.00    +0.066 C 
ATOM     23  C   UNL     1       3.194   5.463  -6.908  0.00  0.00    +0.038 C 
ATOM     24  C   UNL     1       3.169   6.586  -8.051  0.00  0.00    -0.020 A 
ATOM     25  C   UNL     1       2.034   6.501  -8.842  0.00  0.00    +0.011 A 
ATOM     26  C   UNL     1       2.019   6.621 -10.198  0.00  0.00    +0.081 A 
ATOM     27  N   UNL     1       0.707   6.592 -10.538  0.00  0.00    -0.244 NA
ATOM     28  C   UNL     1      -0.020   6.102  -9.502  0.00  0.00    +0.095 A 
ATOM     29  C   UNL     1       3.212   6.746 -10.892  0.00  0.00    +0.019 A 
ATOM     30  C   UNL     1       4.391   6.688 -10.154  0.00  0.00    +0.001 A 
ATOM     31  C   UNL     1       0.885   5.837  -8.479  0.00  0.00    -0.001 A 
ATOM     32  C   UNL     1       4.365   6.584  -8.767  0.00  0.00    -0.004 A 
ATOM     33  C   UNL     1       3.976   6.419  -5.847  0.00  0.00    +0.016 C 
ATOM     34  C   UNL     1       4.100   5.424  -4.535  0.00  0.00    +0.095 C 
ATOM     35  C   UNL     1       0.847   4.985  -7.247  0.00  0.00    +0.044 C 
ATOM     36  C   UNL     1       2.962   4.329  -5.010  0.00  0.00    +0.081 C 
ENDBRANCH  17  34
ENDBRANCH   1  18
BRANCH  14  37
ATOM     37  C   UNL     1       2.031  10.019   0.327  0.00  0.00    +0.056 C 
BRANCH  37  38
ATOM     38  C   UNL     1       3.158  10.955   0.500  0.00  0.00    -0.020 A 
ATOM     39  C   UNL     1       4.174  10.751   1.427  0.00  0.00    -0.004 A 
ATOM     40  C   UNL     1       5.166  11.719   1.527  0.00  0.00    -0.000 A 
ATOM     41  C   UNL     1       5.111  12.851   0.738  0.00  0.00    -0.000 A 
ATOM     42  C   UNL     1       4.529  12.688  -0.513  0.00  0.00    -0.000 A 
ATOM     43  C   UNL     1       3.495  11.764  -0.577  0.00  0.00    -0.004 A 
ENDBRANCH  37  38
ENDBRANCH  14  37
TORSDOF 4
ENDMDL
