MODEL 1
REMARK VINA RESULT:      -8.0      0.000      0.000
REMARK  Name = 
REMARK  10 active torsions:
REMARK  status: ('A' for Active; 'I' for Inactive)
REMARK    1  A    between atoms: C_2  and  O_3
REMARK    2  A    between atoms: O_3  and  C_4
REMARK    3  A    between atoms: C_6  and  C_7
REMARK    4  A    between atoms: C_7  and  C_8
REMARK    5  A    between atoms: N_10  and  C_11
REMARK    6  A    between atoms: C_11  and  C_12
REMARK    7  A    between atoms: C_11  and  C_16
REMARK    8  A    between atoms: C_12  and  C_13
REMARK    9  A    between atoms: C_21  and  N_22
REMARK   10  A    between atoms: C_30  and  C_31
REMARK                            x       y       z     vdW  Elec       q    Type
REMARK                         _______ _______ _______ _____ _____    ______ ____
ROOT
ATOM      1  C   UNL     1       1.599   6.568  -5.576  0.00  0.00    +0.119 C 
ENDROOT
BRANCH   1   2
ATOM      2  C   UNL     1       2.783   5.825  -4.741  0.00  0.00    +0.011 A 
ATOM      3  C   UNL     1       3.521   6.512  -3.878  0.00  0.00    +0.045 A 
ATOM      4  C   UNL     1       4.674   5.878  -3.419  0.00  0.00    +0.014 A 
ATOM      5  C   UNL     1       5.159   4.736  -4.046  0.00  0.00    +0.001 A 
ATOM      6  C   UNL     1       4.273   3.978  -4.801  0.00  0.00    -0.000 A 
ATOM      7  C   UNL     1       3.264   4.709  -5.416  0.00  0.00    -0.001 A 
BRANCH   3   8
ATOM      8  N   UNL     1       2.854   7.474  -3.045  0.00  0.00    -0.308 N 
ATOM      9  C   UNL     1       3.828   8.262  -2.264  0.00  0.00    +0.091 C 
ATOM     10  C   UNL     1       3.384   8.502  -0.863  0.00  0.00    +0.021 C 
ATOM     11  C   UNL     1       3.417   7.195  -0.079  0.00  0.00    +0.004 C 
ATOM     12  C   UNL     1       2.827   6.138  -1.004  0.00  0.00    +0.021 C 
ATOM     13  C   UNL     1       1.987   6.803  -2.059  0.00  0.00    +0.091 C 
ENDBRANCH   3   8
ENDBRANCH   1   2
BRANCH   1  15
ATOM     14  C   UNL     1       1.752   7.077  -8.016  0.00  0.00    +0.246 C 
ATOM     15  N   UNL     1       2.237   6.190  -6.993  0.00  0.00    -0.202 NA
ATOM     16  O   UNL     1       2.047   8.291  -7.791  0.00  0.00    -0.273 OA
BRANCH  14  17
ATOM     17  C   UNL     1       0.839   6.735  -9.091  0.00  0.00    +0.113 C 
BRANCH  17  22
ATOM     18  C   UNL     1       2.537   5.838 -12.200  0.00  0.00    +0.145 A 
ATOM     19  C   UNL     1       1.370   5.533 -12.897  0.00  0.00    +0.114 A 
ATOM     20  C   UNL     1       0.402   4.877 -12.142  0.00  0.00    +0.009 A 
ATOM     21  C   UNL     1       0.454   4.943 -10.752  0.00  0.00    -0.003 A 
ATOM     22  C   UNL     1       1.366   5.756 -10.084  0.00  0.00    -0.010 A 
ATOM     23  C   UNL     1       2.531   5.980 -10.814  0.00  0.00    +0.033 A 
BRANCH  19  24
ATOM     24  C   UNL     1       1.033   6.271 -14.118  0.00  0.00    +0.391 C 
ATOM     25  O   UNL     1       0.529   5.534 -15.195  0.00  0.00    -0.240 OA
ATOM     26  O   UNL     1       0.772   7.491 -14.145  0.00  0.00    -0.240 OA
ENDBRANCH  19  24
BRANCH  18  27
ATOM     27  O   UNL     1       3.658   6.024 -12.979  0.00  0.00    -0.475 OA
BRANCH  27  29
ATOM     28  C   UNL     1       5.921   5.463 -12.390  0.00  0.00    +0.051 C 
ATOM     29  C   UNL     1       4.691   5.050 -13.062  0.00  0.00    +0.206 C 
ENDBRANCH  27  29
ENDBRANCH  18  27
ENDBRANCH  17  22
ENDBRANCH  14  17
ENDBRANCH   1  15
BRANCH   1  30
ATOM     30  C   UNL     1       0.554   5.271  -5.597  0.00  0.00    +0.026 C 
BRANCH  30  31
ATOM     31  C   UNL     1      -0.791   5.873  -5.294  0.00  0.00    +0.002 C 
ATOM     32  C   UNL     1      -0.708   7.363  -5.027  0.00  0.00    +0.000 C 
ATOM     33  C   UNL     1      -1.707   5.666  -6.467  0.00  0.00    +0.000 C 
ENDBRANCH  30  31
ENDBRANCH   1  30
TORSDOF 10
ENDMDL
MODEL 2
REMARK VINA RESULT:      -7.7      3.649      9.010
REMARK  Name = 
REMARK  10 active torsions:
REMARK  status: ('A' for Active; 'I' for Inactive)
REMARK    1  A    between atoms: C_2  and  O_3
REMARK    2  A    between atoms: O_3  and  C_4
REMARK    3  A    between atoms: C_6  and  C_7
REMARK    4  A    between atoms: C_7  and  C_8
REMARK    5  A    between atoms: N_10  and  C_11
REMARK    6  A    between atoms: C_11  and  C_12
REMARK    7  A    between atoms: C_11  and  C_16
REMARK    8  A    between atoms: C_12  and  C_13
REMARK    9  A    between atoms: C_21  and  N_22
REMARK   10  A    between atoms: C_30  and  C_31
REMARK                            x       y       z     vdW  Elec       q    Type
REMARK                         _______ _______ _______ _____ _____    ______ ____
ROOT
ATOM      1  C   UNL     1       2.325   5.245  -6.702  0.00  0.00    +0.119 C 
ENDROOT
BRANCH   1   2
ATOM      2  C   UNL     1       3.231   5.534  -8.024  0.00  0.00    +0.011 A 
ATOM      3  C   UNL     1       2.774   5.215  -9.228  0.00  0.00    +0.045 A 
ATOM      4  C   UNL     1       3.706   5.236 -10.263  0.00  0.00    +0.014 A 
ATOM      5  C   UNL     1       5.069   5.300  -9.995  0.00  0.00    +0.001 A 
ATOM      6  C   UNL     1       5.471   5.806  -8.764  0.00  0.00    -0.000 A 
ATOM      7  C   UNL     1       4.588   5.556  -7.720  0.00  0.00    -0.001 A 
BRANCH   3   8
ATOM      8  N   UNL     1       1.388   5.478  -9.508  0.00  0.00    -0.308 N 
ATOM      9  C   UNL     1       0.747   4.309 -10.140  0.00  0.00    +0.091 C 
ATOM     10  C   UNL     1      -0.182   4.687 -11.241  0.00  0.00    +0.021 C 
ATOM     11  C   UNL     1       0.611   5.222 -12.427  0.00  0.00    +0.004 C 
ATOM     12  C   UNL     1       1.674   6.142 -11.838  0.00  0.00    +0.021 C 
ATOM     13  C   UNL     1       1.250   6.590 -10.467  0.00  0.00    +0.091 C 
ENDBRANCH   3   8
ENDBRANCH   1   2
BRANCH   1  15
ATOM     14  C   UNL     1       3.079   5.796  -4.386  0.00  0.00    +0.246 C 
ATOM     15  N   UNL     1       3.232   6.171  -5.766  0.00  0.00    -0.202 NA
ATOM     16  O   UNL     1       3.427   4.596  -4.164  0.00  0.00    -0.273 OA
BRANCH  14  17
ATOM     17  C   UNL     1       2.408   6.565  -3.354  0.00  0.00    +0.113 C 
BRANCH  17  22
ATOM     18  C   UNL     1      -0.649   5.463  -1.685  0.00  0.00    +0.145 A 
ATOM     19  C   UNL     1      -0.458   6.241  -0.546  0.00  0.00    +0.114 A 
ATOM     20  C   UNL     1       0.863   6.316  -0.114  0.00  0.00    +0.009 A 
ATOM     21  C   UNL     1       1.894   6.011  -0.999  0.00  0.00    -0.003 A 
ATOM     22  C   UNL     1       1.658   5.760  -2.349  0.00  0.00    -0.010 A 
ATOM     23  C   UNL     1       0.385   5.250  -2.593  0.00  0.00    +0.033 A 
BRANCH  19  24
ATOM     24  C   UNL     1      -1.455   7.248  -0.172  0.00  0.00    +0.391 C 
ATOM     25  O   UNL     1      -1.900   7.250   1.155  0.00  0.00    -0.240 OA
ATOM     26  O   UNL     1      -1.628   8.320  -0.788  0.00  0.00    -0.240 OA
ENDBRANCH  19  24
BRANCH  18  27
ATOM     27  O   UNL     1      -1.924   4.969  -1.855  0.00  0.00    -0.475 OA
BRANCH  27  29
ATOM     28  C   UNL     1      -3.592   6.281  -2.985  0.00  0.00    +0.051 C 
ATOM     29  C   UNL     1      -2.656   5.162  -3.059  0.00  0.00    +0.206 C 
ENDBRANCH  27  29
ENDBRANCH  18  27
ENDBRANCH  17  22
ENDBRANCH  14  17
ENDBRANCH   1  15
BRANCH   1  30
ATOM     30  C   UNL     1       1.213   6.453  -6.979  0.00  0.00    +0.026 C 
BRANCH  30  31
ATOM     31  C   UNL     1       0.023   6.061  -6.148  0.00  0.00    +0.002 C 
ATOM     32  C   UNL     1      -0.573   7.239  -5.403  0.00  0.00    +0.000 C 
ATOM     33  C   UNL     1      -1.044   5.492  -7.040  0.00  0.00    +0.000 C 
ENDBRANCH  30  31
ENDBRANCH   1  30
TORSDOF 10
ENDMDL
MODEL 3
REMARK VINA RESULT:      -7.7      1.679      2.518
REMARK  Name = 
REMARK  10 active torsions:
REMARK  status: ('A' for Active; 'I' for Inactive)
REMARK    1  A    between atoms: C_2  and  O_3
REMARK    2  A    between atoms: O_3  and  C_4
REMARK    3  A    between atoms: C_6  and  C_7
REMARK    4  A    between atoms: C_7  and  C_8
REMARK    5  A    between atoms: N_10  and  C_11
REMARK    6  A    between atoms: C_11  and  C_12
REMARK    7  A    between atoms: C_11  and  C_16
REMARK    8  A    between atoms: C_12  and  C_13
REMARK    9  A    between atoms: C_21  and  N_22
REMARK   10  A    between atoms: C_30  and  C_31
REMARK                            x       y       z     vdW  Elec       q    Type
REMARK                         _______ _______ _______ _____ _____    ______ ____
ROOT
ATOM      1  C   UNL     1       0.071   6.732  -4.548  0.00  0.00    +0.119 C 
ENDROOT
BRANCH   1   2
ATOM      2  C   UNL     1       0.857   6.182  -3.232  0.00  0.00    +0.011 A 
ATOM      3  C   UNL     1       2.183   6.149  -3.213  0.00  0.00    +0.045 A 
ATOM      4  C   UNL     1       2.763   5.418  -2.178  0.00  0.00    +0.014 A 
ATOM      5  C   UNL     1       2.002   4.551  -1.403  0.00  0.00    +0.001 A 
ATOM      6  C   UNL     1       0.628   4.759  -1.345  0.00  0.00    -0.000 A 
ATOM      7  C   UNL     1       0.075   5.293  -2.502  0.00  0.00    -0.001 A 
BRANCH   3   8
ATOM      8  N   UNL     1       2.888   7.265  -3.782  0.00  0.00    -0.308 N 
ATOM      9  C   UNL     1       3.938   6.808  -4.712  0.00  0.00    +0.091 C 
ATOM     10  C   UNL     1       5.197   7.593  -4.591  0.00  0.00    +0.021 C 
ATOM     11  C   UNL     1       5.875   7.282  -3.262  0.00  0.00    +0.004 C 
ATOM     12  C   UNL     1       4.762   7.265  -2.220  0.00  0.00    +0.021 C 
ATOM     13  C   UNL     1       3.579   8.039  -2.733  0.00  0.00    +0.091 C 
ENDBRANCH   3   8
ENDBRANCH   1   2
BRANCH   1  15
ATOM     14  C   UNL     1       0.813   6.184  -6.868  0.00  0.00    +0.246 C 
ATOM     15  N   UNL     1       0.778   5.679  -5.522  0.00  0.00    -0.202 NA
ATOM     16  O   UNL     1       1.462   7.270  -6.967  0.00  0.00    -0.273 OA
BRANCH  14  17
ATOM     17  C   UNL     1       0.041   5.690  -7.994  0.00  0.00    +0.113 C 
BRANCH  17  22
ATOM     18  C   UNL     1       2.306   5.993 -10.845  0.00  0.00    +0.145 A 
ATOM     19  C   UNL     1       1.314   5.839 -11.810  0.00  0.00    +0.114 A 
ATOM     20  C   UNL     1       0.340   4.898 -11.490  0.00  0.00    +0.009 A 
ATOM     21  C   UNL     1       0.166   4.511 -10.164  0.00  0.00    -0.003 A 
ATOM     22  C   UNL     1       0.844   5.133  -9.119  0.00  0.00    -0.010 A 
ATOM     23  C   UNL     1       2.067   5.675  -9.509  0.00  0.00    +0.033 A 
BRANCH  19  24
ATOM     24  C   UNL     1       1.073   6.904 -12.787  0.00  0.00    +0.391 C 
ATOM     25  O   UNL     1       1.568   6.713 -14.082  0.00  0.00    -0.240 OA
ATOM     26  O   UNL     1       0.150   7.739 -12.694  0.00  0.00    -0.240 OA
ENDBRANCH  19  24
BRANCH  18  27
ATOM     27  O   UNL     1       3.499   6.512 -11.301  0.00  0.00    -0.475 OA
BRANCH  27  29
ATOM     28  C   UNL     1       5.647   5.922 -10.397  0.00  0.00    +0.051 C 
ATOM     29  C   UNL     1       4.548   6.885 -10.417  0.00  0.00    +0.206 C 
ENDBRANCH  27  29
ENDBRANCH  18  27
ENDBRANCH  17  22
ENDBRANCH  14  17
ENDBRANCH   1  15
BRANCH   1  30
ATOM     30  C   UNL     1      -1.284   5.784  -4.355  0.00  0.00    +0.026 C 
BRANCH  30  31
ATOM     31  C   UNL     1      -2.430   6.756  -4.415  0.00  0.00    +0.002 C 
ATOM     32  C   UNL     1      -3.273   6.731  -3.155  0.00  0.00    +0.000 C 
ATOM     33  C   UNL     1      -1.895   8.150  -4.583  0.00  0.00    +0.000 C 
ENDBRANCH  30  31
ENDBRANCH   1  30
TORSDOF 10
ENDMDL
MODEL 4
REMARK VINA RESULT:      -7.7      4.865     10.308
REMARK  Name = 
REMARK  10 active torsions:
REMARK  status: ('A' for Active; 'I' for Inactive)
REMARK    1  A    between atoms: C_2  and  O_3
REMARK    2  A    between atoms: O_3  and  C_4
REMARK    3  A    between atoms: C_6  and  C_7
REMARK    4  A    between atoms: C_7  and  C_8
REMARK    5  A    between atoms: N_10  and  C_11
REMARK    6  A    between atoms: C_11  and  C_12
REMARK    7  A    between atoms: C_11  and  C_16
REMARK    8  A    between atoms: C_12  and  C_13
REMARK    9  A    between atoms: C_21  and  N_22
REMARK   10  A    between atoms: C_30  and  C_31
REMARK                            x       y       z     vdW  Elec       q    Type
REMARK                         _______ _______ _______ _____ _____    ______ ____
ROOT
ATOM      1  C   UNL     1      -0.219   5.302  -4.265  0.00  0.00    +0.119 C 
ENDROOT
BRANCH   1   2
ATOM      2  C   UNL     1       1.407   5.383  -4.282  0.00  0.00    +0.011 A 
ATOM      3  C   UNL     1       2.095   4.779  -5.242  0.00  0.00    +0.045 A 
ATOM      4  C   UNL     1       3.467   4.662  -5.033  0.00  0.00    +0.014 A 
ATOM      5  C   UNL     1       4.021   4.900  -3.780  0.00  0.00    +0.001 A 
ATOM      6  C   UNL     1       3.304   5.687  -2.886  0.00  0.00    -0.000 A 
ATOM      7  C   UNL     1       1.923   5.587  -3.006  0.00  0.00    -0.001 A 
BRANCH   3   8
ATOM      8  N   UNL     1       1.580   4.855  -6.582  0.00  0.00    -0.308 N 
ATOM      9  C   UNL     1       2.416   4.074  -7.514  0.00  0.00    +0.091 C 
ATOM     10  C   UNL     1       2.622   4.762  -8.819  0.00  0.00    +0.021 C 
ATOM     11  C   UNL     1       3.517   5.979  -8.626  0.00  0.00    +0.004 C 
ATOM     12  C   UNL     1       3.025   6.663  -7.356  0.00  0.00    +0.021 C 
ATOM     13  C   UNL     1       1.608   6.245  -7.076  0.00  0.00    +0.091 C 
ENDBRANCH   3   8
ENDBRANCH   1   2
BRANCH   1  15
ATOM     14  C   UNL     1      -1.569   5.394  -2.167  0.00  0.00    +0.246 C 
ATOM     15  N   UNL     1      -0.280   5.029  -2.691  0.00  0.00    -0.202 NA
ATOM     16  O   UNL     1      -2.516   4.733  -2.692  0.00  0.00    -0.273 OA
BRANCH  14  17
ATOM     17  C   UNL     1      -1.858   6.524  -1.302  0.00  0.00    +0.113 C 
BRANCH  17  22
ATOM     18  C   UNL     1      -1.470   7.611   2.164  0.00  0.00    +0.145 A 
ATOM     19  C   UNL     1      -0.330   8.376   1.929  0.00  0.00    +0.114 A 
ATOM     20  C   UNL     1       0.565   7.813   1.024  0.00  0.00    +0.009 A 
ATOM     21  C   UNL     1       0.125   6.828   0.144  0.00  0.00    -0.003 A 
ATOM     22  C   UNL     1      -1.219   6.474   0.043  0.00  0.00    -0.010 A 
ATOM     23  C   UNL     1      -1.929   6.694   1.221  0.00  0.00    +0.033 A 
BRANCH  19  24
ATOM     24  C   UNL     1      -0.340   9.812   2.219  0.00  0.00    +0.391 C 
ATOM     25  O   UNL     1      -1.326  10.586   1.595  0.00  0.00    -0.240 OA
ATOM     26  O   UNL     1       0.159  10.320   3.244  0.00  0.00    -0.240 OA
ENDBRANCH  19  24
BRANCH  18  27
ATOM     27  O   UNL     1      -2.112   7.859   3.358  0.00  0.00    -0.475 OA
BRANCH  27  29
ATOM     28  C   UNL     1      -3.904   9.451   3.542  0.00  0.00    +0.051 C 
ATOM     29  C   UNL     1      -3.520   8.046   3.435  0.00  0.00    +0.206 C 
ENDBRANCH  27  29
ENDBRANCH  18  27
ENDBRANCH  17  22
ENDBRANCH  14  17
ENDBRANCH   1  15
BRANCH   1  30
ATOM     30  C   UNL     1      -0.477   6.938  -4.086  0.00  0.00    +0.026 C 
BRANCH  30  31
ATOM     31  C   UNL     1      -1.392   7.296  -5.225  0.00  0.00    +0.002 C 
ATOM     32  C   UNL     1      -1.962   6.072  -5.913  0.00  0.00    +0.000 C 
ATOM     33  C   UNL     1      -2.543   8.110  -4.705  0.00  0.00    +0.000 C 
ENDBRANCH  30  31
ENDBRANCH   1  30
TORSDOF 10
ENDMDL
MODEL 5
REMARK VINA RESULT:      -7.7      2.242      4.552
REMARK  Name = 
REMARK  10 active torsions:
REMARK  status: ('A' for Active; 'I' for Inactive)
REMARK    1  A    between atoms: C_2  and  O_3
REMARK    2  A    between atoms: O_3  and  C_4
REMARK    3  A    between atoms: C_6  and  C_7
REMARK    4  A    between atoms: C_7  and  C_8
REMARK    5  A    between atoms: N_10  and  C_11
REMARK    6  A    between atoms: C_11  and  C_12
REMARK    7  A    between atoms: C_11  and  C_16
REMARK    8  A    between atoms: C_12  and  C_13
REMARK    9  A    between atoms: C_21  and  N_22
REMARK   10  A    between atoms: C_30  and  C_31
REMARK                            x       y       z     vdW  Elec       q    Type
REMARK                         _______ _______ _______ _____ _____    ______ ____
ROOT
ATOM      1  C   UNL     1       2.003   5.233  -6.221  0.00  0.00    +0.119 C 
ENDROOT
BRANCH   1   2
ATOM      2  C   UNL     1       0.417   5.592  -6.138  0.00  0.00    +0.011 A 
ATOM      3  C   UNL     1      -0.217   5.544  -4.974  0.00  0.00    +0.045 A 
ATOM      4  C   UNL     1      -1.608   5.591  -5.031  0.00  0.00    +0.014 A 
ATOM      5  C   UNL     1      -2.280   5.405  -6.234  0.00  0.00    +0.001 A 
ATOM      6  C   UNL     1      -1.584   5.639  -7.415  0.00  0.00    -0.000 A 
ATOM      7  C   UNL     1      -0.225   5.360  -7.350  0.00  0.00    -0.001 A 
BRANCH   3   8
ATOM      8  N   UNL     1       0.468   6.055  -3.818  0.00  0.00    -0.308 N 
ATOM      9  C   UNL     1       0.721   4.982  -2.837  0.00  0.00    +0.091 C 
ATOM     10  C   UNL     1       0.496   5.421  -1.432  0.00  0.00    +0.021 C 
ATOM     11  C   UNL     1      -0.991   5.648  -1.192  0.00  0.00    +0.004 C 
ATOM     12  C   UNL     1      -1.505   6.387  -2.421  0.00  0.00    +0.021 C 
ATOM     13  C   UNL     1      -0.357   7.060  -3.121  0.00  0.00    +0.091 C 
ENDBRANCH   3   8
ENDBRANCH   1   2
BRANCH   1  15
ATOM     14  C   UNL     1       3.042   4.728  -8.434  0.00  0.00    +0.246 C 
ATOM     15  N   UNL     1       2.095   5.587  -7.777  0.00  0.00    -0.202 NA
ATOM     16  O   UNL     1       2.727   3.501  -8.354  0.00  0.00    -0.273 OA
BRANCH  14  17
ATOM     17  C   UNL     1       4.340   5.115  -8.957  0.00  0.00    +0.113 C 
BRANCH  17  22
ATOM     18  C   UNL     1       4.327   5.737 -12.557  0.00  0.00    +0.145 A 
ATOM     19  C   UNL     1       5.663   6.127 -12.622  0.00  0.00    +0.114 A 
ATOM     20  C   UNL     1       6.091   6.898 -11.545  0.00  0.00    +0.009 A 
ATOM     21  C   UNL     1       5.370   6.876 -10.354  0.00  0.00    -0.003 A 
ATOM     22  C   UNL     1       4.303   6.004 -10.152  0.00  0.00    -0.010 A 
ATOM     23  C   UNL     1       3.662   5.645 -11.336  0.00  0.00    +0.033 A 
BRANCH  19  24
ATOM     24  C   UNL     1       6.602   5.382 -13.466  0.00  0.00    +0.391 C 
ATOM     25  O   UNL     1       6.831   5.870 -14.757  0.00  0.00    -0.240 OA
ATOM     26  O   UNL     1       7.491   4.629 -13.020  0.00  0.00    -0.240 OA
ENDBRANCH  19  24
BRANCH  18  27
ATOM     27  O   UNL     1       3.745   5.419 -13.765  0.00  0.00    -0.475 OA
BRANCH  27  29
ATOM     28  C   UNL     1       1.472   4.699 -14.069  0.00  0.00    +0.051 C 
ATOM     29  C   UNL     1       2.418   5.811 -14.093  0.00  0.00    +0.206 C 
ENDBRANCH  27  29
ENDBRANCH  18  27
ENDBRANCH  17  22
ENDBRANCH  14  17
ENDBRANCH   1  15
BRANCH   1  30
ATOM     30  C   UNL     1       2.550   6.734  -5.751  0.00  0.00    +0.026 C 
BRANCH  30  31
ATOM     31  C   UNL     1       3.996   6.510  -5.402  0.00  0.00    +0.002 C 
ATOM     32  C   UNL     1       4.528   7.562  -4.448  0.00  0.00    +0.000 C 
ATOM     33  C   UNL     1       4.149   5.170  -4.741  0.00  0.00    +0.000 C 
ENDBRANCH  30  31
ENDBRANCH   1  30
TORSDOF 10
ENDMDL
MODEL 6
REMARK VINA RESULT:      -7.6      2.828      9.433
REMARK  Name = 
REMARK  10 active torsions:
REMARK  status: ('A' for Active; 'I' for Inactive)
REMARK    1  A    between atoms: C_2  and  O_3
REMARK    2  A    between atoms: O_3  and  C_4
REMARK    3  A    between atoms: C_6  and  C_7
REMARK    4  A    between atoms: C_7  and  C_8
REMARK    5  A    between atoms: N_10  and  C_11
REMARK    6  A    between atoms: C_11  and  C_12
REMARK    7  A    between atoms: C_11  and  C_16
REMARK    8  A    between atoms: C_12  and  C_13
REMARK    9  A    between atoms: C_21  and  N_22
REMARK   10  A    between atoms: C_30  and  C_31
REMARK                            x       y       z     vdW  Elec       q    Type
REMARK                         _______ _______ _______ _____ _____    ______ ____
ROOT
ATOM      1  C   UNL     1       2.854   6.466  -9.836  0.00  0.00    +0.119 C 
ENDROOT
BRANCH   1   2
ATOM      2  C   UNL     1       1.708   5.583 -10.583  0.00  0.00    +0.011 A 
ATOM      3  C   UNL     1       0.925   6.142 -11.496  0.00  0.00    +0.045 A 
ATOM      4  C   UNL     1      -0.193   5.404 -11.878  0.00  0.00    +0.014 A 
ATOM      5  C   UNL     1      -0.607   4.301 -11.141  0.00  0.00    +0.001 A 
ATOM      6  C   UNL     1       0.327   3.668 -10.330  0.00  0.00    -0.000 A 
ATOM      7  C   UNL     1       1.297   4.509  -9.799  0.00  0.00    -0.001 A 
BRANCH   3   8
ATOM      8  N   UNL     1       1.529   7.058 -12.424  0.00  0.00    -0.308 N 
ATOM      9  C   UNL     1       0.502   7.842 -13.136  0.00  0.00    +0.091 C 
ATOM     10  C   UNL     1       0.813   8.023 -14.581  0.00  0.00    +0.021 C 
ATOM     11  C   UNL     1       0.675   6.691 -15.310  0.00  0.00    +0.004 C 
ATOM     12  C   UNL     1       1.329   5.652 -14.408  0.00  0.00    +0.021 C 
ATOM     13  C   UNL     1       2.282   6.331 -13.464  0.00  0.00    +0.091 C 
ENDBRANCH   3   8
ENDBRANCH   1   2
BRANCH   1  15
ATOM     14  C   UNL     1       2.631   7.252  -7.476  0.00  0.00    +0.246 C 
ATOM     15  N   UNL     1       2.235   6.210  -8.384  0.00  0.00    -0.202 NA
ATOM     16  O   UNL     1       2.237   8.400  -7.847  0.00  0.00    -0.273 OA
BRANCH  14  17
ATOM     17  C   UNL     1       3.558   7.122  -6.367  0.00  0.00    +0.113 C 
BRANCH  17  22
ATOM     18  C   UNL     1       2.438   5.478  -3.302  0.00  0.00    +0.145 A 
ATOM     19  C   UNL     1       3.714   5.325  -2.768  0.00  0.00    +0.114 A 
ATOM     20  C   UNL     1       4.693   4.991  -3.699  0.00  0.00    +0.009 A 
ATOM     21  C   UNL     1       4.467   5.235  -5.051  0.00  0.00    -0.003 A 
ATOM     22  C   UNL     1       3.345   5.929  -5.499  0.00  0.00    -0.010 A 
ATOM     23  C   UNL     1       2.253   5.807  -4.643  0.00  0.00    +0.033 A 
BRANCH  19  24
ATOM     24  C   UNL     1       4.047   5.941  -1.480  0.00  0.00    +0.391 C 
ATOM     25  O   UNL     1       3.903   7.328  -1.375  0.00  0.00    -0.240 OA
ATOM     26  O   UNL     1       4.046   5.327  -0.394  0.00  0.00    -0.240 OA
ENDBRANCH  19  24
BRANCH  18  27
ATOM     27  O   UNL     1       1.400   5.322  -2.408  0.00  0.00    -0.475 OA
BRANCH  27  29
ATOM     28  C   UNL     1      -0.950   5.437  -2.898  0.00  0.00    +0.051 C 
ATOM     29  C   UNL     1       0.242   6.146  -2.441  0.00  0.00    +0.206 C 
ENDBRANCH  27  29
ENDBRANCH  18  27
ENDBRANCH  17  22
ENDBRANCH  14  17
ENDBRANCH   1  15
BRANCH   1  30
ATOM     30  C   UNL     1       3.961   5.231  -9.683  0.00  0.00    +0.026 C 
BRANCH  30  31
ATOM     31  C   UNL     1       5.232   5.799 -10.254  0.00  0.00    +0.002 C 
ATOM     32  C   UNL     1       5.080   7.249 -10.668  0.00  0.00    +0.000 C 
ATOM     33  C   UNL     1       6.320   5.727  -9.220  0.00  0.00    +0.000 C 
ENDBRANCH  30  31
ENDBRANCH   1  30
TORSDOF 10
ENDMDL
MODEL 7
REMARK VINA RESULT:      -7.6      1.989      4.198
REMARK  Name = 
REMARK  10 active torsions:
REMARK  status: ('A' for Active; 'I' for Inactive)
REMARK    1  A    between atoms: C_2  and  O_3
REMARK    2  A    between atoms: O_3  and  C_4
REMARK    3  A    between atoms: C_6  and  C_7
REMARK    4  A    between atoms: C_7  and  C_8
REMARK    5  A    between atoms: N_10  and  C_11
REMARK    6  A    between atoms: C_11  and  C_12
REMARK    7  A    between atoms: C_11  and  C_16
REMARK    8  A    between atoms: C_12  and  C_13
REMARK    9  A    between atoms: C_21  and  N_22
REMARK   10  A    between atoms: C_30  and  C_31
REMARK                            x       y       z     vdW  Elec       q    Type
REMARK                         _______ _______ _______ _____ _____    ______ ____
ROOT
ATOM      1  C   UNL     1       2.381   5.601  -5.166  0.00  0.00    +0.119 C 
ENDROOT
BRANCH   1   2
ATOM      2  C   UNL     1       1.032   6.279  -4.558  0.00  0.00    +0.011 A 
ATOM      3  C   UNL     1       0.412   5.721  -3.526  0.00  0.00    +0.045 A 
ATOM      4  C   UNL     1      -0.867   6.198  -3.249  0.00  0.00    +0.014 A 
ATOM      5  C   UNL     1      -1.548   6.990  -4.166  0.00  0.00    +0.001 A 
ATOM      6  C   UNL     1      -0.804   7.678  -5.117  0.00  0.00    -0.000 A 
ATOM      7  C   UNL     1       0.362   7.035  -5.514  0.00  0.00    -0.001 A 
BRANCH   3   8
ATOM      8  N   UNL     1       1.224   5.192  -2.464  0.00  0.00    -0.308 N 
ATOM      9  C   UNL     1       0.517   5.267  -1.171  0.00  0.00    +0.091 C 
ATOM     10  C   UNL     1       1.407   5.680  -0.051  0.00  0.00    +0.021 C 
ATOM     11  C   UNL     1       1.803   7.142  -0.216  0.00  0.00    +0.004 C 
ATOM     12  C   UNL     1       2.132   7.321  -1.693  0.00  0.00    +0.021 C 
ATOM     13  C   UNL     1       2.457   5.986  -2.303  0.00  0.00    +0.091 C 
ENDBRANCH   3   8
ENDBRANCH   1   2
BRANCH   1  15
ATOM     14  C   UNL     1       2.179   4.090  -7.143  0.00  0.00    +0.246 C 
ATOM     15  N   UNL     1       1.714   5.335  -6.594  0.00  0.00    -0.202 NA
ATOM     16  O   UNL     1       1.889   3.094  -6.410  0.00  0.00    -0.273 OA
BRANCH  14  17
ATOM     17  C   UNL     1       3.069   3.926  -8.278  0.00  0.00    +0.113 C 
BRANCH  17  22
ATOM     18  C   UNL     1       3.417   5.997 -11.268  0.00  0.00    +0.145 A 
ATOM     19  C   UNL     1       4.797   5.844 -11.366  0.00  0.00    +0.114 A 
ATOM     20  C   UNL     1       5.466   5.851 -10.146  0.00  0.00    +0.009 A 
ATOM     21  C   UNL     1       4.762   5.589  -8.974  0.00  0.00    -0.003 A 
ATOM     22  C   UNL     1       3.429   5.186  -8.988  0.00  0.00    -0.010 A 
ATOM     23  C   UNL     1       2.734   5.643 -10.105  0.00  0.00    +0.033 A 
BRANCH  19  24
ATOM     24  C   UNL     1       5.382   5.246 -12.570  0.00  0.00    +0.391 C 
ATOM     25  O   UNL     1       6.760   4.999 -12.559  0.00  0.00    -0.240 OA
ATOM     26  O   UNL     1       4.734   4.583 -13.404  0.00  0.00    -0.240 OA
ENDBRANCH  19  24
BRANCH  18  27
ATOM     27  O   UNL     1       2.792   6.476 -12.399  0.00  0.00    -0.475 OA
BRANCH  27  29
ATOM     28  C   UNL     1       0.678   7.361 -13.123  0.00  0.00    +0.051 C 
ATOM     29  C   UNL     1       1.432   6.186 -12.694  0.00  0.00    +0.206 C 
ENDBRANCH  27  29
ENDBRANCH  18  27
ENDBRANCH  17  22
ENDBRANCH  14  17
ENDBRANCH   1  15
BRANCH   1  30
ATOM     30  C   UNL     1       3.090   7.025  -5.659  0.00  0.00    +0.026 C 
BRANCH  30  31
ATOM     31  C   UNL     1       4.551   6.840  -5.351  0.00  0.00    +0.002 C 
ATOM     32  C   UNL     1       5.041   7.798  -4.283  0.00  0.00    +0.000 C 
ATOM     33  C   UNL     1       4.784   5.440  -4.856  0.00  0.00    +0.000 C 
ENDBRANCH  30  31
ENDBRANCH   1  30
TORSDOF 10
ENDMDL
MODEL 8
REMARK VINA RESULT:      -7.2      1.986      3.807
REMARK  Name = 
REMARK  10 active torsions:
REMARK  status: ('A' for Active; 'I' for Inactive)
REMARK    1  A    between atoms: C_2  and  O_3
REMARK    2  A    between atoms: O_3  and  C_4
REMARK    3  A    between atoms: C_6  and  C_7
REMARK    4  A    between atoms: C_7  and  C_8
REMARK    5  A    between atoms: N_10  and  C_11
REMARK    6  A    between atoms: C_11  and  C_12
REMARK    7  A    between atoms: C_11  and  C_16
REMARK    8  A    between atoms: C_12  and  C_13
REMARK    9  A    between atoms: C_21  and  N_22
REMARK   10  A    between atoms: C_30  and  C_31
REMARK                            x       y       z     vdW  Elec       q    Type
REMARK                         _______ _______ _______ _____ _____    ______ ____
ROOT
ATOM      1  C   UNL     1       1.705   5.161  -8.139  0.00  0.00    +0.119 C 
ENDROOT
BRANCH   1   2
ATOM      2  C   UNL     1       1.093   5.587  -6.692  0.00  0.00    +0.011 A 
ATOM      3  C   UNL     1       1.714   5.231  -5.574  0.00  0.00    +0.045 A 
ATOM      4  C   UNL     1       0.992   5.390  -4.394  0.00  0.00    +0.014 A 
ATOM      5  C   UNL     1      -0.378   5.626  -4.422  0.00  0.00    +0.001 A 
ATOM      6  C   UNL     1      -0.927   6.159  -5.583  0.00  0.00    -0.000 A 
ATOM      7  C   UNL     1      -0.283   5.780  -6.754  0.00  0.00    -0.001 A 
BRANCH   3   8
ATOM      8  N   UNL     1       3.149   5.317  -5.551  0.00  0.00    -0.308 N 
ATOM      9  C   UNL     1       3.708   4.512  -4.448  0.00  0.00    +0.091 C 
ATOM     10  C   UNL     1       4.838   5.191  -3.755  0.00  0.00    +0.021 C 
ATOM     11  C   UNL     1       4.317   6.387  -2.967  0.00  0.00    +0.004 C 
ATOM     12  C   UNL     1       3.318   7.086  -3.880  0.00  0.00    +0.021 C 
ATOM     13  C   UNL     1       3.588   6.704  -5.309  0.00  0.00    +0.091 C 
ENDBRANCH   3   8
ENDBRANCH   1   2
BRANCH   1  15
ATOM     14  C   UNL     1       0.505   5.279 -10.325  0.00  0.00    +0.246 C 
ATOM     15  N   UNL     1       0.387   5.602  -8.929  0.00  0.00    -0.202 NA
ATOM     16  O   UNL     1       0.656   4.036 -10.529  0.00  0.00    -0.273 OA
BRANCH  14  17
ATOM     17  C   UNL     1       0.663   6.222 -11.417  0.00  0.00    +0.113 C 
BRANCH  17  22
ATOM     18  C   UNL     1       2.808   6.108 -14.373  0.00  0.00    +0.145 A 
ATOM     19  C   UNL     1       1.852   6.629 -15.242  0.00  0.00    +0.114 A 
ATOM     20  C   UNL     1       0.557   6.174 -15.013  0.00  0.00    +0.009 A 
ATOM     21  C   UNL     1       0.230   5.623 -13.777  0.00  0.00    -0.003 A 
ATOM     22  C   UNL     1       1.120   5.630 -12.706  0.00  0.00    -0.010 A 
ATOM     23  C   UNL     1       2.454   5.643 -13.108  0.00  0.00    +0.033 A 
BRANCH  19  24
ATOM     24  C   UNL     1       2.121   7.876 -15.962  0.00  0.00    +0.391 C 
ATOM     25  O   UNL     1       2.728   7.774 -17.219  0.00  0.00    -0.240 OA
ATOM     26  O   UNL     1       1.511   8.945 -15.756  0.00  0.00    -0.240 OA
ENDBRANCH  19  24
BRANCH  18  27
ATOM     27  O   UNL     1       4.105   6.128 -14.839  0.00  0.00    -0.475 OA
BRANCH  27  29
ATOM     28  C   UNL     1       6.497   6.045 -14.623  0.00  0.00    +0.051 C 
ATOM     29  C   UNL     1       5.217   6.322 -13.976  0.00  0.00    +0.206 C 
ENDBRANCH  27  29
ENDBRANCH  18  27
ENDBRANCH  17  22
ENDBRANCH  14  17
ENDBRANCH   1  15
BRANCH   1  30
ATOM     30  C   UNL     1       2.480   6.604  -8.437  0.00  0.00    +0.026 C 
BRANCH  30  31
ATOM     31  C   UNL     1       3.852   6.201  -8.904  0.00  0.00    +0.002 C 
ATOM     32  C   UNL     1       3.953   4.712  -9.174  0.00  0.00    +0.000 C 
ATOM     33  C   UNL     1       4.179   6.924 -10.180  0.00  0.00    +0.000 C 
ENDBRANCH  30  31
ENDBRANCH   1  30
TORSDOF 10
ENDMDL
MODEL 9
REMARK VINA RESULT:      -7.1      1.721      3.072
REMARK  Name = 
REMARK  10 active torsions:
REMARK  status: ('A' for Active; 'I' for Inactive)
REMARK    1  A    between atoms: C_2  and  O_3
REMARK    2  A    between atoms: O_3  and  C_4
REMARK    3  A    between atoms: C_6  and  C_7
REMARK    4  A    between atoms: C_7  and  C_8
REMARK    5  A    between atoms: N_10  and  C_11
REMARK    6  A    between atoms: C_11  and  C_12
REMARK    7  A    between atoms: C_11  and  C_16
REMARK    8  A    between atoms: C_12  and  C_13
REMARK    9  A    between atoms: C_21  and  N_22
REMARK   10  A    between atoms: C_30  and  C_31
REMARK                            x       y       z     vdW  Elec       q    Type
REMARK                         _______ _______ _______ _____ _____    ______ ____
ROOT
ATOM      1  C   UNL     1       2.257   5.166  -4.453  0.00  0.00    +0.119 C 
ENDROOT
BRANCH   1   2
ATOM      2  C   UNL     1       1.401   5.642  -3.152  0.00  0.00    +0.011 A 
ATOM      3  C   UNL     1       1.967   5.659  -1.952  0.00  0.00    +0.045 A 
ATOM      4  C   UNL     1       1.102   5.807  -0.869  0.00  0.00    +0.014 A 
ATOM      5  C   UNL     1      -0.270   5.652  -1.025  0.00  0.00    +0.001 A 
ATOM      6  C   UNL     1      -0.807   5.815  -2.297  0.00  0.00    -0.000 A 
ATOM      7  C   UNL     1       0.037   5.439  -3.334  0.00  0.00    -0.001 A 
BRANCH   3   8
ATOM      8  N   UNL     1       3.319   6.136  -1.857  0.00  0.00    -0.308 N 
ATOM      9  C   UNL     1       4.013   5.533  -0.703  0.00  0.00    +0.091 C 
ATOM     10  C   UNL     1       4.871   6.506   0.027  0.00  0.00    +0.021 C 
ATOM     11  C   UNL     1       3.999   7.524   0.751  0.00  0.00    +0.004 C 
ATOM     12  C   UNL     1       2.900   7.908  -0.233  0.00  0.00    +0.021 C 
ATOM     13  C   UNL     1       3.346   7.594  -1.634  0.00  0.00    +0.091 C 
ENDBRANCH   3   8
ENDBRANCH   1   2
BRANCH   1  15
ATOM     14  C   UNL     1       1.306   4.676  -6.709  0.00  0.00    +0.246 C 
ATOM     15  N   UNL     1       0.948   4.917  -5.337  0.00  0.00    -0.202 NA
ATOM     16  O   UNL     1       2.044   3.653  -6.849  0.00  0.00    -0.273 OA
BRANCH  14  17
ATOM     17  C   UNL     1       1.074   5.569  -7.829  0.00  0.00    +0.113 C 
BRANCH  17  22
ATOM     18  C   UNL     1       2.558   6.055 -11.133  0.00  0.00    +0.145 A 
ATOM     19  C   UNL     1       1.360   5.918 -11.830  0.00  0.00    +0.114 A 
ATOM     20  C   UNL     1       0.509   4.938 -11.326  0.00  0.00    +0.009 A 
ATOM     21  C   UNL     1       0.675   4.490 -10.018  0.00  0.00    -0.003 A 
ATOM     22  C   UNL     1       1.582   5.083  -9.143  0.00  0.00    -0.010 A 
ATOM     23  C   UNL     1       2.661   5.673  -9.797  0.00  0.00    +0.033 A 
BRANCH  19  24
ATOM     24  C   UNL     1       0.868   7.018 -12.664  0.00  0.00    +0.391 C 
ATOM     25  O   UNL     1       1.092   6.928 -14.042  0.00  0.00    -0.240 OA
ATOM     26  O   UNL     1      -0.054   7.789 -12.328  0.00  0.00    -0.240 OA
ENDBRANCH  19  24
BRANCH  18  27
ATOM     27  O   UNL     1       3.593   6.624 -11.843  0.00  0.00    -0.475 OA
BRANCH  27  29
ATOM     28  C   UNL     1       5.402   5.058 -12.069  0.00  0.00    +0.051 C 
ATOM     29  C   UNL     1       4.395   5.872 -12.745  0.00  0.00    +0.206 C 
ENDBRANCH  27  29
ENDBRANCH  18  27
ENDBRANCH  17  22
ENDBRANCH  14  17
ENDBRANCH   1  15
BRANCH   1  30
ATOM     30  C   UNL     1       2.500   6.692  -5.074  0.00  0.00    +0.026 C 
BRANCH  30  31
ATOM     31  C   UNL     1       3.953   6.709  -5.463  0.00  0.00    +0.002 C 
ATOM     32  C   UNL     1       4.755   7.704  -4.648  0.00  0.00    +0.000 C 
ATOM     33  C   UNL     1       4.546   5.346  -5.240  0.00  0.00    +0.000 C 
ENDBRANCH  30  31
ENDBRANCH   1  30
TORSDOF 10
ENDMDL
