MODEL 1
REMARK VINA RESULT:      -5.7      0.000      0.000
REMARK  Name = 
REMARK  0 active torsions:
REMARK  status: ('A' for Active; 'I' for Inactive)
REMARK                            x       y       z     vdW  Elec       q    Type
REMARK                         _______ _______ _______ _____ _____    ______ ____
ROOT
ATOM      1  C   UNL     1       2.847   7.234  -8.792  0.00  0.00    +0.044 C 
ATOM      2  C   UNL     1       3.496   6.234  -9.871  0.00  0.00    +0.163 C 
ATOM      3  S   UNL     1       4.392   5.180  -8.536  0.00  0.00    -0.109 S 
ATOM      4  C   UNL     1       6.061   5.413  -9.242  0.00  0.00    +0.088 C 
ATOM      5  C   UNL     1       5.662   6.221 -10.473  0.00  0.00    +0.118 C 
ATOM      6  C   UNL     1       6.864   7.111 -10.767  0.00  0.00    +0.030 C 
ATOM      7  C   UNL     1       8.079   6.219 -10.936  0.00  0.00    +0.020 C 
ATOM      8  C   UNL     1       7.726   5.230 -12.036  0.00  0.00    +0.072 C 
ATOM      9  N   UNL     1       6.427   5.479 -12.607  0.00  0.00    -0.271 NA
ATOM     10  C   UNL     1       6.343   6.815 -13.179  0.00  0.00    +0.072 C 
ATOM     11  C   UNL     1       6.536   7.835 -12.063  0.00  0.00    +0.020 C 
ATOM     12  C   UNL     1       5.347   5.362 -11.653  0.00  0.00    +0.100 C 
ATOM     13  O   UNL     1       4.673   7.090 -10.092  0.00  0.00    -0.348 OA
ENDROOT
TORSDOF 0
ENDMDL
MODEL 2
REMARK VINA RESULT:      -5.6      7.050      9.415
REMARK  Name = 
REMARK  0 active torsions:
REMARK  status: ('A' for Active; 'I' for Inactive)
REMARK                            x       y       z     vdW  Elec       q    Type
REMARK                         _______ _______ _______ _____ _____    ______ ____
ROOT
ATOM      1  C   UNL     1       3.217   6.978  -5.305  0.00  0.00    +0.044 C 
ATOM      2  C   UNL     1       2.103   6.255  -4.399  0.00  0.00    +0.163 C 
ATOM      3  S   UNL     1       1.965   4.734  -5.566  0.00  0.00    -0.109 S 
ATOM      4  C   UNL     1       0.171   4.912  -5.852  0.00  0.00    +0.088 C 
ATOM      5  C   UNL     1      -0.078   6.097  -4.924  0.00  0.00    +0.118 C 
ATOM      6  C   UNL     1      -1.253   6.844  -5.542  0.00  0.00    +0.030 C 
ATOM      7  C   UNL     1      -2.407   5.871  -5.683  0.00  0.00    +0.020 C 
ATOM      8  C   UNL     1      -2.661   5.314  -4.291  0.00  0.00    +0.072 C 
ATOM      9  N   UNL     1      -1.810   5.911  -3.294  0.00  0.00    -0.271 NA
ATOM     10  C   UNL     1      -1.997   7.352  -3.226  0.00  0.00    +0.072 C 
ATOM     11  C   UNL     1      -1.596   7.958  -4.566  0.00  0.00    +0.020 C 
ATOM     12  C   UNL     1      -0.401   5.681  -3.526  0.00  0.00    +0.100 C 
ATOM     13  O   UNL     1       0.985   6.953  -5.055  0.00  0.00    -0.348 OA
ENDROOT
TORSDOF 0
ENDMDL
MODEL 3
REMARK VINA RESULT:      -5.5      5.462      6.939
REMARK  Name = 
REMARK  0 active torsions:
REMARK  status: ('A' for Active; 'I' for Inactive)
REMARK                            x       y       z     vdW  Elec       q    Type
REMARK                         _______ _______ _______ _____ _____    ______ ____
ROOT
ATOM      1  C   UNL     1       2.673   3.875  -8.523  0.00  0.00    +0.044 C 
ATOM      2  C   UNL     1       2.092   4.490  -7.157  0.00  0.00    +0.163 C 
ATOM      3  S   UNL     1       1.841   6.242  -7.909  0.00  0.00    -0.109 S 
ATOM      4  C   UNL     1       2.879   7.097  -6.673  0.00  0.00    +0.088 C 
ATOM      5  C   UNL     1       3.209   5.892  -5.799  0.00  0.00    +0.118 C 
ATOM      6  C   UNL     1       4.577   6.199  -5.203  0.00  0.00    +0.030 C 
ATOM      7  C   UNL     1       4.487   7.528  -4.477  0.00  0.00    +0.020 C 
ATOM      8  C   UNL     1       3.363   7.378  -3.464  0.00  0.00    +0.072 C 
ATOM      9  N   UNL     1       2.801   6.052  -3.454  0.00  0.00    -0.271 NA
ATOM     10  C   UNL     1       3.807   5.048  -3.140  0.00  0.00    +0.072 C 
ATOM     11  C   UNL     1       4.871   5.067  -4.231  0.00  0.00    +0.020 C 
ATOM     12  C   UNL     1       2.206   5.669  -4.715  0.00  0.00    +0.100 C 
ATOM     13  O   UNL     1       3.426   4.826  -6.633  0.00  0.00    -0.348 OA
ENDROOT
TORSDOF 0
ENDMDL
MODEL 4
REMARK VINA RESULT:      -5.4      4.724      5.929
REMARK  Name = 
REMARK  0 active torsions:
REMARK  status: ('A' for Active; 'I' for Inactive)
REMARK                            x       y       z     vdW  Elec       q    Type
REMARK                         _______ _______ _______ _____ _____    ______ ____
ROOT
ATOM      1  C   UNL     1      -2.240   5.736  -6.403  0.00  0.00    +0.044 C 
ATOM      2  C   UNL     1      -0.754   5.189  -6.129  0.00  0.00    +0.163 C 
ATOM      3  S   UNL     1      -0.192   6.801  -5.243  0.00  0.00    -0.109 S 
ATOM      4  C   UNL     1       1.215   7.118  -6.363  0.00  0.00    +0.088 C 
ATOM      5  C   UNL     1       1.089   5.866  -7.226  0.00  0.00    +0.118 C 
ATOM      6  C   UNL     1       1.630   6.271  -8.591  0.00  0.00    +0.030 C 
ATOM      7  C   UNL     1       3.040   6.795  -8.402  0.00  0.00    +0.020 C 
ATOM      8  C   UNL     1       3.813   5.684  -7.708  0.00  0.00    +0.072 C 
ATOM      9  N   UNL     1       3.020   4.497  -7.517  0.00  0.00    -0.271 NA
ATOM     10  C   UNL     1       2.539   3.966  -8.783  0.00  0.00    +0.072 C 
ATOM     11  C   UNL     1       1.629   5.004  -9.431  0.00  0.00    +0.020 C 
ATOM     12  C   UNL     1       1.859   4.708  -6.682  0.00  0.00    +0.100 C 
ATOM     13  O   UNL     1      -0.247   5.643  -7.435  0.00  0.00    -0.348 OA
ENDROOT
TORSDOF 0
ENDMDL
MODEL 5
REMARK VINA RESULT:      -5.3      2.223      4.482
REMARK  Name = 
REMARK  0 active torsions:
REMARK  status: ('A' for Active; 'I' for Inactive)
REMARK                            x       y       z     vdW  Elec       q    Type
REMARK                         _______ _______ _______ _____ _____    ______ ____
ROOT
ATOM      1  C   UNL     1       6.471   8.124 -11.541  0.00  0.00    +0.044 C 
ATOM      2  C   UNL     1       6.178   6.802 -10.674  0.00  0.00    +0.163 C 
ATOM      3  S   UNL     1       5.603   5.781 -12.199  0.00  0.00    -0.109 S 
ATOM      4  C   UNL     1       3.961   5.377 -11.511  0.00  0.00    +0.088 C 
ATOM      5  C   UNL     1       4.131   6.037 -10.147  0.00  0.00    +0.118 C 
ATOM      6  C   UNL     1       2.726   6.461  -9.735  0.00  0.00    +0.030 C 
ATOM      7  C   UNL     1       1.838   5.232  -9.760  0.00  0.00    +0.020 C 
ATOM      8  C   UNL     1       2.498   4.216  -8.841  0.00  0.00    +0.072 C 
ATOM      9  N   UNL     1       3.677   4.737  -8.199  0.00  0.00    -0.271 NA
ATOM     10  C   UNL     1       3.374   5.913  -7.399  0.00  0.00    +0.072 C 
ATOM     11  C   UNL     1       2.855   7.009  -8.323  0.00  0.00    +0.020 C 
ATOM     12  C   UNL     1       4.719   5.118  -9.127  0.00  0.00    +0.100 C 
ATOM     13  O   UNL     1       4.805   7.215 -10.340  0.00  0.00    -0.348 OA
ENDROOT
TORSDOF 0
ENDMDL
MODEL 6
REMARK VINA RESULT:      -5.2      6.062      7.387
REMARK  Name = 
REMARK  0 active torsions:
REMARK  status: ('A' for Active; 'I' for Inactive)
REMARK                            x       y       z     vdW  Elec       q    Type
REMARK                         _______ _______ _______ _____ _____    ______ ____
ROOT
ATOM      1  C   UNL     1      -1.981   8.209  -4.371  0.00  0.00    +0.044 C 
ATOM      2  C   UNL     1      -1.558   6.877  -5.165  0.00  0.00    +0.163 C 
ATOM      3  S   UNL     1      -1.404   5.824  -3.563  0.00  0.00    -0.109 S 
ATOM      4  C   UNL     1       0.333   5.341  -3.855  0.00  0.00    +0.088 C 
ATOM      5  C   UNL     1       0.517   6.012  -5.213  0.00  0.00    +0.118 C 
ATOM      6  C   UNL     1       1.997   6.366  -5.281  0.00  0.00    +0.030 C 
ATOM      7  C   UNL     1       2.796   5.095  -5.067  0.00  0.00    +0.020 C 
ATOM      8  C   UNL     1       2.320   4.115  -6.128  0.00  0.00    +0.072 C 
ATOM      9  N   UNL     1       1.349   4.695  -7.020  0.00  0.00    -0.271 NA
ATOM     10  C   UNL     1       1.886   5.858  -7.711  0.00  0.00    +0.072 C 
ATOM     11  C   UNL     1       2.227   6.924  -6.676  0.00  0.00    +0.020 C 
ATOM     12  C   UNL     1       0.139   5.125  -6.354  0.00  0.00    +0.100 C 
ATOM     13  O   UNL     1      -0.127   7.221  -5.165  0.00  0.00    -0.348 OA
ENDROOT
TORSDOF 0
ENDMDL
MODEL 7
REMARK VINA RESULT:      -5.2      1.640      2.543
REMARK  Name = 
REMARK  0 active torsions:
REMARK  status: ('A' for Active; 'I' for Inactive)
REMARK                            x       y       z     vdW  Elec       q    Type
REMARK                         _______ _______ _______ _____ _____    ______ ____
ROOT
ATOM      1  C   UNL     1       2.955   4.338  -8.907  0.00  0.00    +0.044 C 
ATOM      2  C   UNL     1       3.520   5.745  -9.442  0.00  0.00    +0.163 C 
ATOM      3  S   UNL     1       2.458   5.702 -11.044  0.00  0.00    -0.109 S 
ATOM      4  C   UNL     1       3.879   5.843 -12.182  0.00  0.00    +0.088 C 
ATOM      5  C   UNL     1       4.979   5.984 -11.136  0.00  0.00    +0.118 C 
ATOM      6  C   UNL     1       6.221   5.386 -11.785  0.00  0.00    +0.030 C 
ATOM      7  C   UNL     1       6.465   6.114 -13.093  0.00  0.00    +0.020 C 
ATOM      8  C   UNL     1       6.572   7.589 -12.740  0.00  0.00    +0.072 C 
ATOM      9  N   UNL     1       6.484   7.825 -11.322  0.00  0.00    -0.271 NA
ATOM     10  C   UNL     1       7.537   7.128 -10.598  0.00  0.00    +0.072 C 
ATOM     11  C   UNL     1       7.359   5.629 -10.807  0.00  0.00    +0.020 C 
ATOM     12  C   UNL     1       5.228   7.404 -10.744  0.00  0.00    +0.100 C 
ATOM     13  O   UNL     1       4.681   5.130 -10.107  0.00  0.00    -0.348 OA
ENDROOT
TORSDOF 0
ENDMDL
MODEL 8
REMARK VINA RESULT:      -5.2      3.116      5.707
REMARK  Name = 
REMARK  0 active torsions:
REMARK  status: ('A' for Active; 'I' for Inactive)
REMARK                            x       y       z     vdW  Elec       q    Type
REMARK                         _______ _______ _______ _____ _____    ______ ____
ROOT
ATOM      1  C   UNL     1       6.619   5.710  -9.310  0.00  0.00    +0.044 C 
ATOM      2  C   UNL     1       5.120   5.129  -9.280  0.00  0.00    +0.163 C 
ATOM      3  S   UNL     1       4.388   6.633 -10.228  0.00  0.00    -0.109 S 
ATOM      4  C   UNL     1       3.173   7.063  -8.934  0.00  0.00    +0.088 C 
ATOM      5  C   UNL     1       3.464   5.913  -7.976  0.00  0.00    +0.118 C 
ATOM      6  C   UNL     1       3.141   6.461  -6.591  0.00  0.00    +0.030 C 
ATOM      7  C   UNL     1       1.707   6.955  -6.603  0.00  0.00    +0.020 C 
ATOM      8  C   UNL     1       0.858   5.771  -7.040  0.00  0.00    +0.072 C 
ATOM      9  N   UNL     1       1.636   4.574  -7.231  0.00  0.00    -0.271 NA
ATOM     10  C   UNL     1       2.326   4.186  -6.010  0.00  0.00    +0.072 C 
ATOM     11  C   UNL     1       3.305   5.292  -5.633  0.00  0.00    +0.020 C 
ATOM     12  C   UNL     1       2.642   4.698  -8.261  0.00  0.00    +0.100 C 
ATOM     13  O   UNL     1       4.821   5.720  -7.964  0.00  0.00    -0.348 OA
ENDROOT
TORSDOF 0
ENDMDL
MODEL 9
REMARK VINA RESULT:      -5.2      5.815      6.888
REMARK  Name = 
REMARK  0 active torsions:
REMARK  status: ('A' for Active; 'I' for Inactive)
REMARK                            x       y       z     vdW  Elec       q    Type
REMARK                         _______ _______ _______ _____ _____    ______ ____
ROOT
ATOM      1  C   UNL     1      -2.375   6.942  -4.890  0.00  0.00    +0.044 C 
ATOM      2  C   UNL     1      -1.270   5.790  -5.087  0.00  0.00    +0.163 C 
ATOM      3  S   UNL     1      -0.382   6.188  -3.429  0.00  0.00    -0.109 S 
ATOM      4  C   UNL     1       1.251   6.485  -4.189  0.00  0.00    +0.088 C 
ATOM      5  C   UNL     1       0.882   6.151  -5.630  0.00  0.00    +0.118 C 
ATOM      6  C   UNL     1       1.810   7.006  -6.485  0.00  0.00    +0.030 C 
ATOM      7  C   UNL     1       3.239   6.691  -6.086  0.00  0.00    +0.020 C 
ATOM      8  C   UNL     1       3.404   5.190  -6.263  0.00  0.00    +0.072 C 
ATOM      9  N   UNL     1       2.224   4.564  -6.800  0.00  0.00    -0.271 NA
ATOM     10  C   UNL     1       1.871   5.118  -8.099  0.00  0.00    +0.072 C 
ATOM     11  C   UNL     1       1.544   6.596  -7.924  0.00  0.00    +0.020 C 
ATOM     12  C   UNL     1       1.060   4.704  -5.954  0.00  0.00    +0.100 C 
ATOM     13  O   UNL     1      -0.370   6.659  -5.863  0.00  0.00    -0.348 OA
ENDROOT
TORSDOF 0
ENDMDL
