MODEL 1
REMARK VINA RESULT:      -8.1      0.000      0.000
REMARK  Name = 
REMARK  8 active torsions:
REMARK  status: ('A' for Active; 'I' for Inactive)
REMARK    1  A    between atoms: O_2  and  N_3
REMARK    2  A    between atoms: C_4  and  C_5
REMARK    3  A    between atoms: C_4  and  C_25
REMARK    4  A    between atoms: N_7  and  CA_8
REMARK    5  A    between atoms: CA_12  and  C_13
REMARK    6  A    between atoms: C_16  and  C_17
REMARK    7  A    between atoms: C_17  and  O_18
REMARK    8  A    between atoms: O_18  and  C_19
REMARK                            x       y       z     vdW  Elec       q    Type
REMARK                         _______ _______ _______ _____ _____    ______ ____
ROOT
ATOM      1  CA  UNL     1       0.609   6.144  -9.510  0.00  0.00    +0.201 C 
ATOM      2  C   UNL     1       1.952   6.754 -10.304  0.00  0.00    +0.157 C 
ATOM      3  N   UNL     1       1.503   5.672 -11.275  0.00  0.00    -0.242 N 
ATOM      4  CA  UNL     1       2.313   5.666 -12.456  0.00  0.00    +0.131 C 
ATOM      5  C   UNL     1       3.626   5.857 -12.465  0.00  0.00    +0.030 C 
ATOM      6  C   UNL     1       4.397   5.522 -11.226  0.00  0.00    +0.086 C 
ATOM      7  S   UNL     1       3.385   5.637  -9.716  0.00  0.00    -0.114 S 
ATOM      8  C   UNL     1       1.020   4.777 -10.244  0.00  0.00    +0.253 C 
ATOM      9  O   UNL     1       0.115   3.906 -10.451  0.00  0.00    -0.273 OA
ENDROOT
BRANCH   4  10
ATOM     10  C   UNL     1       1.478   5.633 -13.648  0.00  0.00    +0.401 C 
ATOM     11  OXT UNL     1       0.970   6.874 -14.058  0.00  0.00    -0.239 OA
ATOM     12  O   UNL     1       0.900   4.616 -14.070  0.00  0.00    -0.239 OA
ENDBRANCH   4  10
BRANCH   1  14
ATOM     13  C   UNL     1       0.325   5.583  -7.190  0.00  0.00    +0.288 C 
ATOM     14  N   UNL     1       1.350   5.925  -8.133  0.00  0.00    -0.190 NA
ATOM     15  O   UNL     1      -0.881   5.372  -7.528  0.00  0.00    -0.267 OA
BRANCH  13  17
ATOM     16  N   UNL     1       1.155   4.533  -5.317  0.00  0.00    -0.077 NA
ATOM     17  C   UNL     1       0.505   5.586  -5.732  0.00  0.00    +0.192 C 
BRANCH  17  18
ATOM     18  C   UNL     1      -0.593   6.068  -4.865  0.00  0.00    +0.115 A 
ATOM     19  N   UNL     1      -1.671   5.336  -4.479  0.00  0.00    -0.220 NA
ATOM     20  C   UNL     1      -2.152   5.782  -3.302  0.00  0.00    +0.201 A 
ATOM     21  N   UNL     1      -2.883   5.069  -2.297  0.00  0.00    -0.100 NA
ATOM     22  S   UNL     1      -2.046   7.473  -3.559  0.00  0.00    -0.048 S 
ATOM     23  C   UNL     1      -0.942   7.421  -4.874  0.00  0.00    +0.059 A 
ENDBRANCH  17  18
BRANCH  16  25
ATOM     24  C   UNL     1       3.263   4.482  -5.545  0.00  0.00    +0.288 C 
ATOM     25  O   UNL     1       2.411   4.366  -5.840  0.00  0.00    -0.373 OA
ENDBRANCH  16  25
ENDBRANCH  13  17
ENDBRANCH   1  14
BRANCH   5  26
ATOM     26  C   UNL     1       4.337   5.551 -13.751  0.00  0.00    +0.233 C 
BRANCH  26  27
ATOM     27  O   UNL     1       5.524   4.866 -13.454  0.00  0.00    -0.444 OA
BRANCH  27  28
ATOM     28  C   UNL     1       6.794   5.251 -13.813  0.00  0.00    +0.318 C 
ATOM     29  O   UNL     1       7.751   4.801 -13.113  0.00  0.00    -0.250 OA
ATOM     30  C   UNL     1       7.068   6.577 -14.454  0.00  0.00    +0.121 C 
ENDBRANCH  27  28
ENDBRANCH  26  27
ENDBRANCH   5  26
TORSDOF 8
ENDMDL
MODEL 2
REMARK VINA RESULT:      -7.8      3.994      9.418
REMARK  Name = 
REMARK  8 active torsions:
REMARK  status: ('A' for Active; 'I' for Inactive)
REMARK    1  A    between atoms: O_2  and  N_3
REMARK    2  A    between atoms: C_4  and  C_5
REMARK    3  A    between atoms: C_4  and  C_25
REMARK    4  A    between atoms: N_7  and  CA_8
REMARK    5  A    between atoms: CA_12  and  C_13
REMARK    6  A    between atoms: C_16  and  C_17
REMARK    7  A    between atoms: C_17  and  O_18
REMARK    8  A    between atoms: O_18  and  C_19
REMARK                            x       y       z     vdW  Elec       q    Type
REMARK                         _______ _______ _______ _____ _____    ______ ____
ROOT
ATOM      1  CA  UNL     1       2.687   4.659  -5.358  0.00  0.00    +0.201 C 
ATOM      2  C   UNL     1       4.004   5.299  -4.543  0.00  0.00    +0.157 C 
ATOM      3  N   UNL     1       2.946   5.315  -3.449  0.00  0.00    -0.242 N 
ATOM      4  CA  UNL     1       3.493   5.764  -2.205  0.00  0.00    +0.131 C 
ATOM      5  C   UNL     1       4.375   6.748  -2.086  0.00  0.00    +0.030 C 
ATOM      6  C   UNL     1       4.410   7.798  -3.153  0.00  0.00    +0.086 C 
ATOM      7  S   UNL     1       3.813   7.186  -4.761  0.00  0.00    -0.114 S 
ATOM      8  C   UNL     1       1.844   5.583  -4.351  0.00  0.00    +0.253 C 
ATOM      9  O   UNL     1       0.642   5.254  -4.092  0.00  0.00    -0.273 OA
ENDROOT
BRANCH   4  10
ATOM     10  C   UNL     1       3.114   4.865  -1.125  0.00  0.00    +0.401 C 
ATOM     11  OXT UNL     1       4.056   3.876  -0.811  0.00  0.00    -0.239 OA
ATOM     12  O   UNL     1       1.943   4.671  -0.755  0.00  0.00    -0.239 OA
ENDBRANCH   4  10
BRANCH   1  14
ATOM     13  C   UNL     1       2.739   4.824  -7.756  0.00  0.00    +0.288 C 
ATOM     14  N   UNL     1       2.790   5.649  -6.584  0.00  0.00    -0.190 NA
ATOM     15  O   UNL     1       2.500   3.577  -7.711  0.00  0.00    -0.267 OA
BRANCH  13  17
ATOM     16  N   UNL     1       4.165   6.031  -9.100  0.00  0.00    -0.077 NA
ATOM     17  C   UNL     1       3.100   5.277  -9.106  0.00  0.00    +0.192 C 
BRANCH  17  18
ATOM     18  C   UNL     1       2.030   5.653 -10.057  0.00  0.00    +0.115 A 
ATOM     19  N   UNL     1       2.175   5.757 -11.403  0.00  0.00    -0.220 NA
ATOM     20  C   UNL     1       1.001   5.533 -12.027  0.00  0.00    +0.201 A 
ATOM     21  N   UNL     1       0.762   5.041 -13.351  0.00  0.00    -0.100 NA
ATOM     22  S   UNL     1      -0.054   6.405 -10.996  0.00  0.00    -0.048 S 
ATOM     23  C   UNL     1       1.000   6.502  -9.643  0.00  0.00    +0.059 A 
ENDBRANCH  17  18
BRANCH  16  25
ATOM     24  C   UNL     1       6.166   5.375  -8.854  0.00  0.00    +0.288 C 
ATOM     25  O   UNL     1       5.299   5.453  -8.593  0.00  0.00    -0.373 OA
ENDBRANCH  16  25
ENDBRANCH  13  17
ENDBRANCH   1  14
BRANCH   5  26
ATOM     26  C   UNL     1       4.629   7.255  -0.696  0.00  0.00    +0.233 C 
BRANCH  26  27
ATOM     27  O   UNL     1       3.777   8.343  -0.454  0.00  0.00    -0.444 OA
BRANCH  27  28
ATOM     28  C   UNL     1       2.944   8.495   0.630  0.00  0.00    +0.318 C 
ATOM     29  O   UNL     1       2.540   7.435   1.197  0.00  0.00    -0.250 OA
ATOM     30  C   UNL     1       2.006   9.657   0.750  0.00  0.00    +0.121 C 
ENDBRANCH  27  28
ENDBRANCH  26  27
ENDBRANCH   5  26
TORSDOF 8
ENDMDL
MODEL 3
REMARK VINA RESULT:      -7.7      4.096      9.891
REMARK  Name = 
REMARK  8 active torsions:
REMARK  status: ('A' for Active; 'I' for Inactive)
REMARK    1  A    between atoms: O_2  and  N_3
REMARK    2  A    between atoms: C_4  and  C_5
REMARK    3  A    between atoms: C_4  and  C_25
REMARK    4  A    between atoms: N_7  and  CA_8
REMARK    5  A    between atoms: CA_12  and  C_13
REMARK    6  A    between atoms: C_16  and  C_17
REMARK    7  A    between atoms: C_17  and  O_18
REMARK    8  A    between atoms: O_18  and  C_19
REMARK                            x       y       z     vdW  Elec       q    Type
REMARK                         _______ _______ _______ _____ _____    ______ ____
ROOT
ATOM      1  CA  UNL     1       2.918   4.716  -5.333  0.00  0.00    +0.201 C 
ATOM      2  C   UNL     1       4.158   5.442  -4.471  0.00  0.00    +0.157 C 
ATOM      3  N   UNL     1       3.083   5.328  -3.399  0.00  0.00    -0.242 N 
ATOM      4  CA  UNL     1       3.566   5.782  -2.130  0.00  0.00    +0.131 C 
ATOM      5  C   UNL     1       4.354   6.835  -1.961  0.00  0.00    +0.030 C 
ATOM      6  C   UNL     1       4.315   7.919  -2.994  0.00  0.00    +0.086 C 
ATOM      7  S   UNL     1       3.803   7.311  -4.633  0.00  0.00    -0.114 S 
ATOM      8  C   UNL     1       1.978   5.528  -4.315  0.00  0.00    +0.253 C 
ATOM      9  O   UNL     1       0.806   5.086  -4.092  0.00  0.00    -0.273 OA
ENDROOT
BRANCH   4  10
ATOM     10  C   UNL     1       3.248   4.817  -1.088  0.00  0.00    +0.401 C 
ATOM     11  OXT UNL     1       4.272   3.910  -0.779  0.00  0.00    -0.239 OA
ATOM     12  O   UNL     1       2.092   4.503  -0.753  0.00  0.00    -0.239 OA
ENDBRANCH   4  10
BRANCH   1  14
ATOM     13  C   UNL     1       2.831   4.972  -7.721  0.00  0.00    +0.288 C 
ATOM     14  N   UNL     1       2.954   5.752  -6.524  0.00  0.00    -0.190 NA
ATOM     15  O   UNL     1       2.589   3.725  -7.711  0.00  0.00    -0.267 OA
BRANCH  13  17
ATOM     16  N   UNL     1       2.237   5.060  -9.943  0.00  0.00    -0.077 NA
ATOM     17  C   UNL     1       3.115   5.474  -9.072  0.00  0.00    +0.192 C 
BRANCH  17  18
ATOM     18  C   UNL     1       4.518   5.556  -9.538  0.00  0.00    +0.115 A 
ATOM     19  N   UNL     1       4.936   5.361 -10.815  0.00  0.00    -0.220 NA
ATOM     20  C   UNL     1       6.076   6.040 -11.051  0.00  0.00    +0.201 A 
ATOM     21  N   UNL     1       6.584   6.549 -12.290  0.00  0.00    -0.100 NA
ATOM     22  S   UNL     1       6.917   5.725  -9.592  0.00  0.00    -0.048 S 
ATOM     23  C   UNL     1       5.558   5.232  -8.663  0.00  0.00    +0.059 A 
ENDBRANCH  17  18
BRANCH  16  25
ATOM     24  C   UNL     1       0.233   5.713 -10.178  0.00  0.00    +0.288 C 
ATOM     25  O   UNL     1       0.936   5.411  -9.688  0.00  0.00    -0.373 OA
ENDBRANCH  16  25
ENDBRANCH  13  17
ENDBRANCH   1  14
BRANCH   5  26
ATOM     26  C   UNL     1       4.536   7.316  -0.551  0.00  0.00    +0.233 C 
BRANCH  26  27
ATOM     27  O   UNL     1       3.646   8.374  -0.320  0.00  0.00    -0.444 OA
BRANCH  27  28
ATOM     28  C   UNL     1       2.748   8.467   0.717  0.00  0.00    +0.318 C 
ATOM     29  O   UNL     1       2.171   7.396   1.075  0.00  0.00    -0.250 OA
ATOM     30  C   UNL     1       1.950   9.712   0.964  0.00  0.00    +0.121 C 
ENDBRANCH  27  28
ENDBRANCH  26  27
ENDBRANCH   5  26
TORSDOF 8
ENDMDL
MODEL 4
REMARK VINA RESULT:      -7.7      2.405      4.134
REMARK  Name = 
REMARK  8 active torsions:
REMARK  status: ('A' for Active; 'I' for Inactive)
REMARK    1  A    between atoms: O_2  and  N_3
REMARK    2  A    between atoms: C_4  and  C_5
REMARK    3  A    between atoms: C_4  and  C_25
REMARK    4  A    between atoms: N_7  and  CA_8
REMARK    5  A    between atoms: CA_12  and  C_13
REMARK    6  A    between atoms: C_16  and  C_17
REMARK    7  A    between atoms: C_17  and  O_18
REMARK    8  A    between atoms: O_18  and  C_19
REMARK                            x       y       z     vdW  Elec       q    Type
REMARK                         _______ _______ _______ _____ _____    ______ ____
ROOT
ATOM      1  CA  UNL     1       2.088   5.800  -7.175  0.00  0.00    +0.201 C 
ATOM      2  C   UNL     1       1.911   4.904  -8.579  0.00  0.00    +0.157 C 
ATOM      3  N   UNL     1       2.556   6.172  -9.120  0.00  0.00    -0.242 N 
ATOM      4  CA  UNL     1       2.817   6.063 -10.523  0.00  0.00    +0.131 C 
ATOM      5  C   UNL     1       2.002   5.486 -11.395  0.00  0.00    +0.030 C 
ATOM      6  C   UNL     1       0.542   5.431 -11.068  0.00  0.00    +0.086 C 
ATOM      7  S   UNL     1       0.222   5.461  -9.275  0.00  0.00    -0.114 S 
ATOM      8  C   UNL     1       1.912   7.051  -8.165  0.00  0.00    +0.253 C 
ATOM      9  O   UNL     1       2.402   8.172  -7.816  0.00  0.00    -0.273 OA
ENDROOT
BRANCH   4  10
ATOM     10  C   UNL     1       4.180   6.480 -10.822  0.00  0.00    +0.401 C 
ATOM     11  OXT UNL     1       5.106   5.438 -10.971  0.00  0.00    -0.239 OA
ATOM     12  O   UNL     1       4.634   7.612 -10.581  0.00  0.00    -0.239 OA
ENDBRANCH   4  10
BRANCH   1  14
ATOM     13  C   UNL     1       0.525   6.176  -5.388  0.00  0.00    +0.288 C 
ATOM     14  N   UNL     1       0.588   5.629  -6.712  0.00  0.00    -0.190 NA
ATOM     15  O   UNL     1       1.497   6.791  -4.848  0.00  0.00    -0.267 OA
BRANCH  13  17
ATOM     16  N   UNL     1      -1.647   6.651  -4.793  0.00  0.00    -0.077 NA
ATOM     17  C   UNL     1      -0.590   5.965  -4.455  0.00  0.00    +0.192 C 
BRANCH  17  18
ATOM     18  C   UNL     1      -0.313   5.850  -3.005  0.00  0.00    +0.115 A 
ATOM     19  N   UNL     1       0.220   4.763  -2.390  0.00  0.00    -0.220 NA
ATOM     20  C   UNL     1       0.874   5.125  -1.268  0.00  0.00    +0.201 A 
ATOM     21  N   UNL     1       1.967   4.474  -0.610  0.00  0.00    -0.100 NA
ATOM     22  S   UNL     1      -0.230   6.273  -0.638  0.00  0.00    -0.048 S 
ATOM     23  C   UNL     1      -1.107   6.547  -2.091  0.00  0.00    +0.059 A 
ENDBRANCH  17  18
BRANCH  16  25
ATOM     24  C   UNL     1      -2.746   5.789  -6.388  0.00  0.00    +0.288 C 
ATOM     25  O   UNL     1      -2.156   6.385  -6.037  0.00  0.00    -0.373 OA
ENDBRANCH  16  25
ENDBRANCH  13  17
ENDBRANCH   1  14
BRANCH   5  26
ATOM     26  C   UNL     1       2.313   5.703 -12.847  0.00  0.00    +0.233 C 
BRANCH  26  27
ATOM     27  O   UNL     1       1.115   5.652 -13.575  0.00  0.00    -0.444 OA
BRANCH  27  28
ATOM     28  C   UNL     1       0.678   6.588 -14.483  0.00  0.00    +0.318 C 
ATOM     29  O   UNL     1       0.840   6.317 -15.711  0.00  0.00    -0.250 OA
ATOM     30  C   UNL     1       0.671   8.053 -14.168  0.00  0.00    +0.121 C 
ENDBRANCH  27  28
ENDBRANCH  26  27
ENDBRANCH   5  26
TORSDOF 8
ENDMDL
MODEL 5
REMARK VINA RESULT:      -7.6      2.078      3.288
REMARK  Name = 
REMARK  8 active torsions:
REMARK  status: ('A' for Active; 'I' for Inactive)
REMARK    1  A    between atoms: O_2  and  N_3
REMARK    2  A    between atoms: C_4  and  C_5
REMARK    3  A    between atoms: C_4  and  C_25
REMARK    4  A    between atoms: N_7  and  CA_8
REMARK    5  A    between atoms: CA_12  and  C_13
REMARK    6  A    between atoms: C_16  and  C_17
REMARK    7  A    between atoms: C_17  and  O_18
REMARK    8  A    between atoms: O_18  and  C_19
REMARK                            x       y       z     vdW  Elec       q    Type
REMARK                         _______ _______ _______ _____ _____    ______ ____
ROOT
ATOM      1  CA  UNL     1       0.373   5.733  -8.905  0.00  0.00    +0.201 C 
ATOM      2  C   UNL     1       1.901   6.320  -9.264  0.00  0.00    +0.157 C 
ATOM      3  N   UNL     1       1.496   5.720 -10.603  0.00  0.00    -0.242 N 
ATOM      4  CA  UNL     1       2.492   5.961 -11.602  0.00  0.00    +0.131 C 
ATOM      5  C   UNL     1       3.800   5.906 -11.385  0.00  0.00    +0.030 C 
ATOM      6  C   UNL     1       4.294   5.047 -10.263  0.00  0.00    +0.086 C 
ATOM      7  S   UNL     1       3.057   4.833  -8.943  0.00  0.00    -0.114 S 
ATOM      8  C   UNL     1       0.730   4.636 -10.022  0.00  0.00    +0.253 C 
ATOM      9  O   UNL     1      -0.227   4.060 -10.632  0.00  0.00    -0.273 OA
ENDROOT
BRANCH   4  10
ATOM     10  C   UNL     1       1.881   6.476 -12.819  0.00  0.00    +0.401 C 
ATOM     11  OXT UNL     1       0.945   7.502 -12.632  0.00  0.00    -0.239 OA
ATOM     12  O   UNL     1       1.834   5.854 -13.895  0.00  0.00    -0.239 OA
ENDBRANCH   4  10
BRANCH   1  14
ATOM     13  C   UNL     1       0.572   5.816  -6.511  0.00  0.00    +0.288 C 
ATOM     14  N   UNL     1       0.829   4.940  -7.618  0.00  0.00    -0.190 NA
ATOM     15  O   UNL     1      -0.045   6.919  -6.634  0.00  0.00    -0.267 OA
BRANCH  13  17
ATOM     16  N   UNL     1       0.328   6.129  -4.244  0.00  0.00    -0.077 NA
ATOM     17  C   UNL     1       1.111   5.624  -5.158  0.00  0.00    +0.192 C 
BRANCH  17  18
ATOM     18  C   UNL     1       2.566   5.759  -4.929  0.00  0.00    +0.115 A 
ATOM     19  N   UNL     1       3.330   6.813  -5.317  0.00  0.00    -0.220 NA
ATOM     20  C   UNL     1       4.403   6.945  -4.512  0.00  0.00    +0.201 A 
ATOM     21  N   UNL     1       5.158   8.122  -4.201  0.00  0.00    -0.100 NA
ATOM     22  S   UNL     1       4.857   5.301  -4.350  0.00  0.00    -0.048 S 
ATOM     23  C   UNL     1       3.368   4.616  -4.865  0.00  0.00    +0.059 A 
ENDBRANCH  17  18
BRANCH  16  25
ATOM     24  C   UNL     1      -1.550   5.422  -3.557  0.00  0.00    +0.288 C 
ATOM     25  O   UNL     1      -0.945   5.622  -4.206  0.00  0.00    -0.373 OA
ENDBRANCH  16  25
ENDBRANCH  13  17
ENDBRANCH   1  14
BRANCH   5  26
ATOM     26  C   UNL     1       4.680   5.921 -12.601  0.00  0.00    +0.233 C 
BRANCH  26  27
ATOM     27  O   UNL     1       5.771   5.070 -12.374  0.00  0.00    -0.444 OA
BRANCH  27  28
ATOM     28  C   UNL     1       7.099   5.400 -12.507  0.00  0.00    +0.318 C 
ATOM     29  O   UNL     1       7.783   4.716 -13.327  0.00  0.00    -0.250 OA
ATOM     30  C   UNL     1       7.890   5.972 -11.370  0.00  0.00    +0.121 C 
ENDBRANCH  27  28
ENDBRANCH  26  27
ENDBRANCH   5  26
TORSDOF 8
ENDMDL
MODEL 6
REMARK VINA RESULT:      -7.6      1.665      1.764
REMARK  Name = 
REMARK  8 active torsions:
REMARK  status: ('A' for Active; 'I' for Inactive)
REMARK    1  A    between atoms: O_2  and  N_3
REMARK    2  A    between atoms: C_4  and  C_5
REMARK    3  A    between atoms: C_4  and  C_25
REMARK    4  A    between atoms: N_7  and  CA_8
REMARK    5  A    between atoms: CA_12  and  C_13
REMARK    6  A    between atoms: C_16  and  C_17
REMARK    7  A    between atoms: C_17  and  O_18
REMARK    8  A    between atoms: O_18  and  C_19
REMARK                            x       y       z     vdW  Elec       q    Type
REMARK                         _______ _______ _______ _____ _____    ______ ____
ROOT
ATOM      1  CA  UNL     1       0.774   6.090  -8.526  0.00  0.00    +0.201 C 
ATOM      2  C   UNL     1       2.292   6.549  -9.065  0.00  0.00    +0.157 C 
ATOM      3  N   UNL     1       1.741   5.852 -10.301  0.00  0.00    -0.242 N 
ATOM      4  CA  UNL     1       2.657   5.938 -11.397  0.00  0.00    +0.131 C 
ATOM      5  C   UNL     1       3.974   5.826 -11.285  0.00  0.00    +0.030 C 
ATOM      6  C   UNL     1       4.520   5.048 -10.129  0.00  0.00    +0.086 C 
ATOM      7  S   UNL     1       3.394   5.034  -8.697  0.00  0.00    -0.114 S 
ATOM      8  C   UNL     1       0.975   4.874  -9.555  0.00  0.00    +0.253 C 
ATOM      9  O   UNL     1      -0.061   4.302 -10.024  0.00  0.00    -0.273 OA
ENDROOT
BRANCH   4  10
ATOM     10  C   UNL     1       1.968   6.372 -12.605  0.00  0.00    +0.401 C 
ATOM     11  OXT UNL     1       1.071   7.436 -12.434  0.00  0.00    -0.239 OA
ATOM     12  O   UNL     1       1.827   5.669 -13.621  0.00  0.00    -0.239 OA
ENDBRANCH   4  10
BRANCH   1  14
ATOM     13  C   UNL     1       1.003   6.310  -6.143  0.00  0.00    +0.288 C 
ATOM     14  N   UNL     1       1.300   5.397  -7.209  0.00  0.00    -0.190 NA
ATOM     15  O   UNL     1       0.315   7.364  -6.310  0.00  0.00    -0.267 OA
BRANCH  13  17
ATOM     16  N   UNL     1       2.728   5.613  -4.787  0.00  0.00    -0.077 NA
ATOM     17  C   UNL     1       1.574   6.223  -4.792  0.00  0.00    +0.192 C 
BRANCH  17  18
ATOM     18  C   UNL     1       0.682   5.957  -3.642  0.00  0.00    +0.115 A 
ATOM     19  N   UNL     1      -0.658   6.175  -3.617  0.00  0.00    -0.220 NA
ATOM     20  C   UNL     1      -1.259   5.346  -2.742  0.00  0.00    +0.201 A 
ATOM     21  N   UNL     1      -2.605   4.855  -2.741  0.00  0.00    -0.100 NA
ATOM     22  S   UNL     1      -0.142   5.421  -1.445  0.00  0.00    -0.048 S 
ATOM     23  C   UNL     1       1.183   6.051  -2.340  0.00  0.00    +0.059 A 
ENDBRANCH  17  18
BRANCH  16  25
ATOM     24  C   UNL     1       4.326   6.840  -5.452  0.00  0.00    +0.288 C 
ATOM     25  O   UNL     1       3.705   6.184  -5.562  0.00  0.00    -0.373 OA
ENDBRANCH  16  25
ENDBRANCH  13  17
ENDBRANCH   1  14
BRANCH   5  26
ATOM     26  C   UNL     1       4.744   5.676 -12.565  0.00  0.00    +0.233 C 
BRANCH  26  27
ATOM     27  O   UNL     1       5.911   4.944 -12.302  0.00  0.00    -0.444 OA
BRANCH  27  28
ATOM     28  C   UNL     1       7.199   5.351 -12.559  0.00  0.00    +0.318 C 
ATOM     29  O   UNL     1       7.798   4.786 -13.523  0.00  0.00    -0.250 OA
ATOM     30  C   UNL     1       8.104   5.847 -11.473  0.00  0.00    +0.121 C 
ENDBRANCH  27  28
ENDBRANCH  26  27
ENDBRANCH   5  26
TORSDOF 8
ENDMDL
MODEL 7
REMARK VINA RESULT:      -7.3      3.427      4.473
REMARK  Name = 
REMARK  8 active torsions:
REMARK  status: ('A' for Active; 'I' for Inactive)
REMARK    1  A    between atoms: O_2  and  N_3
REMARK    2  A    between atoms: C_4  and  C_5
REMARK    3  A    between atoms: C_4  and  C_25
REMARK    4  A    between atoms: N_7  and  CA_8
REMARK    5  A    between atoms: CA_12  and  C_13
REMARK    6  A    between atoms: C_16  and  C_17
REMARK    7  A    between atoms: C_17  and  O_18
REMARK    8  A    between atoms: O_18  and  C_19
REMARK                            x       y       z     vdW  Elec       q    Type
REMARK                         _______ _______ _______ _____ _____    ______ ____
ROOT
ATOM      1  CA  UNL     1       1.182   6.265  -5.199  0.00  0.00    +0.201 C 
ATOM      2  C   UNL     1       2.425   6.904  -6.122  0.00  0.00    +0.157 C 
ATOM      3  N   UNL     1       2.018   5.705  -6.968  0.00  0.00    -0.242 N 
ATOM      4  CA  UNL     1       2.761   5.656  -8.190  0.00  0.00    +0.131 C 
ATOM      5  C   UNL     1       4.051   5.949  -8.295  0.00  0.00    +0.030 C 
ATOM      6  C   UNL     1       4.912   5.790  -7.081  0.00  0.00    +0.086 C 
ATOM      7  S   UNL     1       3.977   5.962  -5.528  0.00  0.00    -0.114 S 
ATOM      8  C   UNL     1       1.667   4.873  -5.835  0.00  0.00    +0.253 C 
ATOM      9  O   UNL     1       0.829   3.918  -5.911  0.00  0.00    -0.273 OA
ENDROOT
BRANCH   4  10
ATOM     10  C   UNL     1       1.870   5.449  -9.322  0.00  0.00    +0.401 C 
ATOM     11  OXT UNL     1       1.192   6.592  -9.768  0.00  0.00    -0.239 OA
ATOM     12  O   UNL     1       1.397   4.346  -9.648  0.00  0.00    -0.239 OA
ENDBRANCH   4  10
BRANCH   1  14
ATOM     13  C   UNL     1       1.074   5.880  -2.828  0.00  0.00    +0.288 C 
ATOM     14  N   UNL     1       2.012   6.232  -3.856  0.00  0.00    -0.190 NA
ATOM     15  O   UNL     1      -0.122   5.532  -3.076  0.00  0.00    -0.267 OA
BRANCH  13  17
ATOM     16  N   UNL     1       1.852   4.944  -0.875  0.00  0.00    -0.077 NA
ATOM     17  C   UNL     1       1.329   6.023  -1.389  0.00  0.00    +0.192 C 
BRANCH  17  18
ATOM     18  C   UNL     1       0.352   6.748  -0.546  0.00  0.00    +0.115 A 
ATOM     19  N   UNL     1       0.663   7.602   0.462  0.00  0.00    -0.220 NA
ATOM     20  C   UNL     1      -0.319   8.509   0.638  0.00  0.00    +0.201 A 
ATOM     21  N   UNL     1      -0.238   9.837   1.169  0.00  0.00    -0.100 NA
ATOM     22  S   UNL     1      -1.691   7.494   0.484  0.00  0.00    -0.048 S 
ATOM     23  C   UNL     1      -0.900   6.181  -0.292  0.00  0.00    +0.059 A 
ENDBRANCH  17  18
BRANCH  16  25
ATOM     24  C   UNL     1       3.899   4.447  -1.122  0.00  0.00    +0.288 C 
ATOM     25  O   UNL     1       3.045   4.545  -1.420  0.00  0.00    -0.373 OA
ENDBRANCH  16  25
ENDBRANCH  13  17
ENDBRANCH   1  14
BRANCH   5  26
ATOM     26  C   UNL     1       4.716   5.584  -9.591  0.00  0.00    +0.233 C 
BRANCH  26  27
ATOM     27  O   UNL     1       4.992   6.763 -10.300  0.00  0.00    -0.444 OA
BRANCH  27  28
ATOM     28  C   UNL     1       6.226   7.166 -10.754  0.00  0.00    +0.318 C 
ATOM     29  O   UNL     1       6.292   7.571 -11.953  0.00  0.00    -0.250 OA
ATOM     30  C   UNL     1       7.496   6.565 -10.233  0.00  0.00    +0.121 C 
ENDBRANCH  27  28
ENDBRANCH  26  27
ENDBRANCH   5  26
TORSDOF 8
ENDMDL
MODEL 8
REMARK VINA RESULT:      -7.2      3.478      6.066
REMARK  Name = 
REMARK  8 active torsions:
REMARK  status: ('A' for Active; 'I' for Inactive)
REMARK    1  A    between atoms: O_2  and  N_3
REMARK    2  A    between atoms: C_4  and  C_5
REMARK    3  A    between atoms: C_4  and  C_25
REMARK    4  A    between atoms: N_7  and  CA_8
REMARK    5  A    between atoms: CA_12  and  C_13
REMARK    6  A    between atoms: C_16  and  C_17
REMARK    7  A    between atoms: C_17  and  O_18
REMARK    8  A    between atoms: O_18  and  C_19
REMARK                            x       y       z     vdW  Elec       q    Type
REMARK                         _______ _______ _______ _____ _____    ______ ____
ROOT
ATOM      1  CA  UNL     1       1.519   5.449  -3.820  0.00  0.00    +0.201 C 
ATOM      2  C   UNL     1       0.494   4.874  -5.014  0.00  0.00    +0.157 C 
ATOM      3  N   UNL     1       1.635   5.435  -5.852  0.00  0.00    -0.242 N 
ATOM      4  CA  UNL     1       1.427   5.183  -7.245  0.00  0.00    +0.131 C 
ATOM      5  C   UNL     1       0.252   5.262  -7.855  0.00  0.00    +0.030 C 
ATOM      6  C   UNL     1      -0.792   6.155  -7.261  0.00  0.00    +0.086 C 
ATOM      7  S   UNL     1      -0.585   6.384  -5.466  0.00  0.00    -0.114 S 
ATOM      8  C   UNL     1       1.929   6.523  -4.941  0.00  0.00    +0.253 C 
ATOM      9  O   UNL     1       3.076   7.069  -4.863  0.00  0.00    -0.273 OA
ENDROOT
BRANCH   4  10
ATOM     10  C   UNL     1       2.631   4.630  -7.849  0.00  0.00    +0.401 C 
ATOM     11  OXT UNL     1       3.609   5.569  -8.206  0.00  0.00    -0.239 OA
ATOM     12  O   UNL     1       2.691   3.514  -8.394  0.00  0.00    -0.239 OA
ENDBRANCH   4  10
BRANCH   1  14
ATOM     13  C   UNL     1       0.041   5.496  -1.925  0.00  0.00    +0.288 C 
ATOM     14  N   UNL     1       0.405   6.279  -3.070  0.00  0.00    -0.190 NA
ATOM     15  O   UNL     1       0.660   4.439  -1.587  0.00  0.00    -0.267 OA
BRANCH  13  17
ATOM     16  N   UNL     1      -2.209   5.973  -1.842  0.00  0.00    -0.077 NA
ATOM     17  C   UNL     1      -1.158   5.726  -1.109  0.00  0.00    +0.192 C 
BRANCH  17  18
ATOM     18  C   UNL     1      -1.043   6.486   0.156  0.00  0.00    +0.115 A 
ATOM     19  N   UNL     1      -2.073   7.072   0.819  0.00  0.00    -0.220 NA
ATOM     20  C   UNL     1      -1.801   7.161   2.136  0.00  0.00    +0.201 A 
ATOM     21  N   UNL     1      -2.709   7.208   3.244  0.00  0.00    -0.100 NA
ATOM     22  S   UNL     1      -0.160   7.648   2.069  0.00  0.00    -0.048 S 
ATOM     23  C   UNL     1       0.136   7.179   0.443  0.00  0.00    +0.059 A 
ENDBRANCH  17  18
BRANCH  16  25
ATOM     24  C   UNL     1      -3.137   4.914  -3.428  0.00  0.00    +0.288 C 
ATOM     25  O   UNL     1      -2.555   4.991  -2.733  0.00  0.00    -0.373 OA
ENDBRANCH  16  25
ENDBRANCH  13  17
ENDBRANCH   1  14
BRANCH   5  26
ATOM     26  C   UNL     1       0.273   5.228  -9.355  0.00  0.00    +0.233 C 
BRANCH  26  27
ATOM     27  O   UNL     1       0.385   6.543  -9.831  0.00  0.00    -0.444 OA
BRANCH  27  28
ATOM     28  C   UNL     1       0.231   6.949 -11.136  0.00  0.00    +0.318 C 
ATOM     29  O   UNL     1      -0.834   7.576 -11.421  0.00  0.00    -0.250 OA
ATOM     30  C   UNL     1       0.821   6.180 -12.279  0.00  0.00    +0.121 C 
ENDBRANCH  27  28
ENDBRANCH  26  27
ENDBRANCH   5  26
TORSDOF 8
ENDMDL
MODEL 9
REMARK VINA RESULT:      -7.2      4.807      8.043
REMARK  Name = 
REMARK  8 active torsions:
REMARK  status: ('A' for Active; 'I' for Inactive)
REMARK    1  A    between atoms: O_2  and  N_3
REMARK    2  A    between atoms: C_4  and  C_5
REMARK    3  A    between atoms: C_4  and  C_25
REMARK    4  A    between atoms: N_7  and  CA_8
REMARK    5  A    between atoms: CA_12  and  C_13
REMARK    6  A    between atoms: C_16  and  C_17
REMARK    7  A    between atoms: C_17  and  O_18
REMARK    8  A    between atoms: O_18  and  C_19
REMARK                            x       y       z     vdW  Elec       q    Type
REMARK                         _______ _______ _______ _____ _____    ______ ____
ROOT
ATOM      1  CA  UNL     1      -1.738   6.730  -1.886  0.00  0.00    +0.201 C 
ATOM      2  C   UNL     1      -0.421   7.014  -2.882  0.00  0.00    +0.157 C 
ATOM      3  N   UNL     1      -1.230   6.046  -3.734  0.00  0.00    -0.242 N 
ATOM      4  CA  UNL     1      -0.618   5.843  -5.012  0.00  0.00    +0.131 C 
ATOM      5  C   UNL     1       0.690   5.736  -5.208  0.00  0.00    +0.030 C 
ATOM      6  C   UNL     1       1.537   5.255  -4.072  0.00  0.00    +0.086 C 
ATOM      7  S   UNL     1       0.802   5.613  -2.445  0.00  0.00    -0.114 S 
ATOM      8  C   UNL     1      -1.745   5.295  -2.607  0.00  0.00    +0.253 C 
ATOM      9  O   UNL     1      -2.839   4.646  -2.649  0.00  0.00    -0.273 OA
ENDROOT
BRANCH   4  10
ATOM     10  C   UNL     1      -1.601   5.982  -6.077  0.00  0.00    +0.401 C 
ATOM     11  OXT UNL     1      -2.602   6.936  -5.848  0.00  0.00    -0.239 OA
ATOM     12  O   UNL     1      -1.834   5.109  -6.931  0.00  0.00    -0.239 OA
ENDBRANCH   4  10
BRANCH   1  14
ATOM     13  C   UNL     1      -0.859   7.555   0.194  0.00  0.00    +0.288 C 
ATOM     14  N   UNL     1      -0.874   6.370  -0.615  0.00  0.00    -0.190 NA
ATOM     15  O   UNL     1      -1.560   8.580  -0.073  0.00  0.00    -0.267 OA
BRANCH  13  17
ATOM     16  N   UNL     1      -0.499   8.462   2.278  0.00  0.00    -0.077 NA
ATOM     17  C   UNL     1       0.062   7.783   1.316  0.00  0.00    +0.192 C 
BRANCH  17  18
ATOM     18  C   UNL     1       1.485   8.082   1.040  0.00  0.00    +0.115 A 
ATOM     19  N   UNL     1       2.546   7.489   1.645  0.00  0.00    -0.220 NA
ATOM     20  C   UNL     1       3.625   7.507   0.839  0.00  0.00    +0.201 A 
ATOM     21  N   UNL     1       4.742   6.611   0.805  0.00  0.00    -0.100 NA
ATOM     22  S   UNL     1       3.504   9.099   0.217  0.00  0.00    -0.048 S 
ATOM     23  C   UNL     1       1.856   9.363   0.624  0.00  0.00    +0.059 A 
ENDBRANCH  17  18
BRANCH  16  25
ATOM     24  C   UNL     1      -1.828   7.505   3.626  0.00  0.00    +0.288 C 
ATOM     25  O   UNL     1      -1.618   7.895   2.832  0.00  0.00    -0.373 OA
ENDBRANCH  16  25
ENDBRANCH  13  17
ENDBRANCH   1  14
BRANCH   5  26
ATOM     26  C   UNL     1       1.126   5.262  -6.564  0.00  0.00    +0.233 C 
BRANCH  26  27
ATOM     27  O   UNL     1       2.152   6.100  -7.024  0.00  0.00    -0.444 OA
BRANCH  27  28
ATOM     28  C   UNL     1       2.059   7.006  -8.054  0.00  0.00    +0.318 C 
ATOM     29  O   UNL     1       2.067   8.235  -7.742  0.00  0.00    -0.250 OA
ATOM     30  C   UNL     1       1.316   6.693  -9.317  0.00  0.00    +0.121 C 
ENDBRANCH  27  28
ENDBRANCH  26  27
ENDBRANCH   5  26
TORSDOF 8
ENDMDL
