MODEL 1
REMARK VINA RESULT:      -6.7      0.000      0.000
REMARK  Name = 
REMARK  2 active torsions:
REMARK  status: ('A' for Active; 'I' for Inactive)
REMARK    1  A    between atoms: C_2  and  C_4
REMARK    2  A    between atoms: C_4  and  C_6
REMARK                            x       y       z     vdW  Elec       q    Type
REMARK                         _______ _______ _______ _____ _____    ______ ____
ROOT
ATOM      1  C   UNL     1       5.140   6.342 -11.492  0.00  0.00    +0.147 C 
ATOM      2  N   UNL     1       4.963   5.154 -10.477  0.00  0.00    -0.228 NA
ATOM      3  C   UNL     1       3.757   5.244  -9.699  0.00  0.00    +0.157 A 
ATOM      4  C   UNL     1       2.755   5.961 -10.343  0.00  0.00    +0.170 A 
ATOM      5  N   UNL     1       1.913   6.668  -9.563  0.00  0.00    -0.193 NA
ATOM      6  C   UNL     1       2.269   7.113  -8.329  0.00  0.00    +0.260 A 
ATOM      7  N   UNL     1       2.910   6.149  -7.621  0.00  0.00    -0.171 NA
ATOM      8  N   UNL     1       2.155   8.464  -7.904  0.00  0.00    -0.086 NA
ATOM      9  N   UNL     1       2.818   5.965 -11.754  0.00  0.00    -0.217 NA
ATOM     10  C   UNL     1       3.743   5.332  -8.321  0.00  0.00    +0.299 A 
ATOM     11  O   UNL     1       4.679   4.697  -7.745  0.00  0.00    -0.264 OA
ATOM     12  C   UNL     1       4.041   5.694 -12.514  0.00  0.00    +0.138 C 
ENDROOT
BRANCH   1  13
ATOM     13  C   UNL     1       6.440   5.645 -12.351  0.00  0.00    +0.203 C 
ATOM     14  O   UNL     1       6.304   6.706 -13.401  0.00  0.00    -0.219 OA
BRANCH  13  16
ATOM     15  C   UNL     1       8.893   6.036 -12.412  0.00  0.00    +0.038 C 
ATOM     16  C   UNL     1       7.631   6.519 -11.471  0.00  0.00    +0.184 C 
ATOM     17  O   UNL     1       7.810   5.337 -10.542  0.00  0.00    -0.220 OA
ENDBRANCH  13  16
ENDBRANCH   1  13
TORSDOF 2
ENDMDL
MODEL 2
REMARK VINA RESULT:      -6.6      5.523      8.859
REMARK  Name = 
REMARK  2 active torsions:
REMARK  status: ('A' for Active; 'I' for Inactive)
REMARK    1  A    between atoms: C_2  and  C_4
REMARK    2  A    between atoms: C_4  and  C_6
REMARK                            x       y       z     vdW  Elec       q    Type
REMARK                         _______ _______ _______ _____ _____    ______ ____
ROOT
ATOM      1  C   UNL     1       0.736   6.114  -3.302  0.00  0.00    +0.147 C 
ATOM      2  N   UNL     1       0.255   5.034  -4.339  0.00  0.00    -0.228 NA
ATOM      3  C   UNL     1       0.983   5.072  -5.580  0.00  0.00    +0.157 A 
ATOM      4  C   UNL     1       2.263   5.593  -5.435  0.00  0.00    +0.170 A 
ATOM      5  N   UNL     1       2.763   6.281  -6.480  0.00  0.00    -0.193 NA
ATOM      6  C   UNL     1       1.965   6.899  -7.390  0.00  0.00    +0.260 A 
ATOM      7  N   UNL     1       0.936   6.100  -7.769  0.00  0.00    -0.171 NA
ATOM      8  N   UNL     1       2.081   8.267  -7.757  0.00  0.00    -0.086 NA
ATOM      9  N   UNL     1       2.841   5.447  -4.154  0.00  0.00    -0.217 NA
ATOM     10  C   UNL     1       0.391   5.310  -6.804  0.00  0.00    +0.299 A 
ATOM     11  O   UNL     1      -0.789   4.855  -6.914  0.00  0.00    -0.264 OA
ATOM     12  C   UNL     1       2.062   5.235  -2.931  0.00  0.00    +0.138 C 
ENDROOT
BRANCH   1  13
ATOM     13  C   UNL     1      -0.131   5.479  -1.976  0.00  0.00    +0.203 C 
ATOM     14  O   UNL     1       0.316   6.640  -1.139  0.00  0.00    -0.219 OA
BRANCH  13  16
ATOM     15  C   UNL     1      -2.123   6.497  -0.894  0.00  0.00    +0.038 C 
ATOM     16  C   UNL     1      -1.602   6.240  -2.434  0.00  0.00    +0.184 C 
ATOM     17  O   UNL     1      -2.283   4.889  -2.489  0.00  0.00    -0.220 OA
ENDBRANCH  13  16
ENDBRANCH   1  13
TORSDOF 2
ENDMDL
MODEL 3
REMARK VINA RESULT:      -6.5      6.817      8.409
REMARK  Name = 
REMARK  2 active torsions:
REMARK  status: ('A' for Active; 'I' for Inactive)
REMARK    1  A    between atoms: C_2  and  C_4
REMARK    2  A    between atoms: C_4  and  C_6
REMARK                            x       y       z     vdW  Elec       q    Type
REMARK                         _______ _______ _______ _____ _____    ______ ____
ROOT
ATOM      1  C   UNL     1       2.821   6.986  -3.080  0.00  0.00    +0.147 C 
ATOM      2  N   UNL     1       1.977   5.671  -2.908  0.00  0.00    -0.228 NA
ATOM      3  C   UNL     1       0.798   5.639  -3.733  0.00  0.00    +0.157 A 
ATOM      4  C   UNL     1       0.922   6.420  -4.876  0.00  0.00    +0.170 A 
ATOM      5  N   UNL     1      -0.200   7.004  -5.339  0.00  0.00    -0.193 NA
ATOM      6  C   UNL     1      -1.257   7.286  -4.533  0.00  0.00    +0.260 A 
ATOM      7  N   UNL     1      -1.543   6.246  -3.710  0.00  0.00    -0.171 NA
ATOM      8  N   UNL     1      -1.865   8.567  -4.431  0.00  0.00    -0.086 NA
ATOM      9  N   UNL     1       2.241   6.613  -5.343  0.00  0.00    -0.217 NA
ATOM     10  C   UNL     1      -0.484   5.542  -3.228  0.00  0.00    +0.299 A 
ATOM     11  O   UNL     1      -0.580   4.850  -2.168  0.00  0.00    -0.264 OA
ATOM     12  C   UNL     1       3.431   6.464  -4.503  0.00  0.00    +0.138 C 
ENDROOT
BRANCH   1  13
ATOM     13  C   UNL     1       4.187   6.429  -2.220  0.00  0.00    +0.203 C 
ATOM     14  O   UNL     1       4.869   7.739  -2.471  0.00  0.00    -0.219 OA
BRANCH  13  16
ATOM     15  C   UNL     1       5.038   7.081   0.022  0.00  0.00    +0.038 C 
ATOM     16  C   UNL     1       3.564   6.924  -0.696  0.00  0.00    +0.184 C 
ATOM     17  O   UNL     1       3.458   5.476  -0.269  0.00  0.00    -0.220 OA
ENDBRANCH  13  16
ENDBRANCH   1  13
TORSDOF 2
ENDMDL
MODEL 4
REMARK VINA RESULT:      -6.5      5.964      8.199
REMARK  Name = 
REMARK  2 active torsions:
REMARK  status: ('A' for Active; 'I' for Inactive)
REMARK    1  A    between atoms: C_2  and  C_4
REMARK    2  A    between atoms: C_4  and  C_6
REMARK                            x       y       z     vdW  Elec       q    Type
REMARK                         _______ _______ _______ _____ _____    ______ ____
ROOT
ATOM      1  C   UNL     1       0.392   6.731  -4.734  0.00  0.00    +0.147 C 
ATOM      2  N   UNL     1       0.213   5.401  -3.917  0.00  0.00    -0.228 NA
ATOM      3  C   UNL     1      -0.777   5.498  -2.878  0.00  0.00    +0.157 A 
ATOM      4  C   UNL     1      -1.744   6.460  -3.147  0.00  0.00    +0.170 A 
ATOM      5  N   UNL     1      -2.273   7.105  -2.089  0.00  0.00    -0.193 NA
ATOM      6  C   UNL     1      -1.604   7.241  -0.914  0.00  0.00    +0.260 A 
ATOM      7  N   UNL     1      -1.016   6.076  -0.541  0.00  0.00    -0.171 NA
ATOM      8  N   UNL     1      -1.388   8.483  -0.256  0.00  0.00    -0.086 NA
ATOM      9  N   UNL     1      -1.965   6.738  -4.514  0.00  0.00    -0.217 NA
ATOM     10  C   UNL     1      -0.499   5.309  -1.539  0.00  0.00    +0.299 A 
ATOM     11  O   UNL     1       0.405   4.449  -1.307  0.00  0.00    -0.264 OA
ATOM     12  C   UNL     1      -0.986   6.459  -5.569  0.00  0.00    +0.138 C 
ENDROOT
BRANCH   1  13
ATOM     13  C   UNL     1       1.348   6.048  -5.972  0.00  0.00    +0.203 C 
ATOM     14  O   UNL     1       1.303   7.350  -6.714  0.00  0.00    -0.219 OA
BRANCH  13  16
ATOM     15  C   UNL     1       3.751   6.316  -6.545  0.00  0.00    +0.038 C 
ATOM     16  C   UNL     1       2.829   6.427  -5.185  0.00  0.00    +0.184 C 
ATOM     17  O   UNL     1       3.035   4.960  -4.870  0.00  0.00    -0.220 OA
ENDBRANCH  13  16
ENDBRANCH   1  13
TORSDOF 2
ENDMDL
MODEL 5
REMARK VINA RESULT:      -6.5      5.258      8.832
REMARK  Name = 
REMARK  2 active torsions:
REMARK  status: ('A' for Active; 'I' for Inactive)
REMARK    1  A    between atoms: C_2  and  C_4
REMARK    2  A    between atoms: C_4  and  C_6
REMARK                            x       y       z     vdW  Elec       q    Type
REMARK                         _______ _______ _______ _____ _____    ______ ____
ROOT
ATOM      1  C   UNL     1       1.145   6.523  -3.044  0.00  0.00    +0.147 C 
ATOM      2  N   UNL     1       1.568   5.197  -3.775  0.00  0.00    -0.228 NA
ATOM      3  C   UNL     1       2.425   5.421  -4.909  0.00  0.00    +0.157 A 
ATOM      4  C   UNL     1       3.156   6.599  -4.805  0.00  0.00    +0.170 A 
ATOM      5  N   UNL     1       3.435   7.246  -5.954  0.00  0.00    -0.193 NA
ATOM      6  C   UNL     1       2.665   7.115  -7.066  0.00  0.00    +0.260 A 
ATOM      7  N   UNL     1       2.341   5.817  -7.294  0.00  0.00    -0.171 NA
ATOM      8  N   UNL     1       2.113   8.207  -7.789  0.00  0.00    -0.086 NA
ATOM      9  N   UNL     1       3.409   7.046  -3.490  0.00  0.00    -0.217 NA
ATOM     10  C   UNL     1       2.098   5.049  -6.198  0.00  0.00    +0.299 A 
ATOM     11  O   UNL     1       1.406   3.987  -6.278  0.00  0.00    -0.264 OA
ATOM     12  C   UNL     1       2.608   6.651  -2.328  0.00  0.00    +0.138 C 
ENDROOT
BRANCH   1  13
ATOM     13  C   UNL     1       0.474   5.759  -1.673  0.00  0.00    +0.203 C 
ATOM     14  O   UNL     1       0.828   6.956  -0.843  0.00  0.00    -0.219 OA
BRANCH  13  16
ATOM     15  C   UNL     1      -1.676   6.086  -0.472  0.00  0.00    +0.038 C 
ATOM     16  C   UNL     1      -1.116   6.324  -2.001  0.00  0.00    +0.184 C 
ATOM     17  O   UNL     1      -1.525   4.928  -2.420  0.00  0.00    -0.220 OA
ENDBRANCH  13  16
ENDBRANCH   1  13
TORSDOF 2
ENDMDL
MODEL 6
REMARK VINA RESULT:      -6.5      4.566      7.976
REMARK  Name = 
REMARK  2 active torsions:
REMARK  status: ('A' for Active; 'I' for Inactive)
REMARK    1  A    between atoms: C_2  and  C_4
REMARK    2  A    between atoms: C_4  and  C_6
REMARK                            x       y       z     vdW  Elec       q    Type
REMARK                         _______ _______ _______ _____ _____    ______ ____
ROOT
ATOM      1  C   UNL     1       0.081   5.489  -4.607  0.00  0.00    +0.147 C 
ATOM      2  N   UNL     1       0.837   6.764  -5.131  0.00  0.00    -0.228 NA
ATOM      3  C   UNL     1       1.178   6.690  -6.526  0.00  0.00    +0.157 A 
ATOM      4  C   UNL     1       0.326   5.859  -7.244  0.00  0.00    +0.170 A 
ATOM      5  N   UNL     1       0.860   5.193  -8.287  0.00  0.00    -0.193 NA
ATOM      6  C   UNL     1       2.184   4.897  -8.357  0.00  0.00    +0.260 A 
ATOM      7  N   UNL     1       2.949   5.961  -8.004  0.00  0.00    -0.171 NA
ATOM      8  N   UNL     1       2.700   3.592  -8.585  0.00  0.00    -0.086 NA
ATOM      9  N   UNL     1      -0.975   5.713  -6.713  0.00  0.00    -0.217 NA
ATOM     10  C   UNL     1       2.475   6.745  -6.999  0.00  0.00    +0.299 A 
ATOM     11  O   UNL     1       3.250   7.484  -6.318  0.00  0.00    -0.264 OA
ATOM     12  C   UNL     1      -1.313   5.969  -5.311  0.00  0.00    +0.138 C 
ENDROOT
BRANCH   1  13
ATOM     13  C   UNL     1      -0.375   6.162  -3.105  0.00  0.00    +0.203 C 
ATOM     14  O   UNL     1      -1.396   5.077  -2.939  0.00  0.00    -0.219 OA
BRANCH  13  16
ATOM     15  C   UNL     1       0.282   5.746  -0.745  0.00  0.00    +0.038 C 
ATOM     16  C   UNL     1       0.833   5.304  -2.233  0.00  0.00    +0.184 C 
ATOM     17  O   UNL     1       1.743   6.512  -2.306  0.00  0.00    -0.220 OA
ENDBRANCH  13  16
ENDBRANCH   1  13
TORSDOF 2
ENDMDL
MODEL 7
REMARK VINA RESULT:      -6.4      4.889      7.289
REMARK  Name = 
REMARK  2 active torsions:
REMARK  status: ('A' for Active; 'I' for Inactive)
REMARK    1  A    between atoms: C_2  and  C_4
REMARK    2  A    between atoms: C_4  and  C_6
REMARK                            x       y       z     vdW  Elec       q    Type
REMARK                         _______ _______ _______ _____ _____    ______ ____
ROOT
ATOM      1  C   UNL     1       1.168   5.031  -5.905  0.00  0.00    +0.147 C 
ATOM      2  N   UNL     1       0.873   6.547  -5.613  0.00  0.00    -0.228 NA
ATOM      3  C   UNL     1       0.255   6.771  -4.333  0.00  0.00    +0.157 A 
ATOM      4  C   UNL     1       0.558   5.776  -3.410  0.00  0.00    +0.170 A 
ATOM      5  N   UNL     1      -0.390   5.483  -2.498  0.00  0.00    -0.193 NA
ATOM      6  C   UNL     1      -1.711   5.705  -2.728  0.00  0.00    +0.260 A 
ATOM      7  N   UNL     1      -1.919   6.925  -3.283  0.00  0.00    -0.171 NA
ATOM      8  N   UNL     1      -2.725   4.719  -2.582  0.00  0.00    -0.086 NA
ATOM      9  N   UNL     1       1.780   5.100  -3.620  0.00  0.00    -0.217 NA
ATOM     10  C   UNL     1      -0.987   7.354  -4.176  0.00  0.00    +0.299 A 
ATOM     11  O   UNL     1      -1.263   8.241  -5.042  0.00  0.00    -0.264 OA
ATOM     12  C   UNL     1       2.466   5.044  -4.913  0.00  0.00    +0.138 C 
ENDROOT
BRANCH   1  13
ATOM     13  C   UNL     1       2.140   5.305  -7.281  0.00  0.00    +0.203 C 
ATOM     14  O   UNL     1       2.351   3.827  -7.416  0.00  0.00    -0.219 OA
BRANCH  13  16
ATOM     15  C   UNL     1       1.637   4.717  -9.642  0.00  0.00    +0.038 C 
ATOM     16  C   UNL     1       0.801   5.319  -8.358  0.00  0.00    +0.184 C 
ATOM     17  O   UNL     1       1.132   6.743  -8.749  0.00  0.00    -0.220 OA
ENDBRANCH  13  16
ENDBRANCH   1  13
TORSDOF 2
ENDMDL
MODEL 8
REMARK VINA RESULT:      -6.4      6.370      8.232
REMARK  Name = 
REMARK  2 active torsions:
REMARK  status: ('A' for Active; 'I' for Inactive)
REMARK    1  A    between atoms: C_2  and  C_4
REMARK    2  A    between atoms: C_4  and  C_6
REMARK                            x       y       z     vdW  Elec       q    Type
REMARK                         _______ _______ _______ _____ _____    ______ ____
ROOT
ATOM      1  C   UNL     1       1.072   5.506  -4.847  0.00  0.00    +0.147 C 
ATOM      2  N   UNL     1       2.013   6.754  -4.684  0.00  0.00    -0.228 NA
ATOM      3  C   UNL     1       3.245   6.454  -4.004  0.00  0.00    +0.157 A 
ATOM      4  C   UNL     1       3.623   5.123  -4.141  0.00  0.00    +0.170 A 
ATOM      5  N   UNL     1       4.287   4.569  -3.108  0.00  0.00    -0.193 NA
ATOM      6  C   UNL     1       4.160   5.026  -1.835  0.00  0.00    +0.260 A 
ATOM      7  N   UNL     1       4.214   6.381  -1.788  0.00  0.00    -0.171 NA
ATOM      8  N   UNL     1       3.826   4.209  -0.721  0.00  0.00    -0.086 NA
ATOM      9  N   UNL     1       3.152   4.471  -5.302  0.00  0.00    -0.217 NA
ATOM     10  C   UNL     1       3.627   7.050  -2.818  0.00  0.00    +0.299 A 
ATOM     11  O   UNL     1       3.251   8.256  -2.692  0.00  0.00    -0.264 OA
ATOM     12  C   UNL     1       1.986   4.918  -6.068  0.00  0.00    +0.138 C 
ENDROOT
BRANCH   1  13
ATOM     13  C   UNL     1      -0.014   6.248  -5.935  0.00  0.00    +0.203 C 
ATOM     14  O   UNL     1      -0.501   4.895  -6.358  0.00  0.00    -0.219 OA
BRANCH  13  16
ATOM     15  C   UNL     1      -2.486   6.472  -5.828  0.00  0.00    +0.038 C 
ATOM     16  C   UNL     1      -1.243   6.437  -4.749  0.00  0.00    +0.184 C 
ATOM     17  O   UNL     1      -1.078   7.940  -4.819  0.00  0.00    -0.220 OA
ENDBRANCH  13  16
ENDBRANCH   1  13
TORSDOF 2
ENDMDL
MODEL 9
REMARK VINA RESULT:      -6.4      7.002      9.566
REMARK  Name = 
REMARK  2 active torsions:
REMARK  status: ('A' for Active; 'I' for Inactive)
REMARK    1  A    between atoms: C_2  and  C_4
REMARK    2  A    between atoms: C_4  and  C_6
REMARK                            x       y       z     vdW  Elec       q    Type
REMARK                         _______ _______ _______ _____ _____    ______ ____
ROOT
ATOM      1  C   UNL     1      -1.036   6.136  -3.680  0.00  0.00    +0.147 C 
ATOM      2  N   UNL     1      -0.030   5.239  -2.871  0.00  0.00    -0.228 NA
ATOM      3  C   UNL     1      -0.145   5.396  -1.446  0.00  0.00    +0.157 A 
ATOM      4  C   UNL     1      -1.413   5.809  -1.052  0.00  0.00    +0.170 A 
ATOM      5  N   UNL     1      -1.485   6.598   0.038  0.00  0.00    -0.193 NA
ATOM      6  C   UNL     1      -0.450   7.383   0.436  0.00  0.00    +0.260 A 
ATOM      7  N   UNL     1       0.728   6.710   0.388  0.00  0.00    -0.171 NA
ATOM      8  N   UNL     1      -0.554   8.778   0.688  0.00  0.00    -0.086 NA
ATOM      9  N   UNL     1      -2.467   5.455  -1.923  0.00  0.00    -0.217 NA
ATOM     10  C   UNL     1       0.888   5.835  -0.641  0.00  0.00    +0.299 A 
ATOM     11  O   UNL     1       2.043   5.475  -1.026  0.00  0.00    -0.264 OA
ATOM     12  C   UNL     1      -2.279   5.131  -3.339  0.00  0.00    +0.138 C 
ENDROOT
BRANCH   1  13
ATOM     13  C   UNL     1      -0.764   5.385  -5.189  0.00  0.00    +0.203 C 
ATOM     14  O   UNL     1      -1.873   6.199  -5.784  0.00  0.00    -0.219 OA
BRANCH  13  16
ATOM     15  C   UNL     1       0.459   6.075  -7.239  0.00  0.00    +0.038 C 
ATOM     16  C   UNL     1       0.451   6.510  -5.651  0.00  0.00    +0.184 C 
ATOM     17  O   UNL     1       1.520   5.491  -5.318  0.00  0.00    -0.220 OA
ENDBRANCH  13  16
ENDBRANCH   1  13
TORSDOF 2
ENDMDL
