MODEL 1
REMARK VINA RESULT:      -9.3      0.000      0.000
REMARK  Name = 
REMARK  6 active torsions:
REMARK  status: ('A' for Active; 'I' for Inactive)
REMARK    1  A    between atoms: C_24  and  O_25
REMARK    2  A    between atoms: C_24  and  C_33
REMARK    3  A    between atoms: O_25  and  C_26
REMARK    4  A    between atoms: C_26  and  C_28
REMARK    5  A    between atoms: C_33  and  S_35
REMARK    6  A    between atoms: S_35  and  C_36
REMARK                            x       y       z     vdW  Elec       q    Type
REMARK                         _______ _______ _______ _____ _____    ______ ____
ROOT
ATOM      1  C   UNL     1       4.990   7.949  -4.312  0.00  0.00    +0.004 C 
ATOM      2  C   UNL     1       5.102   6.458  -3.634  0.00  0.00    +0.045 C 
ATOM      3  C   UNL     1       3.548   6.425  -3.200  0.00  0.00    +0.196 C 
ATOM      4  C   UNL     1       2.754   5.941  -4.257  0.00  0.00    +0.044 C 
ATOM      5  C   UNL     1       3.641   6.536  -5.475  0.00  0.00    +0.007 C 
ATOM      6  C   UNL     1       2.854   5.407  -6.456  0.00  0.00    +0.036 C 
ATOM      7  C   UNL     1       1.829   6.527  -6.964  0.00  0.00    +0.168 C 
ATOM      8  C   UNL     1       0.673   6.535  -5.792  0.00  0.00    +0.182 C 
ATOM      9  O   UNL     1       0.606   5.015  -5.732  0.00  0.00    -0.220 OA
ATOM     10  F   UNL     1       2.340   7.720  -7.101  0.00  0.00    -0.237 F 
ATOM     11  C   UNL     1       1.222   6.032  -8.207  0.00  0.00    +0.066 C 
ATOM     12  C   UNL     1       1.757   4.821  -8.804  0.00  0.00    -0.003 C 
ATOM     13  C   UNL     1       1.169   4.258  -9.828  0.00  0.00    +0.036 C 
ATOM     14  C   UNL     1       0.333   5.184 -10.619  0.00  0.00    +0.195 C 
ATOM     15  C   UNL     1       0.768   6.588 -10.532  0.00  0.00    +0.038 C 
ATOM     16  O   UNL     1      -0.416   4.760 -11.563  0.00  0.00    -0.287 OA
ATOM     17  C   UNL     1       3.061   4.091  -8.200  0.00  0.00    +0.180 C 
ATOM     18  F   UNL     1       3.800   4.069  -9.512  0.00  0.00    -0.233 F 
ATOM     19  C   UNL     1      -0.295   5.874  -8.089  0.00  0.00    +0.011 C 
ATOM     20  C   UNL     1       1.348   6.987  -9.363  0.00  0.00    -0.017 C 
ATOM     21  C   UNL     1       3.791   5.526  -7.772  0.00  0.00    +0.042 C 
ATOM     22  C   UNL     1       2.803   4.440  -4.287  0.00  0.00    +0.004 C 
ATOM     23  C   UNL     1       1.603   6.651  -4.465  0.00  0.00    +0.039 C 
ATOM     24  C   UNL     1       4.887   5.624  -5.030  0.00  0.00    +0.004 C 
ENDROOT
BRANCH   3  25
ATOM     25  C   UNL     1       3.703   5.632  -1.930  0.00  0.00    +0.237 C 
ATOM     26  O   UNL     1       4.658   4.846  -2.007  0.00  0.00    -0.281 OA
BRANCH  25  27
ATOM     27  S   UNL     1       2.286   4.750  -1.221  0.00  0.00    -0.036 S 
BRANCH  27  28
ATOM     28  C   UNL     1       0.796   5.782  -1.206  0.00  0.00    +0.258 C 
ATOM     29  F   UNL     1      -0.164   5.175  -1.985  0.00  0.00    -0.221 F 
ENDBRANCH  27  28
ENDBRANCH  25  27
ENDBRANCH   3  25
BRANCH   3  30
ATOM     30  O   UNL     1       3.142   7.692  -2.759  0.00  0.00    -0.443 OA
BRANCH  30  31
ATOM     31  C   UNL     1       3.778   8.003  -1.544  0.00  0.00    +0.376 C 
ATOM     32  O   UNL     1       4.994   7.668  -1.354  0.00  0.00    -0.241 OA
BRANCH  31  33
ATOM     33  C   UNL     1       3.152   8.766  -0.502  0.00  0.00    +0.221 A 
ATOM     34  O   UNL     1       2.020   8.596   0.092  0.00  0.00    -0.444 OA
ATOM     35  C   UNL     1       1.765   9.584   0.896  0.00  0.00    +0.180 A 
ATOM     36  C   UNL     1       2.484  10.706   0.487  0.00  0.00    +0.044 A 
ATOM     37  C   UNL     1       3.393  10.133  -0.377  0.00  0.00    +0.047 A 
ENDBRANCH  31  33
ENDBRANCH  30  31
ENDBRANCH   3  30
TORSDOF 6
ENDMDL
MODEL 2
REMARK VINA RESULT:      -8.6      2.511      8.099
REMARK  Name = 
REMARK  6 active torsions:
REMARK  status: ('A' for Active; 'I' for Inactive)
REMARK    1  A    between atoms: C_24  and  O_25
REMARK    2  A    between atoms: C_24  and  C_33
REMARK    3  A    between atoms: O_25  and  C_26
REMARK    4  A    between atoms: C_26  and  C_28
REMARK    5  A    between atoms: C_33  and  S_35
REMARK    6  A    between atoms: S_35  and  C_36
REMARK                            x       y       z     vdW  Elec       q    Type
REMARK                         _______ _______ _______ _____ _____    ______ ____
ROOT
ATOM      1  C   UNL     1       0.635   4.737  -6.489  0.00  0.00    +0.004 C 
ATOM      2  C   UNL     1       2.019   4.010  -6.989  0.00  0.00    +0.045 C 
ATOM      3  C   UNL     1       2.790   5.409  -7.226  0.00  0.00    +0.196 C 
ATOM      4  C   UNL     1       3.392   5.845  -6.030  0.00  0.00    +0.044 C 
ATOM      5  C   UNL     1       2.283   5.250  -5.009  0.00  0.00    +0.007 C 
ATOM      6  C   UNL     1       3.467   5.396  -3.811  0.00  0.00    +0.036 C 
ATOM      7  C   UNL     1       2.834   6.783  -3.321  0.00  0.00    +0.168 C 
ATOM      8  C   UNL     1       3.516   7.884  -4.338  0.00  0.00    +0.182 C 
ATOM      9  O   UNL     1       4.903   7.271  -4.205  0.00  0.00    -0.220 OA
ATOM     10  F   UNL     1       1.533   6.850  -3.392  0.00  0.00    -0.237 F 
ATOM     11  C   UNL     1       3.335   7.036  -1.964  0.00  0.00    +0.066 C 
ATOM     12  C   UNL     1       4.081   5.987  -1.294  0.00  0.00    -0.003 C 
ATOM     13  C   UNL     1       4.670   6.205  -0.146  0.00  0.00    +0.036 C 
ATOM     14  C   UNL     1       4.081   7.321   0.623  0.00  0.00    +0.195 C 
ATOM     15  C   UNL     1       2.661   7.562   0.314  0.00  0.00    +0.038 C 
ATOM     16  O   UNL     1       4.628   7.750   1.694  0.00  0.00    -0.287 OA
ATOM     17  C   UNL     1       4.263   4.530  -1.959  0.00  0.00    +0.180 C 
ATOM     18  F   UNL     1       3.751   3.787  -0.753  0.00  0.00    -0.233 F 
ATOM     19  C   UNL     1       4.150   8.329  -1.878  0.00  0.00    +0.011 C 
ATOM     20  C   UNL     1       2.246   7.286  -0.956  0.00  0.00    -0.017 C 
ATOM     21  C   UNL     1       2.744   4.540  -2.642  0.00  0.00    +0.042 C 
ATOM     22  C   UNL     1       4.697   5.130  -5.825  0.00  0.00    +0.004 C 
ATOM     23  C   UNL     1       3.225   7.178  -5.772  0.00  0.00    +0.039 C 
ATOM     24  C   UNL     1       2.626   3.754  -5.488  0.00  0.00    +0.004 C 
ENDROOT
BRANCH   3  25
ATOM     25  C   UNL     1       3.632   4.986  -8.400  0.00  0.00    +0.237 C 
ATOM     26  O   UNL     1       3.405   3.810  -8.715  0.00  0.00    -0.281 OA
BRANCH  25  27
ATOM     27  S   UNL     1       5.427   5.241  -8.379  0.00  0.00    -0.036 S 
BRANCH  27  28
ATOM     28  C   UNL     1       6.047   5.763 -10.000  0.00  0.00    +0.258 C 
ATOM     29  F   UNL     1       7.276   6.360  -9.826  0.00  0.00    -0.221 F 
ENDBRANCH  27  28
ENDBRANCH  25  27
ENDBRANCH   3  25
BRANCH   3  30
ATOM     30  O   UNL     1       1.913   6.360  -7.764  0.00  0.00    -0.443 OA
BRANCH  30  31
ATOM     31  C   UNL     1       2.280   6.655  -9.089  0.00  0.00    +0.376 C 
ATOM     32  O   UNL     1       3.214   7.493  -9.323  0.00  0.00    -0.241 OA
BRANCH  31  33
ATOM     33  C   UNL     1       1.709   5.996 -10.229  0.00  0.00    +0.221 A 
ATOM     34  O   UNL     1       1.929   6.167 -11.488  0.00  0.00    -0.444 OA
ATOM     35  C   UNL     1       1.111   5.454 -12.202  0.00  0.00    +0.180 A 
ATOM     36  C   UNL     1      -0.026   5.166 -11.449  0.00  0.00    +0.044 A 
ATOM     37  C   UNL     1       0.413   5.487 -10.182  0.00  0.00    +0.047 A 
ENDBRANCH  31  33
ENDBRANCH  30  31
ENDBRANCH   3  30
TORSDOF 6
ENDMDL
MODEL 3
REMARK VINA RESULT:      -8.0      2.901      4.780
REMARK  Name = 
REMARK  6 active torsions:
REMARK  status: ('A' for Active; 'I' for Inactive)
REMARK    1  A    between atoms: C_24  and  O_25
REMARK    2  A    between atoms: C_24  and  C_33
REMARK    3  A    between atoms: O_25  and  C_26
REMARK    4  A    between atoms: C_26  and  C_28
REMARK    5  A    between atoms: C_33  and  S_35
REMARK    6  A    between atoms: S_35  and  C_36
REMARK                            x       y       z     vdW  Elec       q    Type
REMARK                         _______ _______ _______ _____ _____    ______ ____
ROOT
ATOM      1  C   UNL     1       0.353   4.167  -6.136  0.00  0.00    +0.004 C 
ATOM      2  C   UNL     1       0.618   5.721  -5.678  0.00  0.00    +0.045 C 
ATOM      3  C   UNL     1       2.174   5.691  -6.105  0.00  0.00    +0.196 C 
ATOM      4  C   UNL     1       2.314   6.016  -7.469  0.00  0.00    +0.044 C 
ATOM      5  C   UNL     1       0.922   5.367  -7.983  0.00  0.00    +0.007 C 
ATOM      6  C   UNL     1       1.100   6.340  -9.353  0.00  0.00    +0.036 C 
ATOM      7  C   UNL     1       1.708   5.109 -10.178  0.00  0.00    +0.168 C 
ATOM      8  C   UNL     1       3.303   5.137  -9.769  0.00  0.00    +0.182 C 
ATOM      9  O   UNL     1       3.403   6.648  -9.931  0.00  0.00    -0.220 OA
ATOM     10  F   UNL     1       1.190   3.946  -9.893  0.00  0.00    -0.237 F 
ATOM     11  C   UNL     1       1.592   5.440 -11.604  0.00  0.00    +0.066 C 
ATOM     12  C   UNL     1       0.835   6.620 -11.982  0.00  0.00    -0.003 C 
ATOM     13  C   UNL     1       0.816   7.041 -13.221  0.00  0.00    +0.036 C 
ATOM     14  C   UNL     1       1.118   5.988 -14.213  0.00  0.00    +0.195 C 
ATOM     15  C   UNL     1       0.779   4.632 -13.750  0.00  0.00    +0.038 C 
ATOM     16  O   UNL     1       1.277   6.267 -15.449  0.00  0.00    -0.287 OA
ATOM     17  C   UNL     1       0.035   7.491 -10.888  0.00  0.00    +0.180 C 
ATOM     18  F   UNL     1      -1.274   7.436 -11.630  0.00  0.00    -0.233 F 
ATOM     19  C   UNL     1       2.954   5.506 -12.297  0.00  0.00    +0.011 C 
ATOM     20  C   UNL     1       0.881   4.388 -12.412  0.00  0.00    -0.017 C 
ATOM     21  C   UNL     1      -0.382   6.157  -9.981  0.00  0.00    +0.042 C 
ATOM     22  C   UNL     1       2.268   7.506  -7.645  0.00  0.00    +0.004 C 
ATOM     23  C   UNL     1       3.188   5.213  -8.149  0.00  0.00    +0.039 C 
ATOM     24  C   UNL     1       0.090   6.399  -7.075  0.00  0.00    +0.004 C 
ENDROOT
BRANCH   3  25
ATOM     25  C   UNL     1       2.702   6.612  -5.039  0.00  0.00    +0.237 C 
ATOM     26  O   UNL     1       1.819   7.382  -4.634  0.00  0.00    -0.281 OA
BRANCH  25  27
ATOM     27  S   UNL     1       4.216   7.569  -5.320  0.00  0.00    -0.036 S 
BRANCH  27  28
ATOM     28  C   UNL     1       5.003   8.050  -3.760  0.00  0.00    +0.258 C 
ATOM     29  F   UNL     1       6.186   7.356  -3.635  0.00  0.00    -0.221 F 
ENDBRANCH  27  28
ENDBRANCH  25  27
ENDBRANCH   3  25
BRANCH   3  30
ATOM     30  O   UNL     1       2.740   4.449  -5.789  0.00  0.00    -0.443 OA
BRANCH  30  31
ATOM     31  C   UNL     1       3.684   4.601  -4.758  0.00  0.00    +0.376 C 
ATOM     32  O   UNL     1       4.910   4.816  -5.040  0.00  0.00    -0.241 OA
BRANCH  31  33
ATOM     33  C   UNL     1       3.336   4.608  -3.366  0.00  0.00    +0.221 A 
ATOM     34  O   UNL     1       2.228   4.923  -2.786  0.00  0.00    -0.444 OA
ATOM     35  C   UNL     1       2.363   4.914  -1.493  0.00  0.00    +0.180 A 
ATOM     36  C   UNL     1       3.709   5.088  -1.171  0.00  0.00    +0.044 A 
ATOM     37  C   UNL     1       4.302   4.840  -2.390  0.00  0.00    +0.047 A 
ENDBRANCH  31  33
ENDBRANCH  30  31
ENDBRANCH   3  30
TORSDOF 6
ENDMDL
MODEL 4
REMARK VINA RESULT:      -7.7      2.935      8.390
REMARK  Name = 
REMARK  6 active torsions:
REMARK  status: ('A' for Active; 'I' for Inactive)
REMARK    1  A    between atoms: C_24  and  O_25
REMARK    2  A    between atoms: C_24  and  C_33
REMARK    3  A    between atoms: O_25  and  C_26
REMARK    4  A    between atoms: C_26  and  C_28
REMARK    5  A    between atoms: C_33  and  S_35
REMARK    6  A    between atoms: S_35  and  C_36
REMARK                            x       y       z     vdW  Elec       q    Type
REMARK                         _______ _______ _______ _____ _____    ______ ____
ROOT
ATOM      1  C   UNL     1       2.680   3.125  -8.803  0.00  0.00    +0.004 C 
ATOM      2  C   UNL     1       3.678   4.363  -9.211  0.00  0.00    +0.045 C 
ATOM      3  C   UNL     1       2.473   5.428  -9.346  0.00  0.00    +0.196 C 
ATOM      4  C   UNL     1       2.187   6.005  -8.093  0.00  0.00    +0.044 C 
ATOM      5  C   UNL     1       2.544   4.714  -7.181  0.00  0.00    +0.007 C 
ATOM      6  C   UNL     1       2.665   5.796  -5.889  0.00  0.00    +0.036 C 
ATOM      7  C   UNL     1       1.180   5.430  -5.413  0.00  0.00    +0.168 C 
ATOM      8  C   UNL     1       0.238   6.412  -6.340  0.00  0.00    +0.182 C 
ATOM      9  O   UNL     1       1.133   7.623  -6.113  0.00  0.00    -0.220 OA
ATOM     10  F   UNL     1       0.838   4.182  -5.586  0.00  0.00    -0.237 F 
ATOM     11  C   UNL     1       1.054   5.856  -4.013  0.00  0.00    +0.066 C 
ATOM     12  C   UNL     1       2.244   6.305  -3.315  0.00  0.00    -0.003 C 
ATOM     13  C   UNL     1       2.168   6.827  -2.118  0.00  0.00    +0.036 C 
ATOM     14  C   UNL     1       0.960   6.424  -1.367  0.00  0.00    +0.195 C 
ATOM     15  C   UNL     1       0.421   5.118  -1.782  0.00  0.00    +0.038 C 
ATOM     16  O   UNL     1       0.669   6.957  -0.244  0.00  0.00    -0.287 OA
ATOM     17  C   UNL     1       3.700   6.232  -4.004  0.00  0.00    +0.180 C 
ATOM     18  F   UNL     1       4.330   5.476  -2.865  0.00  0.00    -0.233 F 
ATOM     19  C   UNL     1      -0.036   6.914  -3.825  0.00  0.00    +0.011 C 
ATOM     20  C   UNL     1       0.589   4.763  -3.089  0.00  0.00    -0.017 C 
ATOM     21  C   UNL     1       3.361   4.813  -4.807  0.00  0.00    +0.042 C 
ATOM     22  C   UNL     1       3.164   7.109  -7.804  0.00  0.00    +0.004 C 
ATOM     23  C   UNL     1       0.852   6.101  -7.812  0.00  0.00    +0.039 C 
ATOM     24  C   UNL     1       4.073   4.774  -7.673  0.00  0.00    +0.004 C 
ENDROOT
BRANCH   3  25
ATOM     25  C   UNL     1       3.051   6.259 -10.459  0.00  0.00    +0.237 C 
ATOM     26  O   UNL     1       3.504   5.544 -11.364  0.00  0.00    -0.281 OA
BRANCH  25  27
ATOM     27  S   UNL     1       4.258   7.564 -10.098  0.00  0.00    -0.036 S 
BRANCH  27  28
ATOM     28  C   UNL     1       5.779   7.352 -11.060  0.00  0.00    +0.258 C 
ATOM     29  F   UNL     1       6.231   8.596 -11.443  0.00  0.00    -0.221 F 
ENDBRANCH  27  28
ENDBRANCH  25  27
ENDBRANCH   3  25
BRANCH   3  30
ATOM     30  O   UNL     1       1.351   4.820  -9.925  0.00  0.00    -0.443 OA
BRANCH  30  31
ATOM     31  C   UNL     1       0.762   5.692 -10.858  0.00  0.00    +0.376 C 
ATOM     32  O   UNL     1       0.418   6.869 -10.505  0.00  0.00    -0.241 OA
BRANCH  31  33
ATOM     33  C   UNL     1       0.587   5.360 -12.243  0.00  0.00    +0.221 A 
ATOM     34  O   UNL     1       0.800   4.253 -12.869  0.00  0.00    -0.444 OA
ATOM     35  C   UNL     1       0.635   4.405 -14.149  0.00  0.00    +0.180 A 
ATOM     36  C   UNL     1       0.802   5.750 -14.477  0.00  0.00    +0.044 A 
ATOM     37  C   UNL     1       0.722   6.334 -13.231  0.00  0.00    +0.047 A 
ENDBRANCH  31  33
ENDBRANCH  30  31
ENDBRANCH   3  30
TORSDOF 6
ENDMDL
MODEL 5
REMARK VINA RESULT:      -7.6      3.076      7.998
REMARK  Name = 
REMARK  6 active torsions:
REMARK  status: ('A' for Active; 'I' for Inactive)
REMARK    1  A    between atoms: C_24  and  O_25
REMARK    2  A    between atoms: C_24  and  C_33
REMARK    3  A    between atoms: O_25  and  C_26
REMARK    4  A    between atoms: C_26  and  C_28
REMARK    5  A    between atoms: C_33  and  S_35
REMARK    6  A    between atoms: S_35  and  C_36
REMARK                            x       y       z     vdW  Elec       q    Type
REMARK                         _______ _______ _______ _____ _____    ______ ____
ROOT
ATOM      1  C   UNL     1       2.158   8.136  -8.425  0.00  0.00    +0.004 C 
ATOM      2  C   UNL     1       1.403   6.696  -8.653  0.00  0.00    +0.045 C 
ATOM      3  C   UNL     1       2.772   5.846  -8.563  0.00  0.00    +0.196 C 
ATOM      4  C   UNL     1       3.068   5.535  -7.221  0.00  0.00    +0.044 C 
ATOM      5  C   UNL     1       2.448   6.875  -6.554  0.00  0.00    +0.007 C 
ATOM      6  C   UNL     1       2.424   6.011  -5.102  0.00  0.00    +0.036 C 
ATOM      7  C   UNL     1       3.796   6.697  -4.643  0.00  0.00    +0.168 C 
ATOM      8  C   UNL     1       4.943   5.755  -5.357  0.00  0.00    +0.182 C 
ATOM      9  O   UNL     1       4.245   4.461  -4.960  0.00  0.00    -0.220 OA
ATOM     10  F   UNL     1       3.940   7.940  -5.012  0.00  0.00    -0.237 F 
ATOM     11  C   UNL     1       3.902   6.529  -3.188  0.00  0.00    +0.066 C 
ATOM     12  C   UNL     1       2.758   6.001  -2.466  0.00  0.00    -0.003 C 
ATOM     13  C   UNL     1       2.843   5.699  -1.196  0.00  0.00    +0.036 C 
ATOM     14  C   UNL     1       3.918   6.418  -0.482  0.00  0.00    +0.195 C 
ATOM     15  C   UNL     1       4.263   7.713  -1.093  0.00  0.00    +0.038 C 
ATOM     16  O   UNL     1       4.221   6.131   0.725  0.00  0.00    -0.287 OA
ATOM     17  C   UNL     1       1.357   5.712  -3.208  0.00  0.00    +0.180 C 
ATOM     18  F   UNL     1       0.541   6.522  -2.236  0.00  0.00    -0.233 F 
ATOM     19  C   UNL     1       5.135   5.717  -2.785  0.00  0.00    +0.011 C 
ATOM     20  C   UNL     1       4.122   7.820  -2.445  0.00  0.00    -0.017 C 
ATOM     21  C   UNL     1       1.510   7.021  -4.227  0.00  0.00    +0.042 C 
ATOM     22  C   UNL     1       2.268   4.341  -6.785  0.00  0.00    +0.004 C 
ATOM     23  C   UNL     1       4.381   5.715  -6.881  0.00  0.00    +0.039 C 
ATOM     24  C   UNL     1       0.984   6.476  -7.083  0.00  0.00    +0.004 C 
ENDROOT
BRANCH   3  25
ATOM     25  C   UNL     1       2.408   4.760  -9.539  0.00  0.00    +0.237 C 
ATOM     26  O   UNL     1       2.827   5.021 -10.676  0.00  0.00    -0.281 OA
BRANCH  25  27
ATOM     27  S   UNL     1       0.694   4.185  -9.674  0.00  0.00    -0.036 S 
BRANCH  27  28
ATOM     28  C   UNL     1      -0.027   4.604 -11.283  0.00  0.00    +0.258 C 
ATOM     29  F   UNL     1      -0.461   5.910 -11.241  0.00  0.00    -0.221 F 
ENDBRANCH  27  28
ENDBRANCH  25  27
ENDBRANCH   3  25
BRANCH   3  30
ATOM     30  O   UNL     1       3.814   6.536  -9.197  0.00  0.00    -0.443 OA
BRANCH  30  31
ATOM     31  C   UNL     1       4.863   5.650  -9.498  0.00  0.00    +0.376 C 
ATOM     32  O   UNL     1       4.903   4.496  -8.953  0.00  0.00    -0.241 OA
BRANCH  31  33
ATOM     33  C   UNL     1       5.881   5.936 -10.467  0.00  0.00    +0.221 A 
ATOM     34  O   UNL     1       6.025   5.511 -11.677  0.00  0.00    -0.444 OA
ATOM     35  C   UNL     1       7.154   5.914 -12.178  0.00  0.00    +0.180 A 
ATOM     36  C   UNL     1       8.041   6.202 -11.141  0.00  0.00    +0.044 A 
ATOM     37  C   UNL     1       7.178   6.250 -10.067  0.00  0.00    +0.047 A 
ENDBRANCH  31  33
ENDBRANCH  30  31
ENDBRANCH   3  30
TORSDOF 6
ENDMDL
MODEL 6
REMARK VINA RESULT:      -7.6      2.754      4.443
REMARK  Name = 
REMARK  6 active torsions:
REMARK  status: ('A' for Active; 'I' for Inactive)
REMARK    1  A    between atoms: C_24  and  O_25
REMARK    2  A    between atoms: C_24  and  C_33
REMARK    3  A    between atoms: O_25  and  C_26
REMARK    4  A    between atoms: C_26  and  C_28
REMARK    5  A    between atoms: C_33  and  S_35
REMARK    6  A    between atoms: S_35  and  C_36
REMARK                            x       y       z     vdW  Elec       q    Type
REMARK                         _______ _______ _______ _____ _____    ______ ____
ROOT
ATOM      1  C   UNL     1       2.176   3.261  -6.320  0.00  0.00    +0.004 C 
ATOM      2  C   UNL     1       1.072   4.427  -5.979  0.00  0.00    +0.045 C 
ATOM      3  C   UNL     1       2.172   5.607  -5.956  0.00  0.00    +0.196 C 
ATOM      4  C   UNL     1       2.378   6.111  -7.255  0.00  0.00    +0.044 C 
ATOM      5  C   UNL     1       2.128   4.726  -8.058  0.00  0.00    +0.007 C 
ATOM      6  C   UNL     1       1.881   5.690  -9.424  0.00  0.00    +0.036 C 
ATOM      7  C   UNL     1       3.384   5.429  -9.910  0.00  0.00    +0.168 C 
ATOM      8  C   UNL     1       4.246   6.563  -9.084  0.00  0.00    +0.182 C 
ATOM      9  O   UNL     1       3.235   7.664  -9.377  0.00  0.00    -0.220 OA
ATOM     10  F   UNL     1       3.847   4.236  -9.653  0.00  0.00    -0.237 F 
ATOM     11  C   UNL     1       3.443   5.757 -11.340  0.00  0.00    +0.066 C 
ATOM     12  C   UNL     1       2.202   6.038 -12.039  0.00  0.00    -0.003 C 
ATOM     13  C   UNL     1       2.205   6.471 -13.273  0.00  0.00    +0.036 C 
ATOM     14  C   UNL     1       3.431   6.127 -14.023  0.00  0.00    +0.195 C 
ATOM     15  C   UNL     1       4.101   4.913 -13.526  0.00  0.00    +0.038 C 
ATOM     16  O   UNL     1       3.649   6.597 -15.190  0.00  0.00    -0.287 OA
ATOM     17  C   UNL     1       0.773   5.882 -11.309  0.00  0.00    +0.180 C 
ATOM     18  F   UNL     1       0.197   4.984 -12.372  0.00  0.00    -0.233 F 
ATOM     19  C   UNL     1       4.423   6.895 -11.635  0.00  0.00    +0.011 C 
ATOM     20  C   UNL     1       3.992   4.645 -12.193  0.00  0.00    -0.017 C 
ATOM     21  C   UNL     1       1.261   4.565 -10.412  0.00  0.00    +0.042 C 
ATOM     22  C   UNL     1       1.295   7.093  -7.599  0.00  0.00    +0.004 C 
ATOM     23  C   UNL     1       3.692   6.310  -7.577  0.00  0.00    +0.039 C 
ATOM     24  C   UNL     1       0.611   4.680  -7.532  0.00  0.00    +0.004 C 
ENDROOT
BRANCH   3  25
ATOM     25  C   UNL     1       1.538   6.463  -4.892  0.00  0.00    +0.237 C 
ATOM     26  O   UNL     1       1.131   5.775  -3.946  0.00  0.00    -0.281 OA
BRANCH  25  27
ATOM     27  S   UNL     1       0.251   7.664  -5.328  0.00  0.00    -0.036 S 
BRANCH  27  28
ATOM     28  C   UNL     1      -1.405   7.037  -4.943  0.00  0.00    +0.258 C 
ATOM     29  F   UNL     1      -1.873   6.338  -6.033  0.00  0.00    -0.221 F 
ENDBRANCH  27  28
ENDBRANCH  25  27
ENDBRANCH   3  25
BRANCH   3  30
ATOM     30  O   UNL     1       3.357   5.153  -5.362  0.00  0.00    -0.443 OA
BRANCH  30  31
ATOM     31  C   UNL     1       3.827   6.105  -4.440  0.00  0.00    +0.376 C 
ATOM     32  O   UNL     1       3.939   7.329  -4.785  0.00  0.00    -0.241 OA
BRANCH  31  33
ATOM     33  C   UNL     1       4.125   5.795  -3.071  0.00  0.00    +0.221 A 
ATOM     34  O   UNL     1       3.830   4.754  -2.369  0.00  0.00    -0.444 OA
ATOM     35  C   UNL     1       4.178   4.919  -1.128  0.00  0.00    +0.180 A 
ATOM     36  C   UNL     1       4.260   6.283  -0.850  0.00  0.00    +0.044 A 
ATOM     37  C   UNL     1       4.267   6.808  -2.125  0.00  0.00    +0.047 A 
ENDBRANCH  31  33
ENDBRANCH  30  31
ENDBRANCH   3  30
TORSDOF 6
ENDMDL
MODEL 7
REMARK VINA RESULT:      -7.2      3.796      9.684
REMARK  Name = 
REMARK  6 active torsions:
REMARK  status: ('A' for Active; 'I' for Inactive)
REMARK    1  A    between atoms: C_24  and  O_25
REMARK    2  A    between atoms: C_24  and  C_33
REMARK    3  A    between atoms: O_25  and  C_26
REMARK    4  A    between atoms: C_26  and  C_28
REMARK    5  A    between atoms: C_33  and  S_35
REMARK    6  A    between atoms: S_35  and  C_36
REMARK                            x       y       z     vdW  Elec       q    Type
REMARK                         _______ _______ _______ _____ _____    ______ ____
ROOT
ATOM      1  C   UNL     1      -0.392   7.615 -11.371  0.00  0.00    +0.004 C 
ATOM      2  C   UNL     1      -0.454   6.060 -11.892  0.00  0.00    +0.045 C 
ATOM      3  C   UNL     1       1.111   6.019 -12.283  0.00  0.00    +0.196 C 
ATOM      4  C   UNL     1       1.886   5.665 -11.161  0.00  0.00    +0.044 C 
ATOM      5  C   UNL     1       0.954   6.362 -10.034  0.00  0.00    +0.007 C 
ATOM      6  C   UNL     1       1.737   5.358  -8.922  0.00  0.00    +0.036 C 
ATOM      7  C   UNL     1       2.725   6.549  -8.507  0.00  0.00    +0.168 C 
ATOM      8  C   UNL     1       3.912   6.463  -9.645  0.00  0.00    +0.182 C 
ATOM      9  O   UNL     1       4.012   4.947  -9.545  0.00  0.00    -0.220 OA
ATOM     10  F   UNL     1       2.185   7.737  -8.507  0.00  0.00    -0.237 F 
ATOM     11  C   UNL     1       3.307   6.198  -7.205  0.00  0.00    +0.066 C 
ATOM     12  C   UNL     1       2.782   5.044  -6.499  0.00  0.00    -0.003 C 
ATOM     13  C   UNL     1       3.353   4.603  -5.408  0.00  0.00    +0.036 C 
ATOM     14  C   UNL     1       4.149   5.625  -4.696  0.00  0.00    +0.195 C 
ATOM     15  C   UNL     1       3.686   7.002  -4.940  0.00  0.00    +0.038 C 
ATOM     16  O   UNL     1       4.880   5.318  -3.695  0.00  0.00    -0.287 OA
ATOM     17  C   UNL     1       1.510   4.225  -7.057  0.00  0.00    +0.180 C 
ATOM     18  F   UNL     1       0.736   4.321  -5.769  0.00  0.00    -0.233 F 
ATOM     19  C   UNL     1       4.831   6.065  -7.268  0.00  0.00    +0.011 C 
ATOM     20  C   UNL     1       3.131   7.265  -6.158  0.00  0.00    -0.017 C 
ATOM     21  C   UNL     1       0.763   5.590  -7.649  0.00  0.00    +0.042 C 
ATOM     22  C   UNL     1       1.867   4.175 -10.977  0.00  0.00    +0.004 C 
ATOM     23  C   UNL     1       3.016   6.420 -11.000  0.00  0.00    +0.039 C 
ATOM     24  C   UNL     1      -0.260   5.380 -10.413  0.00  0.00    +0.004 C 
ENDROOT
BRANCH   3  25
ATOM     25  C   UNL     1       1.007   5.095 -13.466  0.00  0.00    +0.237 C 
ATOM     26  O   UNL     1       0.030   4.341 -13.362  0.00  0.00    -0.281 OA
BRANCH  25  27
ATOM     27  S   UNL     1       2.439   4.116 -13.993  0.00  0.00    -0.036 S 
BRANCH  27  28
ATOM     28  C   UNL     1       3.964   5.094 -13.967  0.00  0.00    +0.258 C 
ATOM     29  F   UNL     1       4.795   4.583 -12.994  0.00  0.00    -0.221 F 
ENDBRANCH  27  28
ENDBRANCH  25  27
ENDBRANCH   3  25
BRANCH   3  30
ATOM     30  O   UNL     1       1.503   7.243 -12.842  0.00  0.00    -0.443 OA
BRANCH  30  31
ATOM     31  C   UNL     1       0.926   7.394 -14.115  0.00  0.00    +0.376 C 
ATOM     32  O   UNL     1      -0.340   7.506 -14.235  0.00  0.00    -0.241 OA
BRANCH  31  33
ATOM     33  C   UNL     1       1.697   7.514 -15.319  0.00  0.00    +0.221 A 
ATOM     34  O   UNL     1       2.934   7.840 -15.489  0.00  0.00    -0.444 OA
ATOM     35  C   UNL     1       3.214   7.952 -16.753  0.00  0.00    +0.180 A 
ATOM     36  C   UNL     1       2.041   8.202 -17.463  0.00  0.00    +0.044 A 
ATOM     37  C   UNL     1       1.090   7.867 -16.523  0.00  0.00    +0.047 A 
ENDBRANCH  31  33
ENDBRANCH  30  31
ENDBRANCH   3  30
TORSDOF 6
ENDMDL
MODEL 8
REMARK VINA RESULT:      -7.1      1.721      2.543
REMARK  Name = 
REMARK  6 active torsions:
REMARK  status: ('A' for Active; 'I' for Inactive)
REMARK    1  A    between atoms: C_24  and  O_25
REMARK    2  A    between atoms: C_24  and  C_33
REMARK    3  A    between atoms: O_25  and  C_26
REMARK    4  A    between atoms: C_26  and  C_28
REMARK    5  A    between atoms: C_33  and  S_35
REMARK    6  A    between atoms: S_35  and  C_36
REMARK                            x       y       z     vdW  Elec       q    Type
REMARK                         _______ _______ _______ _____ _____    ______ ____
ROOT
ATOM      1  C   UNL     1       4.154   8.632  -2.790  0.00  0.00    +0.004 C 
ATOM      2  C   UNL     1       4.821   7.220  -2.283  0.00  0.00    +0.045 C 
ATOM      3  C   UNL     1       3.393   6.494  -2.089  0.00  0.00    +0.196 C 
ATOM      4  C   UNL     1       2.968   5.917  -3.302  0.00  0.00    +0.044 C 
ATOM      5  C   UNL     1       3.626   7.014  -4.297  0.00  0.00    +0.007 C 
ATOM      6  C   UNL     1       3.471   5.846  -5.509  0.00  0.00    +0.036 C 
ATOM      7  C   UNL     1       2.119   6.528  -6.028  0.00  0.00    +0.168 C 
ATOM      8  C   UNL     1       0.970   5.875  -5.046  0.00  0.00    +0.182 C 
ATOM      9  O   UNL     1       1.541   4.469  -5.176  0.00  0.00    -0.220 OA
ATOM     10  F   UNL     1       2.093   7.830  -5.947  0.00  0.00    -0.237 F 
ATOM     11  C   UNL     1       1.885   6.047  -7.396  0.00  0.00    +0.066 C 
ATOM     12  C   UNL     1       2.926   5.272  -8.046  0.00  0.00    -0.003 C 
ATOM     13  C   UNL     1       2.719   4.700  -9.204  0.00  0.00    +0.036 C 
ATOM     14  C   UNL     1       1.642   5.332  -9.996  0.00  0.00    +0.195 C 
ATOM     15  C   UNL     1       1.441   6.756  -9.681  0.00  0.00    +0.038 C 
ATOM     16  O   UNL     1       1.224   4.808 -11.083  0.00  0.00    -0.287 OA
ATOM     17  C   UNL     1       4.359   5.036  -7.345  0.00  0.00    +0.180 C 
ATOM     18  F   UNL     1       5.149   5.533  -8.527  0.00  0.00    -0.233 F 
ATOM     19  C   UNL     1       0.569   5.276  -7.522  0.00  0.00    +0.011 C 
ATOM     20  C   UNL     1       1.697   7.152  -8.401  0.00  0.00    -0.017 C 
ATOM     21  C   UNL     1       4.381   6.550  -6.649  0.00  0.00    +0.042 C 
ATOM     22  C   UNL     1       3.644   4.591  -3.500  0.00  0.00    +0.004 C 
ATOM     23  C   UNL     1       1.649   6.130  -3.592  0.00  0.00    +0.039 C 
ATOM     24  C   UNL     1       5.096   6.618  -3.783  0.00  0.00    +0.004 C 
ENDROOT
BRANCH   3  25
ATOM     25  C   UNL     1       3.757   5.629  -0.913  0.00  0.00    +0.237 C 
ATOM     26  O   UNL     1       4.595   6.185  -0.190  0.00  0.00    -0.281 OA
BRANCH  25  27
ATOM     27  S   UNL     1       4.262   3.906  -1.164  0.00  0.00    -0.036 S 
BRANCH  27  28
ATOM     28  C   UNL     1       2.963   2.748  -0.659  0.00  0.00    +0.258 C 
ATOM     29  F   UNL     1       1.742   3.366  -0.813  0.00  0.00    -0.221 F 
ENDBRANCH  27  28
ENDBRANCH  25  27
ENDBRANCH   3  25
BRANCH   3  30
ATOM     30  O   UNL     1       2.457   7.398  -1.568  0.00  0.00    -0.443 OA
BRANCH  30  31
ATOM     31  C   UNL     1       1.502   6.708  -0.800  0.00  0.00    +0.376 C 
ATOM     32  O   UNL     1       1.851   6.118   0.276  0.00  0.00    -0.241 OA
BRANCH  31  33
ATOM     33  C   UNL     1       0.102   6.691  -1.117  0.00  0.00    +0.221 A 
ATOM     34  O   UNL     1      -0.826   7.544  -0.844  0.00  0.00    -0.444 OA
ATOM     35  C   UNL     1      -1.990   7.093  -1.203  0.00  0.00    +0.180 A 
ATOM     36  C   UNL     1      -1.944   5.701  -1.267  0.00  0.00    +0.044 A 
ATOM     37  C   UNL     1      -0.582   5.485  -1.253  0.00  0.00    +0.047 A 
ENDBRANCH  31  33
ENDBRANCH  30  31
ENDBRANCH   3  30
TORSDOF 6
ENDMDL
MODEL 9
REMARK VINA RESULT:      -6.7      2.287      3.579
REMARK  Name = 
REMARK  6 active torsions:
REMARK  status: ('A' for Active; 'I' for Inactive)
REMARK    1  A    between atoms: C_24  and  O_25
REMARK    2  A    between atoms: C_24  and  C_33
REMARK    3  A    between atoms: O_25  and  C_26
REMARK    4  A    between atoms: C_26  and  C_28
REMARK    5  A    between atoms: C_33  and  S_35
REMARK    6  A    between atoms: S_35  and  C_36
REMARK                            x       y       z     vdW  Elec       q    Type
REMARK                         _______ _______ _______ _____ _____    ______ ____
ROOT
ATOM      1  C   UNL     1       3.713   4.220  -5.378  0.00  0.00    +0.004 C 
ATOM      2  C   UNL     1       2.149   4.432  -4.925  0.00  0.00    +0.045 C 
ATOM      3  C   UNL     1       2.174   6.020  -5.211  0.00  0.00    +0.196 C 
ATOM      4  C   UNL     1       1.871   6.280  -6.562  0.00  0.00    +0.044 C 
ATOM      5  C   UNL     1       2.540   4.943  -7.187  0.00  0.00    +0.007 C 
ATOM      6  C   UNL     1       1.588   5.236  -8.552  0.00  0.00    +0.036 C 
ATOM      7  C   UNL     1       2.827   5.924  -9.298  0.00  0.00    +0.168 C 
ATOM      8  C   UNL     1       2.780   7.475  -8.748  0.00  0.00    +0.182 C 
ATOM      9  O   UNL     1       1.271   7.580  -8.927  0.00  0.00    -0.220 OA
ATOM     10  F   UNL     1       3.990   5.390  -9.040  0.00  0.00    -0.237 F 
ATOM     11  C   UNL     1       2.522   5.934 -10.734  0.00  0.00    +0.066 C 
ATOM     12  C   UNL     1       1.354   5.206 -11.199  0.00  0.00    -0.003 C 
ATOM     13  C   UNL     1       0.954   5.295 -12.441  0.00  0.00    +0.036 C 
ATOM     14  C   UNL     1       2.021   5.692 -13.384  0.00  0.00    +0.195 C 
ATOM     15  C   UNL     1       3.372   5.322 -12.930  0.00  0.00    +0.038 C 
ATOM     16  O   UNL     1       1.762   5.959 -14.605  0.00  0.00    -0.287 OA
ATOM     17  C   UNL     1       0.471   4.305 -10.195  0.00  0.00    +0.180 C 
ATOM     18  F   UNL     1       0.550   3.068 -11.050  0.00  0.00    -0.233 F 
ATOM     19  C   UNL     1       2.456   7.353 -11.303  0.00  0.00    +0.011 C 
ATOM     20  C   UNL     1       3.593   5.305 -11.584  0.00  0.00    -0.017 C 
ATOM     21  C   UNL     1       1.793   3.818  -9.307  0.00  0.00    +0.042 C 
ATOM     22  C   UNL     1       0.384   6.240  -6.767  0.00  0.00    +0.004 C 
ATOM     23  C   UNL     1       2.678   7.216  -7.147  0.00  0.00    +0.039 C 
ATOM     24  C   UNL     1       1.499   4.027  -6.374  0.00  0.00    +0.004 C 
ENDROOT
BRANCH   3  25
ATOM     25  C   UNL     1       1.231   6.444  -4.117  0.00  0.00    +0.237 C 
ATOM     26  O   UNL     1       0.924   5.486  -3.394  0.00  0.00    -0.281 OA
BRANCH  25  27
ATOM     27  S   UNL     1      -0.275   7.372  -4.514  0.00  0.00    -0.036 S 
BRANCH  27  28
ATOM     28  C   UNL     1      -1.745   6.607  -3.781  0.00  0.00    +0.258 C 
ATOM     29  F   UNL     1      -2.029   5.451  -4.474  0.00  0.00    -0.221 F 
ENDBRANCH  27  28
ENDBRANCH  25  27
ENDBRANCH   3  25
BRANCH   3  30
ATOM     30  O   UNL     1       3.406   6.563  -4.823  0.00  0.00    -0.443 OA
BRANCH  30  31
ATOM     31  C   UNL     1       3.347   6.977  -3.481  0.00  0.00    +0.376 C 
ATOM     32  O   UNL     1       2.703   8.032  -3.164  0.00  0.00    -0.241 OA
BRANCH  31  33
ATOM     33  C   UNL     1       3.915   6.224  -2.400  0.00  0.00    +0.221 A 
ATOM     34  O   UNL     1       3.678   5.018  -2.008  0.00  0.00    -0.444 OA
ATOM     35  C   UNL     1       4.318   4.754  -0.908  0.00  0.00    +0.180 A 
ATOM     36  C   UNL     1       4.607   5.947  -0.247  0.00  0.00    +0.044 A 
ATOM     37  C   UNL     1       4.378   6.863  -1.251  0.00  0.00    +0.047 A 
ENDBRANCH  31  33
ENDBRANCH  30  31
ENDBRANCH   3  30
TORSDOF 6
ENDMDL
