MODEL 1
REMARK VINA RESULT:      -7.5      0.000      0.000
REMARK  Name = 
REMARK  2 active torsions:
REMARK  status: ('A' for Active; 'I' for Inactive)
REMARK    1  A    between atoms: C_3  and  C_4
REMARK    2  A    between atoms: C_9  and  N_10
REMARK                            x       y       z     vdW  Elec       q    Type
REMARK                         _______ _______ _______ _____ _____    ______ ____
ROOT
ATOM      1  N   UNL     1       4.868   5.694  -9.679  0.00  0.00    -0.292 N 
ATOM      2  C   UNL     1       4.893   5.739 -11.037  0.00  0.00    +0.171 A 
ATOM      3  N   UNL     1       3.965   5.566 -11.990  0.00  0.00    -0.192 NA
ATOM      4  C   UNL     1       4.325   5.219 -13.254  0.00  0.00    +0.261 A 
ATOM      5  N   UNL     1       5.603   4.912 -13.586  0.00  0.00    -0.171 NA
ATOM      6  C   UNL     1       6.583   5.291 -12.731  0.00  0.00    +0.302 A 
ATOM      7  O   UNL     1       7.738   4.812 -12.936  0.00  0.00    -0.263 OA
ATOM      8  N   UNL     1       3.386   5.205 -14.318  0.00  0.00    -0.086 NA
ATOM      9  C   UNL     1       6.210   5.666 -11.456  0.00  0.00    +0.175 A 
ATOM     10  N   UNL     1       6.935   5.584 -10.331  0.00  0.00    -0.217 NA
ATOM     11  C   UNL     1       6.086   5.607  -9.280  0.00  0.00    +0.180 A 
ENDROOT
BRANCH   1  14
ATOM     12  C   UNL     1       4.475   5.413  -7.193  0.00  0.00    -0.007 C 
ATOM     13  C   UNL     1       4.060   5.939  -7.421  0.00  0.00    -0.019 C 
ATOM     14  C   UNL     1       3.665   6.447  -8.942  0.00  0.00    +0.110 C 
ATOM     15  C   UNL     1       2.624   5.183  -9.221  0.00  0.00    +0.060 C 
ATOM     16  C   UNL     1       2.147   4.819  -7.684  0.00  0.00    +0.160 C 
ATOM     17  O   UNL     1       0.699   5.248  -7.960  0.00  0.00    -0.223 OA
ATOM     18  C   UNL     1       2.550   6.398  -7.097  0.00  0.00    +0.083 C 
BRANCH  18  19
ATOM     19  C   UNL     1       2.625   5.872  -5.547  0.00  0.00    +0.189 C 
ATOM     20  O   UNL     1       2.137   6.953  -4.836  0.00  0.00    -0.220 OA
ENDBRANCH  18  19
ENDBRANCH   1  14
TORSDOF 2
ENDMDL
MODEL 2
REMARK VINA RESULT:      -7.5      4.960      8.476
REMARK  Name = 
REMARK  2 active torsions:
REMARK  status: ('A' for Active; 'I' for Inactive)
REMARK    1  A    between atoms: C_3  and  C_4
REMARK    2  A    between atoms: C_9  and  N_10
REMARK                            x       y       z     vdW  Elec       q    Type
REMARK                         _______ _______ _______ _____ _____    ______ ____
ROOT
ATOM      1  N   UNL     1      -0.164   5.404  -6.271  0.00  0.00    -0.292 N 
ATOM      2  C   UNL     1      -0.242   5.562  -4.924  0.00  0.00    +0.171 A 
ATOM      3  N   UNL     1       0.625   5.382  -3.916  0.00  0.00    -0.192 NA
ATOM      4  C   UNL     1       0.180   5.175  -2.648  0.00  0.00    +0.261 A 
ATOM      5  N   UNL     1      -1.134   5.017  -2.356  0.00  0.00    -0.171 NA
ATOM      6  C   UNL     1      -2.036   5.414  -3.286  0.00  0.00    +0.302 A 
ATOM      7  O   UNL     1      -3.239   5.061  -3.102  0.00  0.00    -0.263 OA
ATOM      8  N   UNL     1       1.068   5.162  -1.541  0.00  0.00    -0.086 NA
ATOM      9  C   UNL     1      -1.576   5.647  -4.566  0.00  0.00    +0.175 A 
ATOM     10  N   UNL     1      -2.258   5.540  -5.715  0.00  0.00    -0.217 NA
ATOM     11  C   UNL     1      -1.367   5.397  -6.723  0.00  0.00    +0.180 A 
ENDROOT
BRANCH   1  14
ATOM     12  C   UNL     1       0.023   5.400  -8.797  0.00  0.00    -0.007 C 
ATOM     13  C   UNL     1       0.557   5.787  -8.540  0.00  0.00    -0.019 C 
ATOM     14  C   UNL     1       1.136   5.978  -7.005  0.00  0.00    +0.110 C 
ATOM     15  C   UNL     1       1.882   4.495  -6.975  0.00  0.00    +0.060 C 
ATOM     16  C   UNL     1       2.183   4.258  -8.580  0.00  0.00    +0.160 C 
ATOM     17  O   UNL     1       3.703   4.325  -8.373  0.00  0.00    -0.223 OA
ATOM     18  C   UNL     1       2.112   5.954  -8.927  0.00  0.00    +0.083 C 
BRANCH  18  19
ATOM     19  C   UNL     1       1.840   5.680 -10.519  0.00  0.00    +0.189 C 
ATOM     20  O   UNL     1       2.793   6.473 -11.130  0.00  0.00    -0.220 OA
ENDBRANCH  18  19
ENDBRANCH   1  14
TORSDOF 2
ENDMDL
MODEL 3
REMARK VINA RESULT:      -7.0      2.226      5.836
REMARK  Name = 
REMARK  2 active torsions:
REMARK  status: ('A' for Active; 'I' for Inactive)
REMARK    1  A    between atoms: C_3  and  C_4
REMARK    2  A    between atoms: C_9  and  N_10
REMARK                            x       y       z     vdW  Elec       q    Type
REMARK                         _______ _______ _______ _____ _____    ______ ____
ROOT
ATOM      1  N   UNL     1       4.366   5.749  -9.315  0.00  0.00    -0.292 N 
ATOM      2  C   UNL     1       3.021   5.562  -9.303  0.00  0.00    +0.171 A 
ATOM      3  N   UNL     1       2.015   6.004 -10.073  0.00  0.00    -0.192 NA
ATOM      4  C   UNL     1       0.743   6.044  -9.596  0.00  0.00    +0.261 A 
ATOM      5  N   UNL     1       0.443   5.764  -8.304  0.00  0.00    -0.171 NA
ATOM      6  C   UNL     1       1.373   5.103  -7.572  0.00  0.00    +0.302 A 
ATOM      7  O   UNL     1       1.178   5.044  -6.321  0.00  0.00    -0.263 OA
ATOM      8  N   UNL     1      -0.360   6.335 -10.441  0.00  0.00    -0.086 NA
ATOM      9  C   UNL     1       2.657   5.045  -8.073  0.00  0.00    +0.175 A 
ATOM     10  N   UNL     1       3.802   4.934  -7.383  0.00  0.00    -0.217 NA
ATOM     11  C   UNL     1       4.812   5.369  -8.171  0.00  0.00    +0.180 A 
ENDROOT
BRANCH   1  14
ATOM     12  C   UNL     1       6.894   5.814  -9.467  0.00  0.00    -0.007 C 
ATOM     13  C   UNL     1       6.642   5.624 -10.102  0.00  0.00    -0.019 C 
ATOM     14  C   UNL     1       5.113   5.635 -10.725  0.00  0.00    +0.110 C 
ATOM     15  C   UNL     1       5.085   7.281 -10.940  0.00  0.00    +0.060 C 
ATOM     16  C   UNL     1       6.691   7.604 -11.133  0.00  0.00    +0.160 C 
ATOM     17  O   UNL     1       6.498   8.042 -12.591  0.00  0.00    -0.223 OA
ATOM     18  C   UNL     1       7.043   5.979 -11.621  0.00  0.00    +0.083 C 
BRANCH  18  19
ATOM     19  C   UNL     1       8.632   6.148 -11.259  0.00  0.00    +0.189 C 
ATOM     20  O   UNL     1       9.251   5.822 -12.452  0.00  0.00    -0.220 OA
ENDBRANCH  18  19
ENDBRANCH   1  14
TORSDOF 2
ENDMDL
MODEL 4
REMARK VINA RESULT:      -7.0      2.353      6.517
REMARK  Name = 
REMARK  2 active torsions:
REMARK  status: ('A' for Active; 'I' for Inactive)
REMARK    1  A    between atoms: C_3  and  C_4
REMARK    2  A    between atoms: C_9  and  N_10
REMARK                            x       y       z     vdW  Elec       q    Type
REMARK                         _______ _______ _______ _____ _____    ______ ____
ROOT
ATOM      1  N   UNL     1       4.001   5.441  -9.165  0.00  0.00    -0.292 N 
ATOM      2  C   UNL     1       3.785   5.540  -7.827  0.00  0.00    +0.171 A 
ATOM      3  N   UNL     1       4.572   5.821  -6.777  0.00  0.00    -0.192 NA
ATOM      4  C   UNL     1       4.227   5.419  -5.526  0.00  0.00    +0.261 A 
ATOM      5  N   UNL     1       3.158   4.621  -5.288  0.00  0.00    -0.171 NA
ATOM      6  C   UNL     1       2.227   4.509  -6.266  0.00  0.00    +0.302 A 
ATOM      7  O   UNL     1       1.356   3.600  -6.126  0.00  0.00    -0.263 OA
ATOM      8  N   UNL     1       4.943   5.855  -4.380  0.00  0.00    -0.086 NA
ATOM      9  C   UNL     1       2.573   4.942  -7.530  0.00  0.00    +0.175 A 
ATOM     10  N   UNL     1       2.097   4.505  -8.706  0.00  0.00    -0.217 NA
ATOM     11  C   UNL     1       2.990   4.830  -9.669  0.00  0.00    +0.180 A 
ENDROOT
BRANCH   1  14
ATOM     12  C   UNL     1       4.511   5.387 -11.645  0.00  0.00    -0.007 C 
ATOM     13  C   UNL     1       4.709   6.021 -11.396  0.00  0.00    -0.019 C 
ATOM     14  C   UNL     1       4.872   6.592  -9.855  0.00  0.00    +0.110 C 
ATOM     15  C   UNL     1       6.288   5.771  -9.575  0.00  0.00    +0.060 C 
ATOM     16  C   UNL     1       6.890   5.643 -11.106  0.00  0.00    +0.160 C 
ATOM     17  O   UNL     1       8.086   6.549 -10.783  0.00  0.00    -0.223 OA
ATOM     18  C   UNL     1       5.963   6.993 -11.671  0.00  0.00    +0.083 C 
BRANCH  18  19
ATOM     19  C   UNL     1       6.106   6.518 -13.232  0.00  0.00    +0.189 C 
ATOM     20  O   UNL     1       6.333   7.712 -13.892  0.00  0.00    -0.220 OA
ENDBRANCH  18  19
ENDBRANCH   1  14
TORSDOF 2
ENDMDL
MODEL 5
REMARK VINA RESULT:      -7.0      1.897      3.020
REMARK  Name = 
REMARK  2 active torsions:
REMARK  status: ('A' for Active; 'I' for Inactive)
REMARK    1  A    between atoms: C_3  and  C_4
REMARK    2  A    between atoms: C_9  and  N_10
REMARK                            x       y       z     vdW  Elec       q    Type
REMARK                         _______ _______ _______ _____ _____    ______ ____
ROOT
ATOM      1  N   UNL     1       3.383   5.617 -10.832  0.00  0.00    -0.292 N 
ATOM      2  C   UNL     1       4.238   5.351 -11.854  0.00  0.00    +0.171 A 
ATOM      3  N   UNL     1       5.564   5.164 -11.931  0.00  0.00    -0.192 NA
ATOM      4  C   UNL     1       6.225   5.361 -13.102  0.00  0.00    +0.261 A 
ATOM      5  N   UNL     1       5.617   5.865 -14.203  0.00  0.00    -0.171 NA
ATOM      6  C   UNL     1       4.262   5.847 -14.237  0.00  0.00    +0.302 A 
ATOM      7  O   UNL     1       3.704   6.514 -15.158  0.00  0.00    -0.263 OA
ATOM      8  N   UNL     1       7.589   5.000 -13.257  0.00  0.00    -0.086 NA
ATOM      9  C   UNL     1       3.596   5.623 -13.050  0.00  0.00    +0.175 A 
ATOM     10  N   UNL     1       2.370   6.042 -12.705  0.00  0.00    -0.217 NA
ATOM     11  C   UNL     1       2.281   6.021 -11.356  0.00  0.00    +0.180 A 
ENDROOT
BRANCH   1  14
ATOM     12  C   UNL     1       1.627   5.681  -9.008  0.00  0.00    -0.007 C 
ATOM     13  C   UNL     1       2.083   5.161  -8.853  0.00  0.00    -0.019 C 
ATOM     14  C   UNL     1       3.555   4.766  -9.489  0.00  0.00    +0.110 C 
ATOM     15  C   UNL     1       4.348   6.013  -8.731  0.00  0.00    +0.060 C 
ATOM     16  C   UNL     1       3.397   6.234  -7.402  0.00  0.00    +0.160 C 
ATOM     17  O   UNL     1       4.509   5.780  -6.446  0.00  0.00    -0.223 OA
ATOM     18  C   UNL     1       2.756   4.627  -7.491  0.00  0.00    +0.083 C 
BRANCH  18  19
ATOM     19  C   UNL     1       1.454   5.028  -6.582  0.00  0.00    +0.189 C 
ATOM     20  O   UNL     1       1.167   3.844  -5.926  0.00  0.00    -0.220 OA
ENDBRANCH  18  19
ENDBRANCH   1  14
TORSDOF 2
ENDMDL
MODEL 6
REMARK VINA RESULT:      -6.9      3.223      5.189
REMARK  Name = 
REMARK  2 active torsions:
REMARK  status: ('A' for Active; 'I' for Inactive)
REMARK    1  A    between atoms: C_3  and  C_4
REMARK    2  A    between atoms: C_9  and  N_10
REMARK                            x       y       z     vdW  Elec       q    Type
REMARK                         _______ _______ _______ _____ _____    ______ ____
ROOT
ATOM      1  N   UNL     1       0.620   5.443  -7.464  0.00  0.00    -0.292 N 
ATOM      2  C   UNL     1       1.796   5.174  -8.089  0.00  0.00    +0.171 A 
ATOM      3  N   UNL     1       3.083   5.231  -7.712  0.00  0.00    -0.192 NA
ATOM      4  C   UNL     1       4.071   5.347  -8.638  0.00  0.00    +0.261 A 
ATOM      5  N   UNL     1       3.815   5.534  -9.955  0.00  0.00    -0.171 NA
ATOM      6  C   UNL     1       2.564   5.255 -10.397  0.00  0.00    +0.302 A 
ATOM      7  O   UNL     1       2.273   5.639 -11.569  0.00  0.00    -0.263 OA
ATOM      8  N   UNL     1       5.441   5.230  -8.283  0.00  0.00    -0.086 NA
ATOM      9  C   UNL     1       1.568   5.113  -9.453  0.00  0.00    +0.175 A 
ATOM     10  N   UNL     1       0.256   5.346  -9.602  0.00  0.00    -0.217 NA
ATOM     11  C   UNL     1      -0.280   5.538  -8.376  0.00  0.00    +0.180 A 
ENDROOT
BRANCH   1  14
ATOM     12  C   UNL     1      -1.497   5.900  -6.151  0.00  0.00    -0.007 C 
ATOM     13  C   UNL     1      -1.120   5.416  -5.796  0.00  0.00    -0.019 C 
ATOM     14  C   UNL     1       0.431   4.881  -5.979  0.00  0.00    +0.110 C 
ATOM     15  C   UNL     1       1.105   6.244  -5.313  0.00  0.00    +0.060 C 
ATOM     16  C   UNL     1      -0.108   6.743  -4.313  0.00  0.00    +0.160 C 
ATOM     17  O   UNL     1       0.728   6.477  -3.054  0.00  0.00    -0.223 OA
ATOM     18  C   UNL     1      -0.808   5.160  -4.237  0.00  0.00    +0.083 C 
BRANCH  18  19
ATOM     19  C   UNL     1      -2.256   5.754  -3.754  0.00  0.00    +0.189 C 
ATOM     20  O   UNL     1      -2.659   4.835  -2.803  0.00  0.00    -0.220 OA
ENDBRANCH  18  19
ENDBRANCH   1  14
TORSDOF 2
ENDMDL
MODEL 7
REMARK VINA RESULT:      -6.9      3.007      6.377
REMARK  Name = 
REMARK  2 active torsions:
REMARK  status: ('A' for Active; 'I' for Inactive)
REMARK    1  A    between atoms: C_3  and  C_4
REMARK    2  A    between atoms: C_9  and  N_10
REMARK                            x       y       z     vdW  Elec       q    Type
REMARK                         _______ _______ _______ _____ _____    ______ ____
ROOT
ATOM      1  N   UNL     1       3.399   5.330  -7.699  0.00  0.00    -0.292 N 
ATOM      2  C   UNL     1       2.227   5.052  -7.072  0.00  0.00    +0.171 A 
ATOM      3  N   UNL     1       0.938   5.116  -7.439  0.00  0.00    -0.192 NA
ATOM      4  C   UNL     1      -0.044   5.217  -6.506  0.00  0.00    +0.261 A 
ATOM      5  N   UNL     1       0.221   5.383  -5.187  0.00  0.00    -0.171 NA
ATOM      6  C   UNL     1       1.474   5.096  -4.758  0.00  0.00    +0.302 A 
ATOM      7  O   UNL     1       1.772   5.461  -3.581  0.00  0.00    -0.263 OA
ATOM      8  N   UNL     1      -1.416   5.106  -6.854  0.00  0.00    -0.086 NA
ATOM      9  C   UNL     1       2.463   4.969  -5.711  0.00  0.00    +0.175 A 
ATOM     10  N   UNL     1       3.777   5.198  -5.566  0.00  0.00    -0.217 NA
ATOM     11  C   UNL     1       4.306   5.410  -6.792  0.00  0.00    +0.180 A 
ENDROOT
BRANCH   1  14
ATOM     12  C   UNL     1       5.486   5.851  -9.037  0.00  0.00    -0.007 C 
ATOM     13  C   UNL     1       5.115   5.364  -9.393  0.00  0.00    -0.019 C 
ATOM     14  C   UNL     1       3.579   4.792  -9.195  0.00  0.00    +0.110 C 
ATOM     15  C   UNL     1       2.865   6.148  -9.833  0.00  0.00    +0.060 C 
ATOM     16  C   UNL     1       4.052   6.688 -10.843  0.00  0.00    +0.160 C 
ATOM     17  O   UNL     1       3.203   6.420 -12.094  0.00  0.00    -0.223 OA
ATOM     18  C   UNL     1       4.785   5.122 -10.951  0.00  0.00    +0.083 C 
BRANCH  18  19
ATOM     19  C   UNL     1       6.213   5.754 -11.447  0.00  0.00    +0.189 C 
ATOM     20  O   UNL     1       6.551   4.939 -12.512  0.00  0.00    -0.220 OA
ENDBRANCH  18  19
ENDBRANCH   1  14
TORSDOF 2
ENDMDL
MODEL 8
REMARK VINA RESULT:      -6.9      5.150      8.618
REMARK  Name = 
REMARK  2 active torsions:
REMARK  status: ('A' for Active; 'I' for Inactive)
REMARK    1  A    between atoms: C_3  and  C_4
REMARK    2  A    between atoms: C_9  and  N_10
REMARK                            x       y       z     vdW  Elec       q    Type
REMARK                         _______ _______ _______ _____ _____    ______ ____
ROOT
ATOM      1  N   UNL     1       1.697   5.496  -4.162  0.00  0.00    -0.292 N 
ATOM      2  C   UNL     1       0.777   5.287  -3.185  0.00  0.00    +0.171 A 
ATOM      3  N   UNL     1      -0.562   5.199  -3.173  0.00  0.00    -0.192 NA
ATOM      4  C   UNL     1      -1.261   5.435  -2.032  0.00  0.00    +0.261 A 
ATOM      5  N   UNL     1      -0.671   5.885  -0.898  0.00  0.00    -0.171 NA
ATOM      6  C   UNL     1       0.675   5.765  -0.801  0.00  0.00    +0.302 A 
ATOM      7  O   UNL     1       1.237   6.382   0.153  0.00  0.00    -0.263 OA
ATOM      8  N   UNL     1      -2.655   5.176  -1.946  0.00  0.00    -0.086 NA
ATOM      9  C   UNL     1       1.379   5.501  -1.958  0.00  0.00    +0.175 A 
ATOM     10  N   UNL     1       2.648   5.830  -2.240  0.00  0.00    -0.217 NA
ATOM     11  C   UNL     1       2.800   5.813  -3.583  0.00  0.00    +0.180 A 
ENDROOT
BRANCH   1  14
ATOM     12  C   UNL     1       3.336   5.770  -6.074  0.00  0.00    -0.007 C 
ATOM     13  C   UNL     1       2.920   5.215  -6.221  0.00  0.00    -0.019 C 
ATOM     14  C   UNL     1       1.527   4.671  -5.522  0.00  0.00    +0.110 C 
ATOM     15  C   UNL     1       0.585   5.861  -6.196  0.00  0.00    +0.060 C 
ATOM     16  C   UNL     1       1.438   6.205  -7.565  0.00  0.00    +0.160 C 
ATOM     17  O   UNL     1       0.319   5.679  -8.475  0.00  0.00    -0.223 OA
ATOM     18  C   UNL     1       2.223   4.660  -7.562  0.00  0.00    +0.083 C 
BRANCH  18  19
ATOM     19  C   UNL     1       3.432   5.202  -8.526  0.00  0.00    +0.189 C 
ATOM     20  O   UNL     1       3.898   4.039  -9.111  0.00  0.00    -0.220 OA
ENDBRANCH  18  19
ENDBRANCH   1  14
TORSDOF 2
ENDMDL
MODEL 9
REMARK VINA RESULT:      -6.7      2.689      3.774
REMARK  Name = 
REMARK  2 active torsions:
REMARK  status: ('A' for Active; 'I' for Inactive)
REMARK    1  A    between atoms: C_3  and  C_4
REMARK    2  A    between atoms: C_9  and  N_10
REMARK                            x       y       z     vdW  Elec       q    Type
REMARK                         _______ _______ _______ _____ _____    ______ ____
ROOT
ATOM      1  N   UNL     1       1.638   5.892 -10.601  0.00  0.00    -0.292 N 
ATOM      2  C   UNL     1       2.326   5.549 -11.721  0.00  0.00    +0.171 A 
ATOM      3  N   UNL     1       3.610   5.659 -12.093  0.00  0.00    -0.192 NA
ATOM      4  C   UNL     1       3.953   5.659 -13.408  0.00  0.00    +0.261 A 
ATOM      5  N   UNL     1       3.030   5.675 -14.400  0.00  0.00    -0.171 NA
ATOM      6  C   UNL     1       1.757   5.337 -14.079  0.00  0.00    +0.302 A 
ATOM      7  O   UNL     1       0.868   5.567 -14.951  0.00  0.00    -0.263 OA
ATOM      8  N   UNL     1       5.309   5.593 -13.824  0.00  0.00    -0.086 NA
ATOM      9  C   UNL     1       1.420   5.314 -12.741  0.00  0.00    +0.175 A 
ATOM     10  N   UNL     1       0.213   5.520 -12.195  0.00  0.00    -0.217 NA
ATOM     11  C   UNL     1       0.389   5.866 -10.900  0.00  0.00    +0.180 A 
ENDROOT
BRANCH   1  14
ATOM     12  C   UNL     1       0.223   5.659  -8.513  0.00  0.00    -0.007 C 
ATOM     13  C   UNL     1       0.873   5.421  -8.363  0.00  0.00    -0.019 C 
ATOM     14  C   UNL     1       2.298   5.523  -9.192  0.00  0.00    +0.110 C 
ATOM     15  C   UNL     1       2.537   7.123  -8.818  0.00  0.00    +0.060 C 
ATOM     16  C   UNL     1       1.722   7.241  -7.388  0.00  0.00    +0.160 C 
ATOM     17  O   UNL     1       3.010   7.515  -6.599  0.00  0.00    -0.223 OA
ATOM     18  C   UNL     1       1.845   5.540  -7.084  0.00  0.00    +0.083 C 
BRANCH  18  19
ATOM     19  C   UNL     1       0.596   5.576  -6.024  0.00  0.00    +0.189 C 
ATOM     20  O   UNL     1       1.009   4.695  -5.040  0.00  0.00    -0.220 OA
ENDBRANCH  18  19
ENDBRANCH   1  14
TORSDOF 2
ENDMDL
