MODEL 1
REMARK VINA RESULT:      -9.8      0.000      0.000
REMARK  Name = 
REMARK  7 active torsions:
REMARK  status: ('A' for Active; 'I' for Inactive)
REMARK    1  A    between atoms: C_5  and  C_6
REMARK    2  A    between atoms: N_8  and  C_9
REMARK    3  A    between atoms: C_9  and  C_10
REMARK    4  A    between atoms: C_10  and  C_11
REMARK    5  A    between atoms: C_14  and  S_15
REMARK    6  A    between atoms: S_15  and  N_18
REMARK    7  A    between atoms: N_21  and  C_22
REMARK                            x       y       z     vdW  Elec       q    Type
REMARK                         _______ _______ _______ _____ _____    ______ ____
ROOT
ATOM      1  C   UNL     1       4.479   6.757  -2.976  0.00  0.00    -0.020 A 
ATOM      2  C   UNL     1       4.782   7.438  -4.149  0.00  0.00    -0.003 A 
ATOM      3  C   UNL     1       4.599   6.835  -5.388  0.00  0.00    +0.020 A 
ATOM      4  C   UNL     1       4.068   5.555  -5.495  0.00  0.00    +0.129 A 
ATOM      5  C   UNL     1       4.169   4.781  -4.344  0.00  0.00    +0.020 A 
ATOM      6  C   UNL     1       4.391   5.375  -3.107  0.00  0.00    -0.003 A 
ENDROOT
BRANCH   4   7
ATOM      7  S   UNL     1       2.945   5.147  -6.787  0.00  0.00    +0.104 S 
ATOM      8  O   UNL     1       1.735   6.052  -6.724  0.00  0.00    -0.146 OA
ATOM      9  O   UNL     1       2.439   3.747  -6.662  0.00  0.00    -0.146 OA
BRANCH   7  10
ATOM     10  N   UNL     1       3.729   5.449  -8.282  0.00  0.00    -0.071 NA
ATOM     11  C   UNL     1       3.358   4.935  -9.402  0.00  0.00    +0.371 C 
ATOM     12  N   UNL     1       4.163   5.195 -10.540  0.00  0.00    -0.185 NA
ATOM     13  O   UNL     1       2.012   4.566  -9.495  0.00  0.00    -0.244 OA
BRANCH  12  14
ATOM     14  C   UNL     1       5.408   5.957 -10.472  0.00  0.00    +0.097 C 
ATOM     15  C   UNL     1       5.170   7.410 -10.865  0.00  0.00    +0.022 C 
ATOM     16  C   UNL     1       6.523   7.992 -11.257  0.00  0.00    +0.002 C 
ATOM     17  C   UNL     1       7.641   7.259 -10.560  0.00  0.00    +0.000 C 
ATOM     18  C   UNL     1       7.800   5.882 -11.192  0.00  0.00    +0.002 C 
ATOM     19  C   UNL     1       6.394   5.369 -11.467  0.00  0.00    +0.022 C 
ENDBRANCH  12  14
ENDBRANCH   7  10
ENDBRANCH   4   7
BRANCH   1  20
ATOM     20  C   UNL     1       3.822   7.472  -1.838  0.00  0.00    +0.050 C 
BRANCH  20  21
ATOM     21  C   UNL     1       3.518   6.549  -0.683  0.00  0.00    +0.120 C 
BRANCH  21  23
ATOM     22  C   UNL     1       1.419   5.162  -0.944  0.00  0.00    +0.284 C 
ATOM     23  N   UNL     1       2.067   6.386  -0.651  0.00  0.00    -0.200 NA
ATOM     24  O   UNL     1       2.063   4.105  -0.668  0.00  0.00    -0.267 OA
BRANCH  22  29
ATOM     25  C   UNL     1      -2.038   7.806  -3.753  0.00  0.00    +0.054 C 
ATOM     26  C   UNL     1      -1.442   6.456  -3.502  0.00  0.00    +0.079 A 
ATOM     27  N   UNL     1      -0.243   6.096  -4.024  0.00  0.00    -0.245 NA
ATOM     28  C   UNL     1       0.619   5.337  -3.304  0.00  0.00    +0.122 A 
ATOM     29  C   UNL     1       0.373   5.032  -1.969  0.00  0.00    +0.155 A 
ATOM     30  N   UNL     1      -0.934   5.089  -1.613  0.00  0.00    -0.236 NA
ATOM     31  C   UNL     1      -1.847   5.685  -2.419  0.00  0.00    +0.114 A 
ENDBRANCH  22  29
ENDBRANCH  21  23
ENDBRANCH  20  21
ENDBRANCH   1  20
TORSDOF 7
ENDMDL
MODEL 2
REMARK VINA RESULT:      -9.5      1.869      9.165
REMARK  Name = 
REMARK  7 active torsions:
REMARK  status: ('A' for Active; 'I' for Inactive)
REMARK    1  A    between atoms: C_5  and  C_6
REMARK    2  A    between atoms: N_8  and  C_9
REMARK    3  A    between atoms: C_9  and  C_10
REMARK    4  A    between atoms: C_10  and  C_11
REMARK    5  A    between atoms: C_14  and  S_15
REMARK    6  A    between atoms: S_15  and  N_18
REMARK    7  A    between atoms: N_21  and  C_22
REMARK                            x       y       z     vdW  Elec       q    Type
REMARK                         _______ _______ _______ _____ _____    ______ ____
ROOT
ATOM      1  C   UNL     1       4.403   6.063  -5.290  0.00  0.00    -0.020 A 
ATOM      2  C   UNL     1       4.465   4.998  -4.400  0.00  0.00    -0.003 A 
ATOM      3  C   UNL     1       4.431   5.216  -3.028  0.00  0.00    +0.020 A 
ATOM      4  C   UNL     1       4.289   6.496  -2.505  0.00  0.00    +0.129 A 
ATOM      5  C   UNL     1       4.640   7.525  -3.373  0.00  0.00    +0.020 A 
ATOM      6  C   UNL     1       4.714   7.303  -4.743  0.00  0.00    -0.003 A 
ENDROOT
BRANCH   4   7
ATOM      7  S   UNL     1       3.297   6.786  -1.081  0.00  0.00    +0.104 S 
ATOM      8  O   UNL     1       3.235   8.268  -0.788  0.00  0.00    -0.146 OA
ATOM      9  O   UNL     1       3.867   6.133   0.135  0.00  0.00    -0.146 OA
BRANCH   7  10
ATOM     10  N   UNL     1       1.700   6.272  -1.437  0.00  0.00    -0.071 NA
ATOM     11  C   UNL     1       1.322   5.042  -1.415  0.00  0.00    +0.371 C 
ATOM     12  N   UNL     1      -0.004   4.757  -1.831  0.00  0.00    -0.185 NA
ATOM     13  O   UNL     1       2.058   4.186  -0.590  0.00  0.00    -0.244 OA
BRANCH  12  14
ATOM     14  C   UNL     1      -0.914   5.783  -2.332  0.00  0.00    +0.097 C 
ATOM     15  C   UNL     1      -2.295   5.628  -1.706  0.00  0.00    +0.022 C 
ATOM     16  C   UNL     1      -3.278   6.359  -2.611  0.00  0.00    +0.002 C 
ATOM     17  C   UNL     1      -2.585   7.461  -3.372  0.00  0.00    +0.000 C 
ATOM     18  C   UNL     1      -1.709   6.839  -4.453  0.00  0.00    +0.002 C 
ATOM     19  C   UNL     1      -1.070   5.606  -3.832  0.00  0.00    +0.022 C 
ENDBRANCH  12  14
ENDBRANCH   7  10
ENDBRANCH   4   7
BRANCH   1  20
ATOM     20  C   UNL     1       3.598   5.949  -6.547  0.00  0.00    +0.050 C 
BRANCH  20  21
ATOM     21  C   UNL     1       4.407   5.393  -7.694  0.00  0.00    +0.120 C 
BRANCH  21  23
ATOM     22  C   UNL     1       3.896   6.025 -10.088  0.00  0.00    +0.284 C 
ATOM     23  N   UNL     1       4.313   6.366  -8.779  0.00  0.00    -0.200 NA
ATOM     24  O   UNL     1       3.076   5.063 -10.185  0.00  0.00    -0.267 OA
BRANCH  22  29
ATOM     25  C   UNL     1       8.642   5.678 -12.135  0.00  0.00    +0.054 C 
ATOM     26  C   UNL     1       7.225   6.085 -12.394  0.00  0.00    +0.079 A 
ATOM     27  N   UNL     1       6.264   5.177 -12.694  0.00  0.00    -0.245 NA
ATOM     28  C   UNL     1       5.005   5.325 -12.214  0.00  0.00    +0.122 A 
ATOM     29  C   UNL     1       4.697   6.315 -11.287  0.00  0.00    +0.155 A 
ATOM     30  N   UNL     1       5.543   7.374 -11.295  0.00  0.00    -0.236 NA
ATOM     31  C   UNL     1       6.736   7.303 -11.937  0.00  0.00    +0.114 A 
ENDBRANCH  22  29
ENDBRANCH  21  23
ENDBRANCH  20  21
ENDBRANCH   1  20
TORSDOF 7
ENDMDL
MODEL 3
REMARK VINA RESULT:      -9.3      2.569      8.073
REMARK  Name = 
REMARK  7 active torsions:
REMARK  status: ('A' for Active; 'I' for Inactive)
REMARK    1  A    between atoms: C_5  and  C_6
REMARK    2  A    between atoms: N_8  and  C_9
REMARK    3  A    between atoms: C_9  and  C_10
REMARK    4  A    between atoms: C_10  and  C_11
REMARK    5  A    between atoms: C_14  and  S_15
REMARK    6  A    between atoms: S_15  and  N_18
REMARK    7  A    between atoms: N_21  and  C_22
REMARK                            x       y       z     vdW  Elec       q    Type
REMARK                         _______ _______ _______ _____ _____    ______ ____
ROOT
ATOM      1  C   UNL     1       4.566   6.137  -5.318  0.00  0.00    -0.020 A 
ATOM      2  C   UNL     1       4.514   5.029  -4.481  0.00  0.00    -0.003 A 
ATOM      3  C   UNL     1       4.436   5.185  -3.102  0.00  0.00    +0.020 A 
ATOM      4  C   UNL     1       4.364   6.445  -2.522  0.00  0.00    +0.129 A 
ATOM      5  C   UNL     1       4.825   7.485  -3.322  0.00  0.00    +0.020 A 
ATOM      6  C   UNL     1       4.942   7.324  -4.697  0.00  0.00    -0.003 A 
ENDROOT
BRANCH   4   7
ATOM      7  S   UNL     1       3.335   6.740  -1.124  0.00  0.00    +0.104 S 
ATOM      8  O   UNL     1       3.301   8.219  -0.812  0.00  0.00    -0.146 OA
ATOM      9  O   UNL     1       3.851   6.056   0.099  0.00  0.00    -0.146 OA
BRANCH   7  10
ATOM     10  N   UNL     1       1.738   6.270  -1.536  0.00  0.00    -0.071 NA
ATOM     11  C   UNL     1       1.308   5.059  -1.467  0.00  0.00    +0.371 C 
ATOM     12  N   UNL     1      -0.006   4.804  -1.938  0.00  0.00    -0.185 NA
ATOM     13  O   UNL     1       1.962   4.224  -0.557  0.00  0.00    -0.244 OA
BRANCH  12  14
ATOM     14  C   UNL     1      -0.844   5.836  -2.544  0.00  0.00    +0.097 C 
ATOM     15  C   UNL     1      -2.300   5.654  -2.132  0.00  0.00    +0.022 C 
ATOM     16  C   UNL     1      -3.148   6.399  -3.155  0.00  0.00    +0.002 C 
ATOM     17  C   UNL     1      -2.363   7.525  -3.779  0.00  0.00    +0.000 C 
ATOM     18  C   UNL     1      -1.330   6.938  -4.733  0.00  0.00    +0.002 C 
ATOM     19  C   UNL     1      -0.775   5.695  -4.054  0.00  0.00    +0.022 C 
ENDBRANCH  12  14
ENDBRANCH   7  10
ENDBRANCH   4   7
BRANCH   1  20
ATOM     20  C   UNL     1       3.810   6.142  -6.609  0.00  0.00    +0.050 C 
BRANCH  20  21
ATOM     21  C   UNL     1       2.443   6.768  -6.467  0.00  0.00    +0.120 C 
BRANCH  21  23
ATOM     22  C   UNL     1       1.062   6.092  -8.475  0.00  0.00    +0.284 C 
ATOM     23  N   UNL     1       1.943   6.987  -7.822  0.00  0.00    -0.200 NA
ATOM     24  O   UNL     1       0.269   5.441  -7.731  0.00  0.00    -0.267 OA
BRANCH  22  29
ATOM     25  C   UNL     1       0.718   6.873 -13.584  0.00  0.00    +0.054 C 
ATOM     26  C   UNL     1       1.206   5.941 -12.520  0.00  0.00    +0.079 A 
ATOM     27  N   UNL     1       2.367   6.162 -11.853  0.00  0.00    -0.245 NA
ATOM     28  C   UNL     1       2.464   5.878 -10.531  0.00  0.00    +0.122 A 
ATOM     29  C   UNL     1       1.350   5.499  -9.789  0.00  0.00    +0.155 A 
ATOM     30  N   UNL     1       0.346   4.958 -10.522  0.00  0.00    -0.236 NA
ATOM     31  C   UNL     1       0.334   5.074 -11.873  0.00  0.00    +0.114 A 
ENDBRANCH  22  29
ENDBRANCH  21  23
ENDBRANCH  20  21
ENDBRANCH   1  20
TORSDOF 7
ENDMDL
MODEL 4
REMARK VINA RESULT:      -9.2      2.365      8.044
REMARK  Name = 
REMARK  7 active torsions:
REMARK  status: ('A' for Active; 'I' for Inactive)
REMARK    1  A    between atoms: C_5  and  C_6
REMARK    2  A    between atoms: N_8  and  C_9
REMARK    3  A    between atoms: C_9  and  C_10
REMARK    4  A    between atoms: C_10  and  C_11
REMARK    5  A    between atoms: C_14  and  S_15
REMARK    6  A    between atoms: S_15  and  N_18
REMARK    7  A    between atoms: N_21  and  C_22
REMARK                            x       y       z     vdW  Elec       q    Type
REMARK                         _______ _______ _______ _____ _____    ______ ____
ROOT
ATOM      1  C   UNL     1      -1.481   5.857  -6.307  0.00  0.00    -0.020 A 
ATOM      2  C   UNL     1      -0.825   6.996  -5.857  0.00  0.00    -0.003 A 
ATOM      3  C   UNL     1      -0.898   7.375  -4.521  0.00  0.00    +0.020 A 
ATOM      4  C   UNL     1      -1.588   6.608  -3.591  0.00  0.00    +0.129 A 
ATOM      5  C   UNL     1      -2.539   5.748  -4.131  0.00  0.00    +0.020 A 
ATOM      6  C   UNL     1      -2.495   5.396  -5.474  0.00  0.00    -0.003 A 
ENDROOT
BRANCH   4   7
ATOM      7  S   UNL     1      -0.967   6.391  -1.958  0.00  0.00    +0.104 S 
ATOM      8  O   UNL     1      -1.417   5.057  -1.408  0.00  0.00    -0.146 OA
ATOM      9  O   UNL     1      -1.485   7.435  -1.024  0.00  0.00    -0.146 OA
BRANCH   7  10
ATOM     10  N   UNL     1       0.745   6.354  -2.046  0.00  0.00    -0.071 NA
ATOM     11  C   UNL     1       1.518   6.500  -1.027  0.00  0.00    +0.371 C 
ATOM     12  N   UNL     1       2.915   6.549  -1.267  0.00  0.00    -0.185 NA
ATOM     13  O   UNL     1       0.973   6.154   0.214  0.00  0.00    -0.244 OA
BRANCH  12  14
ATOM     14  C   UNL     1       3.490   6.503  -2.609  0.00  0.00    +0.097 C 
ATOM     15  C   UNL     1       3.949   5.090  -2.948  0.00  0.00    +0.022 C 
ATOM     16  C   UNL     1       4.955   5.211  -4.086  0.00  0.00    +0.002 C 
ATOM     17  C   UNL     1       4.700   6.458  -4.894  0.00  0.00    +0.000 C 
ATOM     18  C   UNL     1       5.136   7.671  -4.082  0.00  0.00    +0.002 C 
ATOM     19  C   UNL     1       4.713   7.402  -2.646  0.00  0.00    +0.022 C 
ENDBRANCH  12  14
ENDBRANCH   7  10
ENDBRANCH   4   7
BRANCH   1  20
ATOM     20  C   UNL     1      -0.825   4.954  -7.304  0.00  0.00    +0.050 C 
BRANCH  20  21
ATOM     21  C   UNL     1       0.154   5.693  -8.185  0.00  0.00    +0.120 C 
BRANCH  21  23
ATOM     22  C   UNL     1       2.674   5.899  -8.139  0.00  0.00    +0.284 C 
ATOM     23  N   UNL     1       1.483   5.194  -7.841  0.00  0.00    -0.200 NA
ATOM     24  O   UNL     1       2.588   7.163  -8.165  0.00  0.00    -0.267 OA
BRANCH  22  29
ATOM     25  C   UNL     1       6.980   7.009 -10.796  0.00  0.00    +0.054 C 
ATOM     26  C   UNL     1       6.111   5.905 -10.281  0.00  0.00    +0.079 A 
ATOM     27  N   UNL     1       6.170   5.490  -8.992  0.00  0.00    -0.245 NA
ATOM     28  C   UNL     1       5.041   5.128  -8.334  0.00  0.00    +0.122 A 
ATOM     29  C   UNL     1       3.784   5.310  -8.901  0.00  0.00    +0.155 A 
ATOM     30  N   UNL     1       3.784   5.372 -10.256  0.00  0.00    -0.236 NA
ATOM     31  C   UNL     1       4.941   5.548 -10.942  0.00  0.00    +0.114 A 
ENDBRANCH  22  29
ENDBRANCH  21  23
ENDBRANCH  20  21
ENDBRANCH   1  20
TORSDOF 7
ENDMDL
MODEL 5
REMARK VINA RESULT:      -9.1      2.925      8.041
REMARK  Name = 
REMARK  7 active torsions:
REMARK  status: ('A' for Active; 'I' for Inactive)
REMARK    1  A    between atoms: C_5  and  C_6
REMARK    2  A    between atoms: N_8  and  C_9
REMARK    3  A    between atoms: C_9  and  C_10
REMARK    4  A    between atoms: C_10  and  C_11
REMARK    5  A    between atoms: C_14  and  S_15
REMARK    6  A    between atoms: S_15  and  N_18
REMARK    7  A    between atoms: N_21  and  C_22
REMARK                            x       y       z     vdW  Elec       q    Type
REMARK                         _______ _______ _______ _____ _____    ______ ____
ROOT
ATOM      1  C   UNL     1      -2.132   6.230  -5.201  0.00  0.00    -0.020 A 
ATOM      2  C   UNL     1      -1.957   7.553  -4.812  0.00  0.00    -0.003 A 
ATOM      3  C   UNL     1      -1.999   7.910  -3.469  0.00  0.00    +0.020 A 
ATOM      4  C   UNL     1      -2.172   6.954  -2.475  0.00  0.00    +0.129 A 
ATOM      5  C   UNL     1      -2.740   5.760  -2.904  0.00  0.00    +0.020 A 
ATOM      6  C   UNL     1      -2.737   5.415  -4.250  0.00  0.00    -0.003 A 
ENDROOT
BRANCH   4   7
ATOM      7  S   UNL     1      -1.301   7.068  -0.949  0.00  0.00    +0.104 S 
ATOM      8  O   UNL     1      -1.802   6.015   0.012  0.00  0.00    -0.146 OA
ATOM      9  O   UNL     1      -1.514   8.389  -0.286  0.00  0.00    -0.146 OA
BRANCH   7  10
ATOM     10  N   UNL     1       0.352   6.729  -1.259  0.00  0.00    -0.071 NA
ATOM     11  C   UNL     1       1.287   6.871  -0.387  0.00  0.00    +0.371 C 
ATOM     12  N   UNL     1       2.621   6.650  -0.816  0.00  0.00    -0.185 NA
ATOM     13  O   UNL     1       0.899   6.785   0.954  0.00  0.00    -0.244 OA
BRANCH  12  14
ATOM     14  C   UNL     1       2.965   6.335  -2.200  0.00  0.00    +0.097 C 
ATOM     15  C   UNL     1       3.717   5.011  -2.279  0.00  0.00    +0.022 C 
ATOM     16  C   UNL     1       4.461   5.001  -3.608  0.00  0.00    +0.002 C 
ATOM     17  C   UNL     1       3.763   5.876  -4.618  0.00  0.00    +0.000 C 
ATOM     18  C   UNL     1       3.991   7.337  -4.247  0.00  0.00    +0.002 C 
ATOM     19  C   UNL     1       3.889   7.417  -2.731  0.00  0.00    +0.022 C 
ENDBRANCH  12  14
ENDBRANCH   7  10
ENDBRANCH   4   7
BRANCH   1  20
ATOM     20  C   UNL     1      -1.302   5.653  -6.303  0.00  0.00    +0.050 C 
BRANCH  20  21
ATOM     21  C   UNL     1       0.177   5.810  -6.045  0.00  0.00    +0.120 C 
BRANCH  21  23
ATOM     22  C   UNL     1       1.719   5.475  -8.021  0.00  0.00    +0.284 C 
ATOM     23  N   UNL     1       0.862   4.963  -7.019  0.00  0.00    -0.200 NA
ATOM     24  O   UNL     1       2.343   6.542  -7.737  0.00  0.00    -0.267 OA
BRANCH  22  29
ATOM     25  C   UNL     1       0.051   7.473 -12.500  0.00  0.00    +0.054 C 
ATOM     26  C   UNL     1       0.688   6.283 -11.854  0.00  0.00    +0.079 A 
ATOM     27  N   UNL     1       2.008   6.257 -11.546  0.00  0.00    -0.245 NA
ATOM     28  C   UNL     1       2.436   5.661 -10.407  0.00  0.00    +0.122 A 
ATOM     29  C   UNL     1       1.537   5.194  -9.453  0.00  0.00    +0.155 A 
ATOM     30  N   UNL     1       0.302   4.914  -9.937  0.00  0.00    -0.236 NA
ATOM     31  C   UNL     1      -0.077   5.349 -11.164  0.00  0.00    +0.114 A 
ENDBRANCH  22  29
ENDBRANCH  21  23
ENDBRANCH  20  21
ENDBRANCH   1  20
TORSDOF 7
ENDMDL
MODEL 6
REMARK VINA RESULT:      -9.1      2.986      9.793
REMARK  Name = 
REMARK  7 active torsions:
REMARK  status: ('A' for Active; 'I' for Inactive)
REMARK    1  A    between atoms: C_5  and  C_6
REMARK    2  A    between atoms: N_8  and  C_9
REMARK    3  A    between atoms: C_9  and  C_10
REMARK    4  A    between atoms: C_10  and  C_11
REMARK    5  A    between atoms: C_14  and  S_15
REMARK    6  A    between atoms: S_15  and  N_18
REMARK    7  A    between atoms: N_21  and  C_22
REMARK                            x       y       z     vdW  Elec       q    Type
REMARK                         _______ _______ _______ _____ _____    ______ ____
ROOT
ATOM      1  C   UNL     1       0.419   6.029 -12.444  0.00  0.00    -0.020 A 
ATOM      2  C   UNL     1       0.319   6.961 -11.417  0.00  0.00    -0.003 A 
ATOM      3  C   UNL     1       0.486   6.577 -10.091  0.00  0.00    +0.020 A 
ATOM      4  C   UNL     1       0.800   5.265  -9.755  0.00  0.00    +0.129 A 
ATOM      5  C   UNL     1       0.488   4.321 -10.727  0.00  0.00    +0.020 A 
ATOM      6  C   UNL     1       0.281   4.703 -12.047  0.00  0.00    -0.003 A 
ENDROOT
BRANCH   4   7
ATOM      7  S   UNL     1       1.927   4.911  -8.451  0.00  0.00    +0.104 S 
ATOM      8  O   UNL     1       3.116   5.842  -8.530  0.00  0.00    -0.146 OA
ATOM      9  O   UNL     1       2.464   3.521  -8.543  0.00  0.00    -0.146 OA
BRANCH   7  10
ATOM     10  N   UNL     1       1.131   5.229  -6.965  0.00  0.00    -0.071 NA
ATOM     11  C   UNL     1       1.518   4.759  -5.831  0.00  0.00    +0.371 C 
ATOM     12  N   UNL     1       0.702   5.024  -4.701  0.00  0.00    -0.185 NA
ATOM     13  O   UNL     1       2.875   4.439  -5.727  0.00  0.00    -0.244 OA
BRANCH  12  14
ATOM     14  C   UNL     1      -0.567   5.741  -4.791  0.00  0.00    +0.097 C 
ATOM     15  C   UNL     1      -0.329   7.240  -4.927  0.00  0.00    +0.022 C 
ATOM     16  C   UNL     1      -1.619   7.935  -4.513  0.00  0.00    +0.002 C 
ATOM     17  C   UNL     1      -2.807   7.034  -4.737  0.00  0.00    +0.000 C 
ATOM     18  C   UNL     1      -2.798   5.933  -3.682  0.00  0.00    +0.002 C 
ATOM     19  C   UNL     1      -1.346   5.516  -3.507  0.00  0.00    +0.022 C 
ENDBRANCH  12  14
ENDBRANCH   7  10
ENDBRANCH   4   7
BRANCH   1  20
ATOM     20  C   UNL     1       1.105   6.389 -13.724  0.00  0.00    +0.050 C 
BRANCH  20  21
ATOM     21  C   UNL     1       2.048   5.307 -14.190  0.00  0.00    +0.120 C 
BRANCH  21  23
ATOM     22  C   UNL     1       4.529   5.501 -13.741  0.00  0.00    +0.284 C 
ATOM     23  N   UNL     1       3.349   5.943 -14.384  0.00  0.00    -0.200 NA
ATOM     24  O   UNL     1       4.595   4.263 -13.475  0.00  0.00    -0.267 OA
BRANCH  22  29
ATOM     25  C   UNL     1       7.524   5.699  -9.519  0.00  0.00    +0.054 C 
ATOM     26  C   UNL     1       7.016   6.472 -10.695  0.00  0.00    +0.079 A 
ATOM     27  N   UNL     1       7.555   6.331 -11.931  0.00  0.00    -0.245 NA
ATOM     28  C   UNL     1       6.765   6.360 -13.032  0.00  0.00    +0.122 A 
ATOM     29  C   UNL     1       5.378   6.383 -12.926  0.00  0.00    +0.155 A 
ATOM     30  N   UNL     1       4.913   6.874 -11.751  0.00  0.00    -0.236 NA
ATOM     31  C   UNL     1       5.741   7.028 -10.688  0.00  0.00    +0.114 A 
ENDBRANCH  22  29
ENDBRANCH  21  23
ENDBRANCH  20  21
ENDBRANCH   1  20
TORSDOF 7
ENDMDL
MODEL 7
REMARK VINA RESULT:      -8.9      2.038      4.089
REMARK  Name = 
REMARK  7 active torsions:
REMARK  status: ('A' for Active; 'I' for Inactive)
REMARK    1  A    between atoms: C_5  and  C_6
REMARK    2  A    between atoms: N_8  and  C_9
REMARK    3  A    between atoms: C_9  and  C_10
REMARK    4  A    between atoms: C_10  and  C_11
REMARK    5  A    between atoms: C_14  and  S_15
REMARK    6  A    between atoms: S_15  and  N_18
REMARK    7  A    between atoms: N_21  and  C_22
REMARK                            x       y       z     vdW  Elec       q    Type
REMARK                         _______ _______ _______ _____ _____    ______ ____
ROOT
ATOM      1  C   UNL     1      -1.841   5.850  -5.495  0.00  0.00    -0.020 A 
ATOM      2  C   UNL     1      -1.278   5.351  -6.663  0.00  0.00    -0.003 A 
ATOM      3  C   UNL     1       0.031   5.666  -7.012  0.00  0.00    +0.020 A 
ATOM      4  C   UNL     1       0.828   6.449  -6.185  0.00  0.00    +0.129 A 
ATOM      5  C   UNL     1       0.131   7.241  -5.279  0.00  0.00    +0.020 A 
ATOM      6  C   UNL     1      -1.190   6.955  -4.956  0.00  0.00    -0.003 A 
ENDROOT
BRANCH   4   7
ATOM      7  S   UNL     1       2.539   6.092  -5.976  0.00  0.00    +0.104 S 
ATOM      8  O   UNL     1       2.706   4.839  -5.148  0.00  0.00    -0.146 OA
ATOM      9  O   UNL     1       3.249   7.185  -5.247  0.00  0.00    -0.146 OA
BRANCH   7  10
ATOM     10  N   UNL     1       3.204   5.771  -7.524  0.00  0.00    -0.071 NA
ATOM     11  C   UNL     1       3.308   4.592  -8.028  0.00  0.00    +0.371 C 
ATOM     12  N   UNL     1       3.972   4.470  -9.276  0.00  0.00    -0.185 NA
ATOM     13  O   UNL     1       2.401   3.638  -7.556  0.00  0.00    -0.244 OA
BRANCH  12  14
ATOM     14  C   UNL     1       4.584   5.606  -9.961  0.00  0.00    +0.097 C 
ATOM     15  C   UNL     1       4.273   5.563 -11.453  0.00  0.00    +0.022 C 
ATOM     16  C   UNL     1       5.315   6.431 -12.149  0.00  0.00    +0.002 C 
ATOM     17  C   UNL     1       5.838   7.490 -11.212  0.00  0.00    +0.000 C 
ATOM     18  C   UNL     1       6.749   6.833 -10.182  0.00  0.00    +0.002 C 
ATOM     19  C   UNL     1       6.091   5.514  -9.805  0.00  0.00    +0.022 C 
ENDBRANCH  12  14
ENDBRANCH   7  10
ENDBRANCH   4   7
BRANCH   1  20
ATOM     20  C   UNL     1      -2.723   4.982  -4.654  0.00  0.00    +0.050 C 
BRANCH  20  21
ATOM     21  C   UNL     1      -3.379   5.752  -3.533  0.00  0.00    +0.120 C 
BRANCH  21  23
ATOM     22  C   UNL     1      -2.004   6.021  -1.428  0.00  0.00    +0.284 C 
ATOM     23  N   UNL     1      -2.812   5.240  -2.289  0.00  0.00    -0.200 NA
ATOM     24  O   UNL     1      -2.240   7.267  -1.414  0.00  0.00    -0.267 OA
BRANCH  22  29
ATOM     25  C   UNL     1       3.038   7.140  -1.829  0.00  0.00    +0.054 C 
ATOM     26  C   UNL     1       2.032   6.242  -1.179  0.00  0.00    +0.079 A 
ATOM     27  N   UNL     1       1.309   6.639  -0.103  0.00  0.00    -0.245 NA
ATOM     28  C   UNL     1       0.011   6.272   0.026  0.00  0.00    +0.122 A 
ATOM     29  C   UNL     1      -0.659   5.612  -0.999  0.00  0.00    +0.155 A 
ATOM     30  N   UNL     1       0.149   4.940  -1.855  0.00  0.00    -0.236 NA
ATOM     31  C   UNL     1       1.487   5.163  -1.865  0.00  0.00    +0.114 A 
ENDBRANCH  22  29
ENDBRANCH  21  23
ENDBRANCH  20  21
ENDBRANCH   1  20
TORSDOF 7
ENDMDL
MODEL 8
REMARK VINA RESULT:      -8.9      3.301      5.956
REMARK  Name = 
REMARK  7 active torsions:
REMARK  status: ('A' for Active; 'I' for Inactive)
REMARK    1  A    between atoms: C_5  and  C_6
REMARK    2  A    between atoms: N_8  and  C_9
REMARK    3  A    between atoms: C_9  and  C_10
REMARK    4  A    between atoms: C_10  and  C_11
REMARK    5  A    between atoms: C_14  and  S_15
REMARK    6  A    between atoms: S_15  and  N_18
REMARK    7  A    between atoms: N_21  and  C_22
REMARK                            x       y       z     vdW  Elec       q    Type
REMARK                         _______ _______ _______ _____ _____    ______ ____
ROOT
ATOM      1  C   UNL     1       0.148   5.667  -9.960  0.00  0.00    -0.020 A 
ATOM      2  C   UNL     1       0.156   4.596 -10.845  0.00  0.00    -0.003 A 
ATOM      3  C   UNL     1       0.199   4.809 -12.218  0.00  0.00    +0.020 A 
ATOM      4  C   UNL     1       0.278   6.093 -12.746  0.00  0.00    +0.129 A 
ATOM      5  C   UNL     1      -0.140   7.105 -11.889  0.00  0.00    +0.020 A 
ATOM      6  C   UNL     1      -0.223   6.886 -10.519  0.00  0.00    -0.003 A 
ENDROOT
BRANCH   4   7
ATOM      7  S   UNL     1       1.274   6.430 -14.158  0.00  0.00    +0.104 S 
ATOM      8  O   UNL     1       1.223   7.905 -14.485  0.00  0.00    -0.146 OA
ATOM      9  O   UNL     1       0.784   5.705 -15.368  0.00  0.00    -0.146 OA
BRANCH   7  10
ATOM     10  N   UNL     1       2.899   6.053 -13.759  0.00  0.00    -0.071 NA
ATOM     11  C   UNL     1       3.385   4.861 -13.783  0.00  0.00    +0.371 C 
ATOM     12  N   UNL     1       4.718   4.689 -13.330  0.00  0.00    -0.185 NA
ATOM     13  O   UNL     1       2.753   3.956 -14.641  0.00  0.00    -0.244 OA
BRANCH  12  14
ATOM     14  C   UNL     1       5.518   5.784 -12.789  0.00  0.00    +0.097 C 
ATOM     15  C   UNL     1       7.005   5.503 -12.971  0.00  0.00    +0.022 C 
ATOM     16  C   UNL     1       7.749   6.384 -11.975  0.00  0.00    +0.002 C 
ATOM     17  C   UNL     1       6.943   7.615 -11.646  0.00  0.00    +0.000 C 
ATOM     18  C   UNL     1       5.772   7.216 -10.757  0.00  0.00    +0.002 C 
ATOM     19  C   UNL     1       5.252   5.893 -11.298  0.00  0.00    +0.022 C 
ENDBRANCH  12  14
ENDBRANCH   7  10
ENDBRANCH   4   7
BRANCH   1  20
ATOM     20  C   UNL     1       0.939   5.603  -8.692  0.00  0.00    +0.050 C 
BRANCH  20  21
ATOM     21  C   UNL     1       2.186   4.765  -8.840  0.00  0.00    +0.120 C 
BRANCH  21  23
ATOM     22  C   UNL     1       2.725   4.574  -6.377  0.00  0.00    +0.284 C 
ATOM     23  N   UNL     1       3.020   5.052  -7.676  0.00  0.00    -0.200 NA
ATOM     24  O   UNL     1       2.111   3.468  -6.311  0.00  0.00    -0.267 OA
BRANCH  22  29
ATOM     25  C   UNL     1       0.556   5.029  -1.695  0.00  0.00    +0.054 C 
ATOM     26  C   UNL     1       1.473   5.674  -2.686  0.00  0.00    +0.079 A 
ATOM     27  N   UNL     1       2.764   5.284  -2.825  0.00  0.00    -0.245 NA
ATOM     28  C   UNL     1       3.341   5.246  -4.051  0.00  0.00    +0.122 A 
ATOM     29  C   UNL     1       2.597   5.456  -5.207  0.00  0.00    +0.155 A 
ATOM     30  N   UNL     1       1.461   6.171  -5.020  0.00  0.00    -0.236 NA
ATOM     31  C   UNL     1       0.969   6.379  -3.773  0.00  0.00    +0.114 A 
ENDBRANCH  22  29
ENDBRANCH  21  23
ENDBRANCH  20  21
ENDBRANCH   1  20
TORSDOF 7
ENDMDL
MODEL 9
REMARK VINA RESULT:      -8.8      3.245      5.473
REMARK  Name = 
REMARK  7 active torsions:
REMARK  status: ('A' for Active; 'I' for Inactive)
REMARK    1  A    between atoms: C_5  and  C_6
REMARK    2  A    between atoms: N_8  and  C_9
REMARK    3  A    between atoms: C_9  and  C_10
REMARK    4  A    between atoms: C_10  and  C_11
REMARK    5  A    between atoms: C_14  and  S_15
REMARK    6  A    between atoms: S_15  and  N_18
REMARK    7  A    between atoms: N_21  and  C_22
REMARK                            x       y       z     vdW  Elec       q    Type
REMARK                         _______ _______ _______ _____ _____    ______ ____
ROOT
ATOM      1  C   UNL     1       0.775   5.618  -9.734  0.00  0.00    -0.020 A 
ATOM      2  C   UNL     1       0.349   4.525 -10.479  0.00  0.00    -0.003 A 
ATOM      3  C   UNL     1       0.429   4.537 -11.867  0.00  0.00    +0.020 A 
ATOM      4  C   UNL     1       0.976   5.618 -12.548  0.00  0.00    +0.129 A 
ATOM      5  C   UNL     1       1.000   6.809 -11.831  0.00  0.00    +0.020 A 
ATOM      6  C   UNL     1       0.881   6.807 -10.447  0.00  0.00    -0.003 A 
ENDROOT
BRANCH   4   7
ATOM      7  S   UNL     1       1.983   5.374 -13.971  0.00  0.00    +0.104 S 
ATOM      8  O   UNL     1       1.513   6.270 -15.095  0.00  0.00    -0.146 OA
ATOM      9  O   UNL     1       1.899   3.972 -14.477  0.00  0.00    -0.146 OA
BRANCH   7  10
ATOM     10  N   UNL     1       3.582   5.853 -13.574  0.00  0.00    -0.071 NA
ATOM     11  C   UNL     1       4.481   6.139 -14.449  0.00  0.00    +0.371 C 
ATOM     12  N   UNL     1       5.789   6.421 -13.975  0.00  0.00    -0.185 NA
ATOM     13  O   UNL     1       4.014   6.580 -15.691  0.00  0.00    -0.244 OA
BRANCH  12  14
ATOM     14  C   UNL     1       6.155   6.335 -12.564  0.00  0.00    +0.097 C 
ATOM     15  C   UNL     1       6.255   7.726 -11.949  0.00  0.00    +0.022 C 
ATOM     16  C   UNL     1       7.101   7.596 -10.690  0.00  0.00    +0.002 C 
ATOM     17  C   UNL     1       7.008   6.201 -10.126  0.00  0.00    +0.000 C 
ATOM     18  C   UNL     1       7.796   5.252 -11.022  0.00  0.00    +0.002 C 
ATOM     19  C   UNL     1       7.524   5.687 -12.454  0.00  0.00    +0.022 C 
ENDBRANCH  12  14
ENDBRANCH   7  10
ENDBRANCH   4   7
BRANCH   1  20
ATOM     20  C   UNL     1       1.519   5.412  -8.453  0.00  0.00    +0.050 C 
BRANCH  20  21
ATOM     21  C   UNL     1       1.944   6.716  -7.823  0.00  0.00    +0.120 C 
BRANCH  21  23
ATOM     22  C   UNL     1       1.151   6.440  -5.438  0.00  0.00    +0.284 C 
ATOM     23  N   UNL     1       1.002   6.980  -6.738  0.00  0.00    -0.200 NA
ATOM     24  O   UNL     1       2.338   6.226  -5.050  0.00  0.00    -0.267 OA
BRANCH  22  29
ATOM     25  C   UNL     1      -3.005   6.777  -2.364  0.00  0.00    +0.054 C 
ATOM     26  C   UNL     1      -2.148   5.847  -3.164  0.00  0.00    +0.079 A 
ATOM     27  N   UNL     1      -2.278   5.733  -4.509  0.00  0.00    -0.245 NA
ATOM     28  C   UNL     1      -1.185   5.567  -5.293  0.00  0.00    +0.122 A 
ATOM     29  C   UNL     1       0.101   5.657  -4.769  0.00  0.00    +0.155 A 
ATOM     30  N   UNL     1       0.183   5.412  -3.439  0.00  0.00    -0.236 NA
ATOM     31  C   UNL     1      -0.933   5.389  -2.668  0.00  0.00    +0.114 A 
ENDBRANCH  22  29
ENDBRANCH  21  23
ENDBRANCH  20  21
ENDBRANCH   1  20
TORSDOF 7
ENDMDL
