MODEL 1
REMARK VINA RESULT:      -7.4      0.000      0.000
REMARK  Name = 
REMARK  4 active torsions:
REMARK  status: ('A' for Active; 'I' for Inactive)
REMARK    1  A    between atoms: C_2  and  C_4
REMARK    2  A    between atoms: C_4  and  C_5
REMARK    3  A    between atoms: C_10  and  N_11
REMARK    4  A    between atoms: N_11  and  C_12
REMARK                            x       y       z     vdW  Elec       q    Type
REMARK                         _______ _______ _______ _____ _____    ______ ____
ROOT
ATOM      1  C   UNL     1      -1.579   6.848  -4.725  0.00  0.00    +0.004 A 
ATOM      2  C   UNL     1      -0.320   6.499  -5.197  0.00  0.00    +0.067 A 
ATOM      3  C   UNL     1      -0.162   5.592  -6.239  0.00  0.00    +0.016 A 
ATOM      4  C   UNL     1      -1.288   5.084  -6.875  0.00  0.00    +0.001 A 
ATOM      5  C   UNL     1      -2.485   5.729  -6.603  0.00  0.00    -0.000 A 
ATOM      6  C   UNL     1      -2.647   6.593  -5.547  0.00  0.00    -0.002 A 
ENDROOT
BRANCH   1   7
ATOM      7  C   UNL     1      -1.715   7.098  -3.264  0.00  0.00    +0.142 C 
BRANCH   7   9
ATOM      8  O   UNL     1      -3.846   6.685  -2.276  0.00  0.00    -0.245 OA
ATOM      9  C   UNL     1      -2.731   6.237  -2.628  0.00  0.00    +0.369 C 
ATOM     10  O   UNL     1      -2.499   4.877  -2.437  0.00  0.00    -0.245 OA
ENDBRANCH   7   9
ENDBRANCH   1   7
BRANCH   2  11
ATOM     11  N   UNL     1       0.786   7.047  -4.487  0.00  0.00    -0.211 NA
BRANCH  11  12
ATOM     12  C   UNL     1       2.001   6.292  -4.402  0.00  0.00    +0.091 A 
ATOM     13  C   UNL     1       2.312   5.531  -3.281  0.00  0.00    +0.074 A 
ATOM     14 CL   UNL     1       0.948   4.961  -2.330  0.00  0.00    -0.081 Cl
ATOM     15  C   UNL     1       3.610   5.513  -2.789  0.00  0.00    +0.013 A 
ATOM     16  C   UNL     1       4.645   6.084  -3.519  0.00  0.00    +0.002 A 
ATOM     17  C   UNL     1       4.353   6.304  -4.859  0.00  0.00    +0.013 A 
ATOM     18  C   UNL     1       3.062   6.679  -5.195  0.00  0.00    +0.074 A 
ATOM     19 CL   UNL     1       2.722   7.343  -6.785  0.00  0.00    -0.081 Cl
ENDBRANCH  11  12
ENDBRANCH   2  11
TORSDOF 4
ENDMDL
MODEL 2
REMARK VINA RESULT:      -6.8      3.232      5.860
REMARK  Name = 
REMARK  4 active torsions:
REMARK  status: ('A' for Active; 'I' for Inactive)
REMARK    1  A    between atoms: C_2  and  C_4
REMARK    2  A    between atoms: C_4  and  C_5
REMARK    3  A    between atoms: C_10  and  N_11
REMARK    4  A    between atoms: N_11  and  C_12
REMARK                            x       y       z     vdW  Elec       q    Type
REMARK                         _______ _______ _______ _____ _____    ______ ____
ROOT
ATOM      1  C   UNL     1       2.341   5.485  -6.115  0.00  0.00    +0.004 A 
ATOM      2  C   UNL     1       1.758   5.639  -4.863  0.00  0.00    +0.067 A 
ATOM      3  C   UNL     1       2.352   6.420  -3.877  0.00  0.00    +0.016 A 
ATOM      4  C   UNL     1       3.511   7.124  -4.175  0.00  0.00    +0.001 A 
ATOM      5  C   UNL     1       3.843   7.213  -5.518  0.00  0.00    -0.000 A 
ATOM      6  C   UNL     1       3.283   6.411  -6.483  0.00  0.00    -0.002 A 
ENDROOT
BRANCH   1   7
ATOM      7  C   UNL     1       2.199   4.158  -6.774  0.00  0.00    +0.142 C 
BRANCH   7   9
ATOM      8  O   UNL     1       1.493   4.691  -8.989  0.00  0.00    -0.245 OA
ATOM      9  C   UNL     1       2.378   4.224  -8.237  0.00  0.00    +0.369 C 
ATOM     10  O   UNL     1       3.567   3.805  -8.832  0.00  0.00    -0.245 OA
ENDBRANCH   7   9
ENDBRANCH   1   7
BRANCH   2  11
ATOM     11  N   UNL     1       0.579   4.876  -4.626  0.00  0.00    -0.211 NA
BRANCH  11  12
ATOM     12  C   UNL     1      -0.651   5.560  -4.358  0.00  0.00    +0.091 A 
ATOM     13  C   UNL     1      -1.407   6.131  -5.375  0.00  0.00    +0.074 A 
ATOM     14 CL   UNL     1      -1.219   5.419  -6.971  0.00  0.00    -0.081 Cl
ATOM     15  C   UNL     1      -2.005   7.370  -5.189  0.00  0.00    +0.013 A 
ATOM     16  C   UNL     1      -2.027   7.955  -3.930  0.00  0.00    +0.002 A 
ATOM     17  C   UNL     1      -1.768   7.081  -2.881  0.00  0.00    +0.013 A 
ATOM     18  C   UNL     1      -0.850   6.063  -3.088  0.00  0.00    +0.074 A 
ATOM     19 CL   UNL     1      -0.192   5.178  -1.722  0.00  0.00    -0.081 Cl
ENDBRANCH  11  12
ENDBRANCH   2  11
TORSDOF 4
ENDMDL
MODEL 3
REMARK VINA RESULT:      -6.8      6.675      8.749
REMARK  Name = 
REMARK  4 active torsions:
REMARK  status: ('A' for Active; 'I' for Inactive)
REMARK    1  A    between atoms: C_2  and  C_4
REMARK    2  A    between atoms: C_4  and  C_5
REMARK    3  A    between atoms: C_10  and  N_11
REMARK    4  A    between atoms: N_11  and  C_12
REMARK                            x       y       z     vdW  Elec       q    Type
REMARK                         _______ _______ _______ _____ _____    ______ ____
ROOT
ATOM      1  C   UNL     1       5.005   6.504 -11.106  0.00  0.00    +0.004 A 
ATOM      2  C   UNL     1       5.290   5.692 -10.015  0.00  0.00    +0.067 A 
ATOM      3  C   UNL     1       6.571   5.621  -9.478  0.00  0.00    +0.016 A 
ATOM      4  C   UNL     1       7.569   6.439  -9.993  0.00  0.00    +0.001 A 
ATOM      5  C   UNL     1       7.149   7.465 -10.825  0.00  0.00    -0.000 A 
ATOM      6  C   UNL     1       5.895   7.509 -11.386  0.00  0.00    -0.002 A 
ENDROOT
BRANCH   1   7
ATOM      7  C   UNL     1       4.007   6.001 -12.089  0.00  0.00    +0.142 C 
BRANCH   7   9
ATOM      8  O   UNL     1       5.509   4.691 -13.398  0.00  0.00    -0.245 OA
ATOM      9  C   UNL     1       4.620   5.572 -13.360  0.00  0.00    +0.369 C 
ATOM     10  O   UNL     1       4.197   6.107 -14.575  0.00  0.00    -0.245 OA
ENDBRANCH   7   9
ENDBRANCH   1   7
BRANCH   2  11
ATOM     11  N   UNL     1       4.222   4.873  -9.552  0.00  0.00    -0.211 NA
BRANCH  11  12
ATOM     12  C   UNL     1       3.233   5.442  -8.685  0.00  0.00    +0.091 A 
ATOM     13  C   UNL     1       1.978   5.814  -9.151  0.00  0.00    +0.074 A 
ATOM     14 CL   UNL     1       1.398   4.961 -10.574  0.00  0.00    -0.081 Cl
ATOM     15  C   UNL     1       1.391   6.992  -8.711  0.00  0.00    +0.013 A 
ATOM     16  C   UNL     1       1.951   7.703  -7.657  0.00  0.00    +0.002 A 
ATOM     17  C   UNL     1       2.853   6.979  -6.887  0.00  0.00    +0.013 A 
ATOM     18  C   UNL     1       3.663   6.053  -7.524  0.00  0.00    +0.074 A 
ATOM     19 CL   UNL     1       5.068   5.396  -6.701  0.00  0.00    -0.081 Cl
ENDBRANCH  11  12
ENDBRANCH   2  11
TORSDOF 4
ENDMDL
MODEL 4
REMARK VINA RESULT:      -6.7      7.341      9.876
REMARK  Name = 
REMARK  4 active torsions:
REMARK  status: ('A' for Active; 'I' for Inactive)
REMARK    1  A    between atoms: C_2  and  C_4
REMARK    2  A    between atoms: C_4  and  C_5
REMARK    3  A    between atoms: C_10  and  N_11
REMARK    4  A    between atoms: N_11  and  C_12
REMARK                            x       y       z     vdW  Elec       q    Type
REMARK                         _______ _______ _______ _____ _____    ______ ____
ROOT
ATOM      1  C   UNL     1       6.367   7.012 -11.017  0.00  0.00    +0.004 A 
ATOM      2  C   UNL     1       5.203   6.600 -10.382  0.00  0.00    +0.067 A 
ATOM      3  C   UNL     1       5.226   5.645  -9.371  0.00  0.00    +0.016 A 
ATOM      4  C   UNL     1       6.447   5.149  -8.934  0.00  0.00    +0.001 A 
ATOM      5  C   UNL     1       7.572   5.845  -9.348  0.00  0.00    -0.000 A 
ATOM      6  C   UNL     1       7.552   6.758 -10.374  0.00  0.00    -0.002 A 
ENDROOT
BRANCH   1   7
ATOM      7  C   UNL     1       6.278   7.328 -12.469  0.00  0.00    +0.142 C 
BRANCH   7   9
ATOM      8  O   UNL     1       7.419   6.535 -14.407  0.00  0.00    -0.245 OA
ATOM      9  C   UNL     1       6.852   6.270 -13.322  0.00  0.00    +0.369 C 
ATOM     10  O   UNL     1       6.821   4.935 -12.925  0.00  0.00    -0.245 OA
ENDBRANCH   7   9
ENDBRANCH   1   7
BRANCH   2  11
ATOM     11  N   UNL     1       3.989   7.140 -10.894  0.00  0.00    -0.211 NA
BRANCH  11  12
ATOM     12  C   UNL     1       2.786   6.368 -10.794  0.00  0.00    +0.091 A 
ATOM     13  C   UNL     1       2.283   5.653 -11.875  0.00  0.00    +0.074 A 
ATOM     14 CL   UNL     1       3.457   5.153 -13.084  0.00  0.00    -0.081 Cl
ATOM     15  C   UNL     1       0.918   5.633 -12.123  0.00  0.00    +0.013 A 
ATOM     16  C   UNL     1       0.028   6.150 -11.191  0.00  0.00    +0.002 A 
ATOM     17  C   UNL     1       0.557   6.314  -9.916  0.00  0.00    +0.013 A 
ATOM     18  C   UNL     1       1.884   6.698  -9.803  0.00  0.00    +0.074 A 
ATOM     19 CL   UNL     1       2.502   7.293  -8.271  0.00  0.00    -0.081 Cl
ENDBRANCH  11  12
ENDBRANCH   2  11
TORSDOF 4
ENDMDL
MODEL 5
REMARK VINA RESULT:      -6.7      2.224      3.205
REMARK  Name = 
REMARK  4 active torsions:
REMARK  status: ('A' for Active; 'I' for Inactive)
REMARK    1  A    between atoms: C_2  and  C_4
REMARK    2  A    between atoms: C_4  and  C_5
REMARK    3  A    between atoms: C_10  and  N_11
REMARK    4  A    between atoms: N_11  and  C_12
REMARK                            x       y       z     vdW  Elec       q    Type
REMARK                         _______ _______ _______ _____ _____    ______ ____
ROOT
ATOM      1  C   UNL     1      -0.502   6.468  -4.728  0.00  0.00    +0.004 A 
ATOM      2  C   UNL     1      -0.667   5.614  -5.812  0.00  0.00    +0.067 A 
ATOM      3  C   UNL     1      -1.893   5.485  -6.455  0.00  0.00    +0.016 A 
ATOM      4  C   UNL     1      -2.957   6.283  -6.055  0.00  0.00    +0.001 A 
ATOM      5  C   UNL     1      -2.642   7.348  -5.224  0.00  0.00    -0.000 A 
ATOM      6  C   UNL     1      -1.444   7.451  -4.559  0.00  0.00    -0.002 A 
ENDROOT
BRANCH   1   7
ATOM      7  C   UNL     1       0.421   6.028  -3.647  0.00  0.00    +0.142 C 
BRANCH   7   9
ATOM      8  O   UNL     1       0.374   4.743  -1.638  0.00  0.00    -0.245 OA
ATOM      9  C   UNL     1      -0.254   5.225  -2.609  0.00  0.00    +0.369 C 
ATOM     10  O   UNL     1      -1.629   5.012  -2.650  0.00  0.00    -0.245 OA
ENDBRANCH   7   9
ENDBRANCH   1   7
BRANCH   2  11
ATOM     11  N   UNL     1       0.463   4.817  -6.154  0.00  0.00    -0.211 NA
BRANCH  11  12
ATOM     12  C   UNL     1       1.471   5.369  -7.010  0.00  0.00    +0.091 A 
ATOM     13  C   UNL     1       2.693   5.808  -6.512  0.00  0.00    +0.074 A 
ATOM     14 CL   UNL     1       3.235   5.055  -5.019  0.00  0.00    -0.081 Cl
ATOM     15  C   UNL     1       3.263   6.978  -6.994  0.00  0.00    +0.013 A 
ATOM     16  C   UNL     1       2.728   7.610  -8.110  0.00  0.00    +0.002 A 
ATOM     17  C   UNL     1       1.884   6.815  -8.875  0.00  0.00    +0.013 A 
ATOM     18  C   UNL     1       1.075   5.900  -8.221  0.00  0.00    +0.074 A 
ATOM     19 CL   UNL     1      -0.272   5.152  -9.063  0.00  0.00    -0.081 Cl
ENDBRANCH  11  12
ENDBRANCH   2  11
TORSDOF 4
ENDMDL
MODEL 6
REMARK VINA RESULT:      -6.6      2.828      4.154
REMARK  Name = 
REMARK  4 active torsions:
REMARK  status: ('A' for Active; 'I' for Inactive)
REMARK    1  A    between atoms: C_2  and  C_4
REMARK    2  A    between atoms: C_4  and  C_5
REMARK    3  A    between atoms: C_10  and  N_11
REMARK    4  A    between atoms: N_11  and  C_12
REMARK                            x       y       z     vdW  Elec       q    Type
REMARK                         _______ _______ _______ _____ _____    ______ ____
ROOT
ATOM      1  C   UNL     1      -0.118   5.170  -6.575  0.00  0.00    +0.004 A 
ATOM      2  C   UNL     1       0.343   5.734  -5.392  0.00  0.00    +0.067 A 
ATOM      3  C   UNL     1      -0.410   6.669  -4.691  0.00  0.00    +0.016 A 
ATOM      4  C   UNL     1      -1.685   6.987  -5.140  0.00  0.00    +0.001 A 
ATOM      5  C   UNL     1      -2.221   6.146  -6.103  0.00  0.00    -0.000 A 
ATOM      6  C   UNL     1      -1.465   5.252  -6.822  0.00  0.00    -0.002 A 
ENDROOT
BRANCH   1   7
ATOM      7  C   UNL     1       0.889   4.881  -7.631  0.00  0.00    +0.142 C 
BRANCH   7   9
ATOM      8  O   UNL     1       0.803   6.699  -9.173  0.00  0.00    -0.245 OA
ATOM      9  C   UNL     1       0.551   5.497  -8.929  0.00  0.00    +0.369 C 
ATOM     10  O   UNL     1      -0.023   4.743  -9.951  0.00  0.00    -0.245 OA
ENDBRANCH   7   9
ENDBRANCH   1   7
BRANCH   2  11
ATOM     11  N   UNL     1       1.664   5.371  -5.002  0.00  0.00    -0.211 NA
BRANCH  11  12
ATOM     12  C   UNL     1       2.494   6.348  -4.362  0.00  0.00    +0.091 A 
ATOM     13  C   UNL     1       3.385   7.136  -5.082  0.00  0.00    +0.074 A 
ATOM     14 CL   UNL     1       2.984   7.410  -6.771  0.00  0.00    -0.081 Cl
ATOM     15  C   UNL     1       4.650   7.400  -4.575  0.00  0.00    +0.013 A 
ATOM     16  C   UNL     1       4.966   7.056  -3.267  0.00  0.00    +0.002 A 
ATOM     17  C   UNL     1       3.868   6.806  -2.453  0.00  0.00    +0.013 A 
ATOM     18  C   UNL     1       2.762   6.191  -3.017  0.00  0.00    +0.074 A 
ATOM     19 CL   UNL     1       1.516   5.502  -1.989  0.00  0.00    -0.081 Cl
ENDBRANCH  11  12
ENDBRANCH   2  11
TORSDOF 4
ENDMDL
MODEL 7
REMARK VINA RESULT:      -6.6      4.009      5.607
REMARK  Name = 
REMARK  4 active torsions:
REMARK  status: ('A' for Active; 'I' for Inactive)
REMARK    1  A    between atoms: C_2  and  C_4
REMARK    2  A    between atoms: C_4  and  C_5
REMARK    3  A    between atoms: C_10  and  N_11
REMARK    4  A    between atoms: N_11  and  C_12
REMARK                            x       y       z     vdW  Elec       q    Type
REMARK                         _______ _______ _______ _____ _____    ______ ____
ROOT
ATOM      1  C   UNL     1       3.119   6.794  -8.758  0.00  0.00    +0.004 A 
ATOM      2  C   UNL     1       3.522   6.468  -7.469  0.00  0.00    +0.067 A 
ATOM      3  C   UNL     1       4.569   5.582  -7.238  0.00  0.00    +0.016 A 
ATOM      4  C   UNL     1       5.279   5.073  -8.318  0.00  0.00    +0.001 A 
ATOM      5  C   UNL     1       5.066   5.699  -9.537  0.00  0.00    -0.000 A 
ATOM      6  C   UNL     1       4.007   6.541  -9.772  0.00  0.00    -0.002 A 
ENDROOT
BRANCH   1   7
ATOM      7  C   UNL     1       1.664   7.015  -8.982  0.00  0.00    +0.142 C 
BRANCH   7   9
ATOM      8  O   UNL     1       0.741   6.614 -11.144  0.00  0.00    -0.245 OA
ATOM      9  C   UNL     1       1.110   6.150 -10.041  0.00  0.00    +0.369 C 
ATOM     10  O   UNL     1       1.019   4.771  -9.865  0.00  0.00    -0.245 OA
ENDBRANCH   7   9
ENDBRANCH   1   7
BRANCH   2  11
ATOM     11  N   UNL     1       2.740   7.016  -6.413  0.00  0.00    -0.211 NA
BRANCH  11  12
ATOM     12  C   UNL     1       2.693   6.333  -5.154  0.00  0.00    +0.091 A 
ATOM     13  C   UNL     1       1.694   5.413  -4.858  0.00  0.00    +0.074 A 
ATOM     14 CL   UNL     1       0.952   4.607  -6.232  0.00  0.00    -0.081 Cl
ATOM     15  C   UNL     1       1.119   5.390  -3.595  0.00  0.00    +0.013 A 
ATOM     16  C   UNL     1       1.668   6.138  -2.561  0.00  0.00    +0.002 A 
ATOM     17  C   UNL     1       2.971   6.566  -2.786  0.00  0.00    +0.013 A 
ATOM     18  C   UNL     1       3.332   6.913  -4.078  0.00  0.00    +0.074 A 
ATOM     19 CL   UNL     1       4.811   7.816  -4.367  0.00  0.00    -0.081 Cl
ENDBRANCH  11  12
ENDBRANCH   2  11
TORSDOF 4
ENDMDL
MODEL 8
REMARK VINA RESULT:      -6.5      3.083      5.913
REMARK  Name = 
REMARK  4 active torsions:
REMARK  status: ('A' for Active; 'I' for Inactive)
REMARK    1  A    between atoms: C_2  and  C_4
REMARK    2  A    between atoms: C_4  and  C_5
REMARK    3  A    between atoms: C_10  and  N_11
REMARK    4  A    between atoms: N_11  and  C_12
REMARK                            x       y       z     vdW  Elec       q    Type
REMARK                         _______ _______ _______ _____ _____    ______ ____
ROOT
ATOM      1  C   UNL     1       2.973   6.845  -3.078  0.00  0.00    +0.004 A 
ATOM      2  C   UNL     1       1.693   6.331  -3.239  0.00  0.00    +0.067 A 
ATOM      3  C   UNL     1       1.181   5.371  -2.373  0.00  0.00    +0.016 A 
ATOM      4  C   UNL     1       1.937   4.975  -1.276  0.00  0.00    +0.001 A 
ATOM      5  C   UNL     1       3.034   5.767  -0.973  0.00  0.00    -0.000 A 
ATOM      6  C   UNL     1       3.560   6.685  -1.849  0.00  0.00    -0.002 A 
ENDROOT
BRANCH   1   7
ATOM      7  C   UNL     1       3.740   7.166  -4.313  0.00  0.00    +0.142 C 
BRANCH   7   9
ATOM      8  O   UNL     1       4.558   5.888  -6.153  0.00  0.00    -0.245 OA
ATOM      9  C   UNL     1       4.375   5.980  -4.918  0.00  0.00    +0.369 C 
ATOM     10  O   UNL     1       4.837   4.932  -4.124  0.00  0.00    -0.245 OA
ENDBRANCH   7   9
ENDBRANCH   1   7
BRANCH   2  11
ATOM     11  N   UNL     1       0.984   6.772  -4.393  0.00  0.00    -0.211 NA
BRANCH  11  12
ATOM     12  C   UNL     1      -0.184   6.055  -4.809  0.00  0.00    +0.091 A 
ATOM     13  C   UNL     1      -0.140   5.116  -5.834  0.00  0.00    +0.074 A 
ATOM     14 CL   UNL     1       1.414   4.340  -6.105  0.00  0.00    -0.081 Cl
ATOM     15  C   UNL     1      -1.166   5.052  -6.766  0.00  0.00    +0.013 A 
ATOM     16  C   UNL     1      -2.334   5.779  -6.573  0.00  0.00    +0.002 A 
ATOM     17  C   UNL     1      -2.529   6.226  -5.272  0.00  0.00    +0.013 A 
ATOM     18  C   UNL     1      -1.417   6.612  -4.540  0.00  0.00    +0.074 A 
ATOM     19 CL   UNL     1      -1.614   7.538  -3.061  0.00  0.00    -0.081 Cl
ENDBRANCH  11  12
ENDBRANCH   2  11
TORSDOF 4
ENDMDL
MODEL 9
REMARK VINA RESULT:      -6.4      3.017      5.592
REMARK  Name = 
REMARK  4 active torsions:
REMARK  status: ('A' for Active; 'I' for Inactive)
REMARK    1  A    between atoms: C_2  and  C_4
REMARK    2  A    between atoms: C_4  and  C_5
REMARK    3  A    between atoms: C_10  and  N_11
REMARK    4  A    between atoms: N_11  and  C_12
REMARK                            x       y       z     vdW  Elec       q    Type
REMARK                         _______ _______ _______ _____ _____    ______ ____
ROOT
ATOM      1  C   UNL     1       2.450   5.515  -5.698  0.00  0.00    +0.004 A 
ATOM      2  C   UNL     1       1.931   5.721  -4.426  0.00  0.00    +0.067 A 
ATOM      3  C   UNL     1       2.589   6.515  -3.493  0.00  0.00    +0.016 A 
ATOM      4  C   UNL     1       3.751   7.179  -3.866  0.00  0.00    +0.001 A 
ATOM      5  C   UNL     1       4.020   7.220  -5.226  0.00  0.00    -0.000 A 
ATOM      6  C   UNL     1       3.396   6.405  -6.138  0.00  0.00    -0.002 A 
ENDROOT
BRANCH   1   7
ATOM      7  C   UNL     1       2.244   4.173  -6.309  0.00  0.00    +0.142 C 
BRANCH   7   9
ATOM      8  O   UNL     1       2.821   3.532  -8.533  0.00  0.00    -0.245 OA
ATOM      9  C   UNL     1       2.104   4.228  -7.777  0.00  0.00    +0.369 C 
ATOM     10  O   UNL     1       1.133   5.028  -8.375  0.00  0.00    -0.245 OA
ENDBRANCH   7   9
ENDBRANCH   1   7
BRANCH   2  11
ATOM     11  N   UNL     1       0.746   4.997  -4.111  0.00  0.00    -0.211 NA
BRANCH  11  12
ATOM     12  C   UNL     1      -0.385   5.704  -3.587  0.00  0.00    +0.091 A 
ATOM     13  C   UNL     1      -0.747   5.614  -2.247  0.00  0.00    +0.074 A 
ATOM     14 CL   UNL     1       0.545   5.224  -1.121  0.00  0.00    -0.081 Cl
ATOM     15  C   UNL     1      -2.085   5.521  -1.892  0.00  0.00    +0.013 A 
ATOM     16  C   UNL     1      -3.079   5.718  -2.842  0.00  0.00    +0.002 A 
ATOM     17  C   UNL     1      -2.652   6.359  -3.999  0.00  0.00    +0.013 A 
ATOM     18  C   UNL     1      -1.376   6.085  -4.467  0.00  0.00    +0.074 A 
ATOM     19 CL   UNL     1      -0.919   6.543  -6.100  0.00  0.00    -0.081 Cl
ENDBRANCH  11  12
ENDBRANCH   2  11
TORSDOF 4
ENDMDL
