MODEL 1
REMARK VINA RESULT:      -4.7      0.000      0.000
REMARK  Name = 
REMARK  5 active torsions:
REMARK  status: ('A' for Active; 'I' for Inactive)
REMARK    1  A    between atoms: C_2  and  C_4
REMARK    2  A    between atoms: C_4  and  C_5
REMARK    3  A    between atoms: C_5  and  C_7
REMARK    4  A    between atoms: C_5  and  C_11
REMARK    5  A    between atoms: C_7  and  C_8
REMARK                            x       y       z     vdW  Elec       q    Type
REMARK                         _______ _______ _______ _____ _____    ______ ____
ROOT
ATOM      1  C   UNL     1       0.637   5.429  -7.152  0.00  0.00    +0.240 C 
ATOM      2  O   UNL     1      -0.753   5.219  -7.187  0.00  0.00    -0.213 OA
ENDROOT
BRANCH   1   3
ATOM      3  C   UNL     1       1.147   4.468  -6.123  0.00  0.00    +0.393 C 
ATOM      4  O   UNL     1       2.067   3.525  -6.555  0.00  0.00    -0.243 OA
ATOM      5  O   UNL     1       1.058   4.683  -4.888  0.00  0.00    -0.243 OA
ENDBRANCH   1   3
BRANCH   1   6
ATOM      6  C   UNL     1       1.316   5.097  -8.435  0.00  0.00    +0.156 C 
BRANCH   6   8
ATOM      7  O   UNL     1       0.372   6.547 -10.132  0.00  0.00    -0.246 OA
ATOM      8  C   UNL     1       0.550   5.399  -9.649  0.00  0.00    +0.368 C 
ATOM      9  O   UNL     1       0.274   4.323 -10.500  0.00  0.00    -0.246 OA
ENDBRANCH   6   8
ENDBRANCH   1   6
BRANCH   1  10
ATOM     10  C   UNL     1       0.870   6.804  -6.640  0.00  0.00    +0.156 C 
BRANCH  10  11
ATOM     11  C   UNL     1       2.156   7.413  -6.962  0.00  0.00    +0.368 C 
ATOM     12  O   UNL     1       2.144   8.417  -7.938  0.00  0.00    -0.246 OA
ATOM     13  O   UNL     1       3.207   7.358  -6.292  0.00  0.00    -0.246 OA
ENDBRANCH  10  11
ENDBRANCH   1  10
TORSDOF 5
ENDMDL
MODEL 2
REMARK VINA RESULT:      -4.7      2.052      3.309
REMARK  Name = 
REMARK  5 active torsions:
REMARK  status: ('A' for Active; 'I' for Inactive)
REMARK    1  A    between atoms: C_2  and  C_4
REMARK    2  A    between atoms: C_4  and  C_5
REMARK    3  A    between atoms: C_5  and  C_7
REMARK    4  A    between atoms: C_5  and  C_11
REMARK    5  A    between atoms: C_7  and  C_8
REMARK                            x       y       z     vdW  Elec       q    Type
REMARK                         _______ _______ _______ _____ _____    ______ ____
ROOT
ATOM      1  C   UNL     1       0.172   6.072  -6.065  0.00  0.00    +0.240 C 
ATOM      2  O   UNL     1       0.343   7.210  -5.257  0.00  0.00    -0.213 OA
ENDROOT
BRANCH   1   3
ATOM      3  C   UNL     1       0.726   4.938  -5.259  0.00  0.00    +0.393 C 
ATOM      4  O   UNL     1       1.223   3.856  -5.969  0.00  0.00    -0.243 OA
ATOM      5  O   UNL     1       1.064   5.060  -4.054  0.00  0.00    -0.243 OA
ENDBRANCH   1   3
BRANCH   1   6
ATOM      6  C   UNL     1      -1.257   5.756  -6.342  0.00  0.00    +0.156 C 
BRANCH   6   8
ATOM      7  O   UNL     1      -2.851   7.375  -5.500  0.00  0.00    -0.246 OA
ATOM      8  C   UNL     1      -2.220   6.294  -5.375  0.00  0.00    +0.368 C 
ATOM      9  O   UNL     1      -2.709   5.401  -4.414  0.00  0.00    -0.246 OA
ENDBRANCH   6   8
ENDBRANCH   1   6
BRANCH   1  10
ATOM     10  C   UNL     1       1.036   6.238  -7.262  0.00  0.00    +0.156 C 
BRANCH  10  11
ATOM     11  C   UNL     1       2.048   7.287  -7.199  0.00  0.00    +0.368 C 
ATOM     12  O   UNL     1       3.267   6.942  -6.604  0.00  0.00    -0.246 OA
ATOM     13  O   UNL     1       2.073   8.352  -7.849  0.00  0.00    -0.246 OA
ENDBRANCH  10  11
ENDBRANCH   1  10
TORSDOF 5
ENDMDL
MODEL 3
REMARK VINA RESULT:      -4.6      1.522      3.576
REMARK  Name = 
REMARK  5 active torsions:
REMARK  status: ('A' for Active; 'I' for Inactive)
REMARK    1  A    between atoms: C_2  and  C_4
REMARK    2  A    between atoms: C_4  and  C_5
REMARK    3  A    between atoms: C_5  and  C_7
REMARK    4  A    between atoms: C_5  and  C_11
REMARK    5  A    between atoms: C_7  and  C_8
REMARK                            x       y       z     vdW  Elec       q    Type
REMARK                         _______ _______ _______ _____ _____    ______ ____
ROOT
ATOM      1  C   UNL     1       0.466   5.660  -7.226  0.00  0.00    +0.240 C 
ATOM      2  O   UNL     1       0.392   5.864  -8.615  0.00  0.00    -0.213 OA
ENDROOT
BRANCH   1   3
ATOM      3  C   UNL     1       1.489   4.580  -7.048  0.00  0.00    +0.393 C 
ATOM      4  O   UNL     1       1.352   3.772  -5.930  0.00  0.00    -0.243 OA
ATOM      5  O   UNL     1       2.217   4.170  -7.987  0.00  0.00    -0.243 OA
ENDBRANCH   1   3
BRANCH   1   6
ATOM      6  C   UNL     1       0.952   6.852  -6.479  0.00  0.00    +0.156 C 
BRANCH   6   8
ATOM      7  O   UNL     1       2.151   8.358  -7.953  0.00  0.00    -0.246 OA
ATOM      8  C   UNL     1       2.147   7.497  -7.034  0.00  0.00    +0.368 C 
ATOM      9  O   UNL     1       3.323   7.394  -6.281  0.00  0.00    -0.246 OA
ENDBRANCH   6   8
ENDBRANCH   1   6
BRANCH   1  10
ATOM     10  C   UNL     1      -0.844   5.116  -6.783  0.00  0.00    +0.156 C 
BRANCH  10  11
ATOM     11  C   UNL     1      -1.474   5.773  -5.643  0.00  0.00    +0.368 C 
ATOM     12  O   UNL     1      -2.557   6.614  -5.930  0.00  0.00    -0.246 OA
ATOM     13  O   UNL     1      -1.360   5.472  -4.439  0.00  0.00    -0.246 OA
ENDBRANCH  10  11
ENDBRANCH   1  10
TORSDOF 5
ENDMDL
MODEL 4
REMARK VINA RESULT:      -4.5      1.072      3.568
REMARK  Name = 
REMARK  5 active torsions:
REMARK  status: ('A' for Active; 'I' for Inactive)
REMARK    1  A    between atoms: C_2  and  C_4
REMARK    2  A    between atoms: C_4  and  C_5
REMARK    3  A    between atoms: C_5  and  C_7
REMARK    4  A    between atoms: C_5  and  C_11
REMARK    5  A    between atoms: C_7  and  C_8
REMARK                            x       y       z     vdW  Elec       q    Type
REMARK                         _______ _______ _______ _____ _____    ______ ____
ROOT
ATOM      1  C   UNL     1       1.840   5.023  -8.114  0.00  0.00    +0.240 C 
ATOM      2  O   UNL     1       2.184   3.858  -8.820  0.00  0.00    -0.213 OA
ENDROOT
BRANCH   1   3
ATOM      3  C   UNL     1       1.649   4.576  -6.697  0.00  0.00    +0.393 C 
ATOM      4  O   UNL     1       0.371   4.695  -6.174  0.00  0.00    -0.243 OA
ATOM      5  O   UNL     1       2.459   3.816  -6.109  0.00  0.00    -0.243 OA
ENDBRANCH   1   3
BRANCH   1   6
ATOM      6  C   UNL     1       2.918   6.050  -8.107  0.00  0.00    +0.156 C 
BRANCH   6   8
ATOM      7  O   UNL     1       3.174   7.421  -6.125  0.00  0.00    -0.246 OA
ATOM      8  C   UNL     1       2.667   7.221  -7.259  0.00  0.00    +0.368 C 
ATOM      9  O   UNL     1       2.088   8.333  -7.881  0.00  0.00    -0.246 OA
ENDBRANCH   6   8
ENDBRANCH   1   6
BRANCH   1  10
ATOM     10  C   UNL     1       0.521   5.482  -8.622  0.00  0.00    +0.156 C 
BRANCH  10  11
ATOM     11  C   UNL     1       0.445   5.816 -10.040  0.00  0.00    +0.368 C 
ATOM     12  O   UNL     1      -0.136   4.855 -10.876  0.00  0.00    -0.246 OA
ATOM     13  O   UNL     1       0.571   6.943 -10.559  0.00  0.00    -0.246 OA
ENDBRANCH  10  11
ENDBRANCH   1  10
TORSDOF 5
ENDMDL
MODEL 5
REMARK VINA RESULT:      -4.4      2.172      4.078
REMARK  Name = 
REMARK  5 active torsions:
REMARK  status: ('A' for Active; 'I' for Inactive)
REMARK    1  A    between atoms: C_2  and  C_4
REMARK    2  A    between atoms: C_4  and  C_5
REMARK    3  A    between atoms: C_5  and  C_7
REMARK    4  A    between atoms: C_5  and  C_11
REMARK    5  A    between atoms: C_7  and  C_8
REMARK                            x       y       z     vdW  Elec       q    Type
REMARK                         _______ _______ _______ _____ _____    ______ ____
ROOT
ATOM      1  C   UNL     1       0.318   6.095  -5.717  0.00  0.00    +0.240 C 
ATOM      2  O   UNL     1       0.090   7.305  -5.039  0.00  0.00    -0.213 OA
ENDROOT
BRANCH   1   3
ATOM      3  C   UNL     1      -1.031   5.668  -6.209  0.00  0.00    +0.393 C 
ATOM      4  O   UNL     1      -2.126   6.316  -5.660  0.00  0.00    -0.243 OA
ATOM      5  O   UNL     1      -1.195   5.037  -7.284  0.00  0.00    -0.243 OA
ENDBRANCH   1   3
BRANCH   1   6
ATOM      6  C   UNL     1       1.193   6.244  -6.913  0.00  0.00    +0.156 C 
BRANCH   6   8
ATOM      7  O   UNL     1       3.207   7.369  -6.170  0.00  0.00    -0.246 OA
ATOM      8  C   UNL     1       2.152   7.352  -6.856  0.00  0.00    +0.368 C 
ATOM      9  O   UNL     1       2.060   8.314  -7.869  0.00  0.00    -0.246 OA
ENDBRANCH   6   8
ENDBRANCH   1   6
BRANCH   1  10
ATOM     10  C   UNL     1       0.768   5.097  -4.713  0.00  0.00    +0.156 C 
BRANCH  10  11
ATOM     11  C   UNL     1       0.586   5.450  -3.310  0.00  0.00    +0.368 C 
ATOM     12  O   UNL     1      -0.612   5.037  -2.713  0.00  0.00    -0.246 OA
ATOM     13  O   UNL     1       1.463   5.821  -2.504  0.00  0.00    -0.246 OA
ENDBRANCH  10  11
ENDBRANCH   1  10
TORSDOF 5
ENDMDL
MODEL 6
REMARK VINA RESULT:      -4.4      7.004      8.043
REMARK  Name = 
REMARK  5 active torsions:
REMARK  status: ('A' for Active; 'I' for Inactive)
REMARK    1  A    between atoms: C_2  and  C_4
REMARK    2  A    between atoms: C_4  and  C_5
REMARK    3  A    between atoms: C_5  and  C_7
REMARK    4  A    between atoms: C_5  and  C_11
REMARK    5  A    between atoms: C_7  and  C_8
REMARK                            x       y       z     vdW  Elec       q    Type
REMARK                         _______ _______ _______ _____ _____    ______ ____
ROOT
ATOM      1  C   UNL     1       6.444   5.917 -13.530  0.00  0.00    +0.240 C 
ATOM      2  O   UNL     1       5.554   4.834 -13.416  0.00  0.00    -0.213 OA
ENDROOT
BRANCH   1   3
ATOM      3  C   UNL     1       7.738   5.414 -12.967  0.00  0.00    +0.393 C 
ATOM      4  O   UNL     1       8.755   6.345 -12.821  0.00  0.00    -0.243 OA
ATOM      5  O   UNL     1       7.830   4.335 -12.330  0.00  0.00    -0.243 OA
ENDBRANCH   1   3
BRANCH   1   6
ATOM      6  C   UNL     1       6.707   6.320 -14.939  0.00  0.00    +0.156 C 
BRANCH   6   8
ATOM      7  O   UNL     1       6.073   8.467 -15.867  0.00  0.00    -0.246 OA
ATOM      8  C   UNL     1       5.771   7.303 -15.497  0.00  0.00    +0.368 C 
ATOM      9  O   UNL     1       4.541   6.812 -15.947  0.00  0.00    -0.246 OA
ENDBRANCH   6   8
ENDBRANCH   1   6
BRANCH   1  10
ATOM     10  C   UNL     1       5.953   6.996 -12.635  0.00  0.00    +0.156 C 
BRANCH  10  11
ATOM     11  C   UNL     1       5.178   6.581 -11.471  0.00  0.00    +0.368 C 
ATOM     12  O   UNL     1       5.895   6.381 -10.285  0.00  0.00    -0.246 OA
ATOM     13  O   UNL     1       3.942   6.653 -11.321  0.00  0.00    -0.246 OA
ENDBRANCH  10  11
ENDBRANCH   1  10
TORSDOF 5
ENDMDL
MODEL 7
REMARK VINA RESULT:      -4.4      3.070      5.411
REMARK  Name = 
REMARK  5 active torsions:
REMARK  status: ('A' for Active; 'I' for Inactive)
REMARK    1  A    between atoms: C_2  and  C_4
REMARK    2  A    between atoms: C_4  and  C_5
REMARK    3  A    between atoms: C_5  and  C_7
REMARK    4  A    between atoms: C_5  and  C_11
REMARK    5  A    between atoms: C_7  and  C_8
REMARK                            x       y       z     vdW  Elec       q    Type
REMARK                         _______ _______ _______ _____ _____    ______ ____
ROOT
ATOM      1  C   UNL     1      -0.660   6.219  -4.799  0.00  0.00    +0.240 C 
ATOM      2  O   UNL     1      -0.177   7.459  -5.249  0.00  0.00    -0.213 OA
ENDROOT
BRANCH   1   3
ATOM      3  C   UNL     1      -1.521   5.710  -5.914  0.00  0.00    +0.393 C 
ATOM      4  O   UNL     1      -2.710   6.387  -6.139  0.00  0.00    -0.243 OA
ATOM      5  O   UNL     1      -1.083   4.967  -6.828  0.00  0.00    -0.243 OA
ENDBRANCH   1   3
BRANCH   1   6
ATOM      6  C   UNL     1       0.414   5.210  -4.580  0.00  0.00    +0.156 C 
BRANCH   6   8
ATOM      7  O   UNL     1       2.657   6.056  -4.935  0.00  0.00    -0.246 OA
ATOM      8  C   UNL     1       1.711   5.753  -4.163  0.00  0.00    +0.368 C 
ATOM      9  O   UNL     1       1.786   6.270  -2.864  0.00  0.00    -0.246 OA
ENDBRANCH   6   8
ENDBRANCH   1   6
BRANCH   1  10
ATOM     10  C   UNL     1      -1.543   6.478  -3.632  0.00  0.00    +0.156 C 
BRANCH  10  11
ATOM     11  C   UNL     1      -1.894   5.327  -2.807  0.00  0.00    +0.368 C 
ATOM     12  O   UNL     1      -1.172   5.170  -1.617  0.00  0.00    -0.246 OA
ATOM     13  O   UNL     1      -2.928   4.634  -2.879  0.00  0.00    -0.246 OA
ENDBRANCH  10  11
ENDBRANCH   1  10
TORSDOF 5
ENDMDL
MODEL 8
REMARK VINA RESULT:      -4.4      2.153      4.189
REMARK  Name = 
REMARK  5 active torsions:
REMARK  status: ('A' for Active; 'I' for Inactive)
REMARK    1  A    between atoms: C_2  and  C_4
REMARK    2  A    between atoms: C_4  and  C_5
REMARK    3  A    between atoms: C_5  and  C_7
REMARK    4  A    between atoms: C_5  and  C_11
REMARK    5  A    between atoms: C_7  and  C_8
REMARK                            x       y       z     vdW  Elec       q    Type
REMARK                         _______ _______ _______ _____ _____    ______ ____
ROOT
ATOM      1  C   UNL     1       2.616   5.611  -9.658  0.00  0.00    +0.240 C 
ATOM      2  O   UNL     1       2.786   5.492 -11.049  0.00  0.00    -0.213 OA
ENDROOT
BRANCH   1   3
ATOM      3  C   UNL     1       3.286   4.402  -9.082  0.00  0.00    +0.393 C 
ATOM      4  O   UNL     1       4.646   4.503  -8.837  0.00  0.00    -0.243 OA
ATOM      5  O   UNL     1       2.651   3.477  -8.515  0.00  0.00    -0.243 OA
ENDBRANCH   1   3
BRANCH   1   6
ATOM      6  C   UNL     1       3.293   6.804  -9.080  0.00  0.00    +0.156 C 
BRANCH   6   8
ATOM      7  O   UNL     1       3.059   6.881  -6.669  0.00  0.00    -0.246 OA
ATOM      8  C   UNL     1       2.736   7.292  -7.814  0.00  0.00    +0.368 C 
ATOM      9  O   UNL     1       2.045   8.508  -7.860  0.00  0.00    -0.246 OA
ENDBRANCH   6   8
ENDBRANCH   1   6
BRANCH   1  10
ATOM     10  C   UNL     1       1.162   5.499  -9.374  0.00  0.00    +0.156 C 
BRANCH  10  11
ATOM     11  C   UNL     1       0.252   5.949 -10.422  0.00  0.00    +0.368 C 
ATOM     12  O   UNL     1       0.216   7.327 -10.667  0.00  0.00    -0.246 OA
ATOM     13  O   UNL     1      -0.281   5.253 -11.309  0.00  0.00    -0.246 OA
ENDBRANCH  10  11
ENDBRANCH   1  10
TORSDOF 5
ENDMDL
MODEL 9
REMARK VINA RESULT:      -4.3      1.996      3.303
REMARK  Name = 
REMARK  5 active torsions:
REMARK  status: ('A' for Active; 'I' for Inactive)
REMARK    1  A    between atoms: C_2  and  C_4
REMARK    2  A    between atoms: C_4  and  C_5
REMARK    3  A    between atoms: C_5  and  C_7
REMARK    4  A    between atoms: C_5  and  C_11
REMARK    5  A    between atoms: C_7  and  C_8
REMARK                            x       y       z     vdW  Elec       q    Type
REMARK                         _______ _______ _______ _____ _____    ______ ____
ROOT
ATOM      1  C   UNL     1       2.667   5.042  -7.297  0.00  0.00    +0.240 C 
ATOM      2  O   UNL     1       2.402   3.965  -6.433  0.00  0.00    -0.213 OA
ENDROOT
BRANCH   1   3
ATOM      3  C   UNL     1       2.823   4.422  -8.652  0.00  0.00    +0.393 C 
ATOM      4  O   UNL     1       4.117   4.132  -9.057  0.00  0.00    -0.243 OA
ATOM      5  O   UNL     1       1.875   3.861  -9.257  0.00  0.00    -0.243 OA
ENDBRANCH   1   3
BRANCH   1   6
ATOM      6  C   UNL     1       1.545   6.016  -7.388  0.00  0.00    +0.156 C 
BRANCH   6   8
ATOM      7  O   UNL     1       1.298   7.167  -9.507  0.00  0.00    -0.246 OA
ATOM      8  C   UNL     1       1.746   7.121  -8.332  0.00  0.00    +0.368 C 
ATOM      9  O   UNL     1       2.184   8.335  -7.791  0.00  0.00    -0.246 OA
ENDBRANCH   6   8
ENDBRANCH   1   6
BRANCH   1  10
ATOM     10  C   UNL     1       3.983   5.614  -6.910  0.00  0.00    +0.156 C 
BRANCH  10  11
ATOM     11  C   UNL     1       4.104   6.112  -5.544  0.00  0.00    +0.368 C 
ATOM     12  O   UNL     1       4.788   5.291  -4.640  0.00  0.00    -0.246 OA
ATOM     13  O   UNL     1       3.929   7.282  -5.149  0.00  0.00    -0.246 OA
ENDBRANCH  10  11
ENDBRANCH   1  10
TORSDOF 5
ENDMDL
