MODEL 1
REMARK VINA RESULT:      -8.5      0.000      0.000
REMARK  Name = 
REMARK  7 active torsions:
REMARK  status: ('A' for Active; 'I' for Inactive)
REMARK    1  A    between atoms: C_4  and  C_5
REMARK    2  A    between atoms: C_9  and  C_10
REMARK    3  A    between atoms: C_10  and  O_12
REMARK    4  A    between atoms: O_12  and  C_13
REMARK    5  A    between atoms: C_13  and  C_14
REMARK    6  A    between atoms: C_18  and  O_19
REMARK    7  A    between atoms: O_19  and  C_20
REMARK                            x       y       z     vdW  Elec       q    Type
REMARK                         _______ _______ _______ _____ _____    ______ ____
ROOT
ATOM      1  C   UNL     1       0.110   5.416  -8.708  0.00  0.00    +0.235 C 
ENDROOT
BRANCH   1   2
ATOM      2  C   UNL     1      -0.229   5.320  -7.270  0.00  0.00    +0.024 A 
ATOM      3  C   UNL     1       0.761   5.454  -6.312  0.00  0.00    +0.037 A 
ATOM      4  C   UNL     1       0.364   5.547  -4.985  0.00  0.00    +0.145 A 
ATOM      5  C   UNL     1      -0.974   5.739  -4.671  0.00  0.00    +0.037 A 
ATOM      6  C   UNL     1      -1.933   5.554  -5.634  0.00  0.00    +0.003 A 
ATOM      7  C   UNL     1      -1.573   5.475  -6.952  0.00  0.00    -0.000 A 
BRANCH   4   8
ATOM      8  O   UNL     1       1.219   5.271  -3.930  0.00  0.00    -0.454 OA
BRANCH   8   9
ATOM      9  C   UNL     1       2.512   5.761  -3.887  0.00  0.00    +0.145 A 
ATOM     10  C   UNL     1       2.831   7.088  -3.768  0.00  0.00    +0.037 A 
ATOM     11  C   UNL     1       4.139   7.493  -3.984  0.00  0.00    +0.003 A 
ATOM     12  C   UNL     1       5.188   6.592  -4.063  0.00  0.00    +0.000 A 
ATOM     13  C   UNL     1       4.871   5.253  -4.095  0.00  0.00    +0.003 A 
ATOM     14  C   UNL     1       3.551   4.854  -4.040  0.00  0.00    +0.037 A 
ENDBRANCH   8   9
ENDBRANCH   4   8
ENDBRANCH   1   2
BRANCH   1  15
ATOM     15  O   UNL     1       1.229   6.282  -8.862  0.00  0.00    -0.443 OA
BRANCH  15  16
ATOM     16  C   UNL     1       2.323   5.933  -9.668  0.00  0.00    +0.317 C 
ATOM     17  O   UNL     1       2.161   5.935 -10.905  0.00  0.00    -0.250 OA
BRANCH  16  20
ATOM     18  C   UNL     1       4.090   5.265  -7.704  0.00  0.00    +0.001 C 
ATOM     19  C   UNL     1       4.064   5.313  -7.900  0.00  0.00    +0.015 C 
ATOM     20  C   UNL     1       3.087   4.605  -9.121  0.00  0.00    +0.103 C 
ATOM     21  C   UNL     1       4.746   4.990  -9.443  0.00  0.00    +0.035 C 
ATOM     22  C   UNL     1       3.820   6.679  -7.589  0.00  0.00    +0.001 C 
BRANCH  21  23
ATOM     23  C   UNL     1       4.623   6.466 -10.123  0.00  0.00    -0.003 C 
ATOM     24  C   UNL     1       5.585   6.639 -11.049  0.00  0.00    +0.111 C 
ATOM     25 CL   UNL     1       6.245   8.234 -11.301  0.00  0.00    -0.070 Cl
ATOM     26 CL   UNL     1       6.041   5.316 -12.077  0.00  0.00    -0.070 Cl
ENDBRANCH  21  23
ENDBRANCH  16  20
ENDBRANCH  15  16
ENDBRANCH   1  15
TORSDOF 7
ENDMDL
MODEL 2
REMARK VINA RESULT:      -8.1      2.320      4.668
REMARK  Name = 
REMARK  7 active torsions:
REMARK  status: ('A' for Active; 'I' for Inactive)
REMARK    1  A    between atoms: C_4  and  C_5
REMARK    2  A    between atoms: C_9  and  C_10
REMARK    3  A    between atoms: C_10  and  O_12
REMARK    4  A    between atoms: O_12  and  C_13
REMARK    5  A    between atoms: C_13  and  C_14
REMARK    6  A    between atoms: C_18  and  O_19
REMARK    7  A    between atoms: O_19  and  C_20
REMARK                            x       y       z     vdW  Elec       q    Type
REMARK                         _______ _______ _______ _____ _____    ______ ____
ROOT
ATOM      1  C   UNL     1       4.224   5.606  -8.179  0.00  0.00    +0.235 C 
ENDROOT
BRANCH   1   2
ATOM      2  C   UNL     1       3.640   5.676  -6.821  0.00  0.00    +0.024 A 
ATOM      3  C   UNL     1       2.459   5.013  -6.536  0.00  0.00    +0.037 A 
ATOM      4  C   UNL     1       2.058   4.953  -5.209  0.00  0.00    +0.145 A 
ATOM      5  C   UNL     1       2.932   5.334  -4.200  0.00  0.00    +0.037 A 
ATOM      6  C   UNL     1       4.071   6.030  -4.514  0.00  0.00    +0.003 A 
ATOM      7  C   UNL     1       4.500   6.093  -5.811  0.00  0.00    -0.000 A 
BRANCH   4   8
ATOM      8  O   UNL     1       0.747   4.703  -4.836  0.00  0.00    -0.454 OA
BRANCH   8   9
ATOM      9  C   UNL     1      -0.266   5.618  -5.061  0.00  0.00    +0.145 A 
ATOM     10  C   UNL     1      -0.398   6.803  -4.387  0.00  0.00    +0.037 A 
ATOM     11  C   UNL     1      -1.575   7.525  -4.510  0.00  0.00    +0.003 A 
ATOM     12  C   UNL     1      -2.522   7.236  -5.479  0.00  0.00    +0.000 A 
ATOM     13  C   UNL     1      -2.341   6.088  -6.217  0.00  0.00    +0.003 A 
ATOM     14  C   UNL     1      -1.247   5.281  -5.983  0.00  0.00    +0.037 A 
ENDBRANCH   8   9
ENDBRANCH   4   8
ENDBRANCH   1   2
BRANCH   1  15
ATOM     15  O   UNL     1       3.239   5.112  -9.081  0.00  0.00    -0.443 OA
BRANCH  15  16
ATOM     16  C   UNL     1       2.727   5.905 -10.117  0.00  0.00    +0.317 C 
ATOM     17  O   UNL     1       3.540   6.473 -10.875  0.00  0.00    -0.250 OA
BRANCH  16  20
ATOM     18  C   UNL     1       0.081   5.736  -9.490  0.00  0.00    +0.001 C 
ATOM     19  C   UNL     1       0.219   5.783  -9.632  0.00  0.00    +0.015 C 
ATOM     20  C   UNL     1       1.534   6.886  -9.605  0.00  0.00    +0.103 C 
ATOM     21  C   UNL     1       0.445   6.856 -10.954  0.00  0.00    +0.035 C 
ATOM     22  C   UNL     1       0.528   4.416  -9.866  0.00  0.00    +0.001 C 
BRANCH  21  23
ATOM     23  C   UNL     1       1.222   5.869 -11.992  0.00  0.00    -0.003 C 
ATOM     24  C   UNL     1       0.764   6.050 -13.245  0.00  0.00    +0.111 C 
ATOM     25 CL   UNL     1       0.723   4.692 -14.339  0.00  0.00    -0.070 Cl
ATOM     26 CL   UNL     1       0.372   7.649 -13.798  0.00  0.00    -0.070 Cl
ENDBRANCH  21  23
ENDBRANCH  16  20
ENDBRANCH  15  16
ENDBRANCH   1  15
TORSDOF 7
ENDMDL
MODEL 3
REMARK VINA RESULT:      -7.9      2.754      5.679
REMARK  Name = 
REMARK  7 active torsions:
REMARK  status: ('A' for Active; 'I' for Inactive)
REMARK    1  A    between atoms: C_4  and  C_5
REMARK    2  A    between atoms: C_9  and  C_10
REMARK    3  A    between atoms: C_10  and  O_12
REMARK    4  A    between atoms: O_12  and  C_13
REMARK    5  A    between atoms: C_13  and  C_14
REMARK    6  A    between atoms: C_18  and  O_19
REMARK    7  A    between atoms: O_19  and  C_20
REMARK                            x       y       z     vdW  Elec       q    Type
REMARK                         _______ _______ _______ _____ _____    ______ ____
ROOT
ATOM      1  C   UNL     1       3.246   5.523  -1.788  0.00  0.00    +0.235 C 
ENDROOT
BRANCH   1   2
ATOM      2  C   UNL     1       1.938   6.023  -1.306  0.00  0.00    +0.024 A 
ATOM      3  C   UNL     1       0.771   5.365  -1.653  0.00  0.00    +0.037 A 
ATOM      4  C   UNL     1      -0.401   5.758  -1.024  0.00  0.00    +0.145 A 
ATOM      5  C   UNL     1      -0.351   6.606   0.074  0.00  0.00    +0.037 A 
ATOM      6  C   UNL     1       0.810   7.277   0.363  0.00  0.00    +0.003 A 
ATOM      7  C   UNL     1       1.984   6.901  -0.230  0.00  0.00    -0.000 A 
BRANCH   4   8
ATOM      8  O   UNL     1      -1.655   5.495  -1.551  0.00  0.00    -0.454 OA
BRANCH   8   9
ATOM      9  C   UNL     1      -2.038   5.957  -2.797  0.00  0.00    +0.145 A 
ATOM     10  C   UNL     1      -2.522   5.159  -3.800  0.00  0.00    +0.037 A 
ATOM     11  C   UNL     1      -2.639   5.676  -5.082  0.00  0.00    +0.003 A 
ATOM     12  C   UNL     1      -2.533   7.032  -5.343  0.00  0.00    +0.000 A 
ATOM     13  C   UNL     1      -2.130   7.847  -4.309  0.00  0.00    +0.003 A 
ATOM     14  C   UNL     1      -1.858   7.306  -3.070  0.00  0.00    +0.037 A 
ENDBRANCH   8   9
ENDBRANCH   4   8
ENDBRANCH   1   2
BRANCH   1  15
ATOM     15  O   UNL     1       3.062   4.891  -3.050  0.00  0.00    -0.443 OA
BRANCH  15  16
ATOM     16  C   UNL     1       3.565   5.452  -4.233  0.00  0.00    +0.317 C 
ATOM     17  O   UNL     1       4.788   5.344  -4.457  0.00  0.00    -0.250 OA
BRANCH  16  20
ATOM     18  C   UNL     1       1.280   6.640  -5.124  0.00  0.00    +0.001 C 
ATOM     19  C   UNL     1       1.468   6.576  -5.171  0.00  0.00    +0.015 C 
ATOM     20  C   UNL     1       2.996   6.955  -4.488  0.00  0.00    +0.103 C 
ATOM     21  C   UNL     1       2.779   6.968  -6.208  0.00  0.00    +0.035 C 
ATOM     22  C   UNL     1       1.068   5.212  -5.142  0.00  0.00    +0.001 C 
BRANCH  21  23
ATOM     23  C   UNL     1       3.274   5.470  -6.620  0.00  0.00    -0.003 C 
ATOM     24  C   UNL     1       3.235   5.313  -7.956  0.00  0.00    +0.111 C 
ATOM     25 CL   UNL     1       2.867   3.741  -8.617  0.00  0.00    -0.070 Cl
ATOM     26 CL   UNL     1       3.700   6.626  -8.993  0.00  0.00    -0.070 Cl
ENDBRANCH  21  23
ENDBRANCH  16  20
ENDBRANCH  15  16
ENDBRANCH   1  15
TORSDOF 7
ENDMDL
MODEL 4
REMARK VINA RESULT:      -7.8      2.929      3.826
REMARK  Name = 
REMARK  7 active torsions:
REMARK  status: ('A' for Active; 'I' for Inactive)
REMARK    1  A    between atoms: C_4  and  C_5
REMARK    2  A    between atoms: C_9  and  C_10
REMARK    3  A    between atoms: C_10  and  O_12
REMARK    4  A    between atoms: O_12  and  C_13
REMARK    5  A    between atoms: C_13  and  C_14
REMARK    6  A    between atoms: C_18  and  O_19
REMARK    7  A    between atoms: O_19  and  C_20
REMARK                            x       y       z     vdW  Elec       q    Type
REMARK                         _______ _______ _______ _____ _____    ______ ____
ROOT
ATOM      1  C   UNL     1      -1.693   5.768  -4.337  0.00  0.00    +0.235 C 
ENDROOT
BRANCH   1   2
ATOM      2  C   UNL     1      -0.978   5.701  -3.042  0.00  0.00    +0.024 A 
ATOM      3  C   UNL     1       0.393   5.881  -2.994  0.00  0.00    +0.037 A 
ATOM      4  C   UNL     1       0.983   5.999  -1.744  0.00  0.00    +0.145 A 
ATOM      5  C   UNL     1       0.194   6.168  -0.615  0.00  0.00    +0.037 A 
ATOM      6  C   UNL     1      -1.156   5.937  -0.687  0.00  0.00    +0.003 A 
ATOM      7  C   UNL     1      -1.768   5.833  -1.906  0.00  0.00    -0.000 A 
BRANCH   4   8
ATOM      8  O   UNL     1       2.333   5.768  -1.532  0.00  0.00    -0.454 OA
BRANCH   8   9
ATOM      9  C   UNL     1       3.295   6.147  -2.452  0.00  0.00    +0.145 A 
ATOM     10  C   UNL     1       3.597   7.447  -2.760  0.00  0.00    +0.037 A 
ATOM     11  C   UNL     1       4.391   7.715  -3.865  0.00  0.00    +0.003 A 
ATOM     12  C   UNL     1       5.102   6.724  -4.521  0.00  0.00    +0.000 A 
ATOM     13  C   UNL     1       4.861   5.421  -4.150  0.00  0.00    +0.003 A 
ATOM     14  C   UNL     1       3.947   5.144  -3.154  0.00  0.00    +0.037 A 
ENDBRANCH   8   9
ENDBRANCH   4   8
ENDBRANCH   1   2
BRANCH   1  15
ATOM     15  O   UNL     1      -0.806   6.278  -5.328  0.00  0.00    -0.443 OA
BRANCH  15  16
ATOM     16  C   UNL     1      -0.586   5.600  -6.535  0.00  0.00    +0.317 C 
ATOM     17  O   UNL     1      -1.558   5.029  -7.071  0.00  0.00    -0.250 OA
BRANCH  16  20
ATOM     18  C   UNL     1       2.118   5.931  -6.592  0.00  0.00    +0.001 C 
ATOM     19  C   UNL     1       1.950   5.888  -6.699  0.00  0.00    +0.015 C 
ATOM     20  C   UNL     1       0.753   4.677  -6.484  0.00  0.00    +0.103 C 
ATOM     21  C   UNL     1       1.441   4.958  -8.050  0.00  0.00    +0.035 C 
ATOM     22  C   UNL     1       1.514   7.240  -6.660  0.00  0.00    +0.001 C 
BRANCH  21  23
ATOM     23  C   UNL     1       0.362   5.985  -8.712  0.00  0.00    -0.003 C 
ATOM     24  C   UNL     1       0.275   5.784 -10.040  0.00  0.00    +0.111 C 
ATOM     25 CL   UNL     1      -0.060   7.140 -11.085  0.00  0.00    -0.070 Cl
ATOM     26 CL   UNL     1       0.339   4.169 -10.674  0.00  0.00    -0.070 Cl
ENDBRANCH  21  23
ENDBRANCH  16  20
ENDBRANCH  15  16
ENDBRANCH   1  15
TORSDOF 7
ENDMDL
MODEL 5
REMARK VINA RESULT:      -7.7      3.629      7.003
REMARK  Name = 
REMARK  7 active torsions:
REMARK  status: ('A' for Active; 'I' for Inactive)
REMARK    1  A    between atoms: C_4  and  C_5
REMARK    2  A    between atoms: C_9  and  C_10
REMARK    3  A    between atoms: C_10  and  O_12
REMARK    4  A    between atoms: O_12  and  C_13
REMARK    5  A    between atoms: C_13  and  C_14
REMARK    6  A    between atoms: C_18  and  O_19
REMARK    7  A    between atoms: O_19  and  C_20
REMARK                            x       y       z     vdW  Elec       q    Type
REMARK                         _______ _______ _______ _____ _____    ______ ____
ROOT
ATOM      1  C   UNL     1       2.454   3.807  -8.661  0.00  0.00    +0.235 C 
ENDROOT
BRANCH   1   2
ATOM      2  C   UNL     1       2.579   4.877  -9.676  0.00  0.00    +0.024 A 
ATOM      3  C   UNL     1       3.816   5.427  -9.959  0.00  0.00    +0.037 A 
ATOM      4  C   UNL     1       3.907   6.284 -11.047  0.00  0.00    +0.145 A 
ATOM      5  C   UNL     1       2.852   6.385 -11.943  0.00  0.00    +0.037 A 
ATOM      6  C   UNL     1       1.626   5.868 -11.611  0.00  0.00    +0.003 A 
ATOM      7  C   UNL     1       1.509   5.008 -10.554  0.00  0.00    -0.000 A 
BRANCH   4   8
ATOM      8  O   UNL     1       4.937   7.199 -11.191  0.00  0.00    -0.454 OA
BRANCH   8   9
ATOM      9  C   UNL     1       6.169   6.841 -11.710  0.00  0.00    +0.145 A 
ATOM     10  C   UNL     1       6.442   6.742 -13.049  0.00  0.00    +0.037 A 
ATOM     11  C   UNL     1       7.623   6.138 -13.457  0.00  0.00    +0.003 A 
ATOM     12  C   UNL     1       8.654   5.862 -12.575  0.00  0.00    +0.000 A 
ATOM     13  C   UNL     1       8.406   6.045 -11.233  0.00  0.00    +0.003 A 
ATOM     14  C   UNL     1       7.171   6.496 -10.815  0.00  0.00    +0.037 A 
ENDBRANCH   8   9
ENDBRANCH   4   8
ENDBRANCH   1   2
BRANCH   1  15
ATOM     15  O   UNL     1       2.752   4.350  -7.379  0.00  0.00    -0.443 OA
BRANCH  15  16
ATOM     16  C   UNL     1       1.738   4.687  -6.470  0.00  0.00    +0.317 C 
ATOM     17  O   UNL     1       1.162   3.760  -5.866  0.00  0.00    -0.250 OA
BRANCH  16  20
ATOM     18  C   UNL     1       1.716   7.352  -7.040  0.00  0.00    +0.001 C 
ATOM     19  C   UNL     1       1.666   7.207  -6.908  0.00  0.00    +0.015 C 
ATOM     20  C   UNL     1       0.711   5.791  -7.082  0.00  0.00    +0.103 C 
ATOM     21  C   UNL     1       0.472   6.846  -5.727  0.00  0.00    +0.035 C 
ATOM     22  C   UNL     1       3.021   7.027  -6.514  0.00  0.00    +0.001 C 
BRANCH  21  23
ATOM     23  C   UNL     1       1.402   6.144  -4.587  0.00  0.00    -0.003 C 
ATOM     24  C   UNL     1       0.765   6.132  -3.401  0.00  0.00    +0.111 C 
ATOM     25 CL   UNL     1       1.697   6.269  -1.933  0.00  0.00    -0.070 Cl
ATOM     26 CL   UNL     1      -0.944   5.827  -3.343  0.00  0.00    -0.070 Cl
ENDBRANCH  21  23
ENDBRANCH  16  20
ENDBRANCH  15  16
ENDBRANCH   1  15
TORSDOF 7
ENDMDL
MODEL 6
REMARK VINA RESULT:      -7.7      2.468      4.686
REMARK  Name = 
REMARK  7 active torsions:
REMARK  status: ('A' for Active; 'I' for Inactive)
REMARK    1  A    between atoms: C_4  and  C_5
REMARK    2  A    between atoms: C_9  and  C_10
REMARK    3  A    between atoms: C_10  and  O_12
REMARK    4  A    between atoms: O_12  and  C_13
REMARK    5  A    between atoms: C_13  and  C_14
REMARK    6  A    between atoms: C_18  and  O_19
REMARK    7  A    between atoms: O_19  and  C_20
REMARK                            x       y       z     vdW  Elec       q    Type
REMARK                         _______ _______ _______ _____ _____    ______ ____
ROOT
ATOM      1  C   UNL     1       4.152   5.080 -10.127  0.00  0.00    +0.235 C 
ENDROOT
BRANCH   1   2
ATOM      2  C   UNL     1       3.277   5.619  -9.062  0.00  0.00    +0.024 A 
ATOM      3  C   UNL     1       2.858   4.802  -8.027  0.00  0.00    +0.037 A 
ATOM      4  C   UNL     1       2.202   5.400  -6.960  0.00  0.00    +0.145 A 
ATOM      5  C   UNL     1       2.188   6.783  -6.837  0.00  0.00    +0.037 A 
ATOM      6  C   UNL     1       2.568   7.563  -7.899  0.00  0.00    +0.003 A 
ATOM      7  C   UNL     1       3.230   7.005  -8.958  0.00  0.00    -0.000 A 
BRANCH   4   8
ATOM      8  O   UNL     1       1.388   4.690  -6.092  0.00  0.00    -0.454 OA
BRANCH   8   9
ATOM      9  C   UNL     1       0.135   5.147  -5.723  0.00  0.00    +0.145 A 
ATOM     10  C   UNL     1      -0.200   5.537  -4.453  0.00  0.00    +0.037 A 
ATOM     11  C   UNL     1      -1.535   5.739  -4.136  0.00  0.00    +0.003 A 
ATOM     12  C   UNL     1      -2.521   5.814  -5.106  0.00  0.00    +0.000 A 
ATOM     13  C   UNL     1      -2.163   5.506  -6.398  0.00  0.00    +0.003 A 
ATOM     14  C   UNL     1      -0.862   5.148  -6.688  0.00  0.00    +0.037 A 
ENDBRANCH   8   9
ENDBRANCH   4   8
ENDBRANCH   1   2
BRANCH   1  15
ATOM     15  O   UNL     1       4.313   6.071 -11.138  0.00  0.00    -0.443 OA
BRANCH  15  16
ATOM     16  C   UNL     1       5.037   5.812 -12.310  0.00  0.00    +0.317 C 
ATOM     17  O   UNL     1       4.499   5.105 -13.186  0.00  0.00    -0.250 OA
BRANCH  16  20
ATOM     18  C   UNL     1       7.348   6.999 -11.487  0.00  0.00    +0.001 C 
ATOM     19  C   UNL     1       7.238   6.933 -11.645  0.00  0.00    +0.015 C 
ATOM     20  C   UNL     1       6.576   5.389 -11.998  0.00  0.00    +0.103 C 
ATOM     21  C   UNL     1       7.443   6.268 -13.216  0.00  0.00    +0.035 C 
ATOM     22  C   UNL     1       6.324   8.015 -11.530  0.00  0.00    +0.001 C 
BRANCH  21  23
ATOM     23  C   UNL     1       6.235   7.027 -14.005  0.00  0.00    -0.003 C 
ATOM     24  C   UNL     1       6.553   7.192 -15.303  0.00  0.00    +0.111 C 
ATOM     25 CL   UNL     1       5.966   8.599 -16.150  0.00  0.00    -0.070 Cl
ATOM     26 CL   UNL     1       7.401   5.935 -16.150  0.00  0.00    -0.070 Cl
ENDBRANCH  21  23
ENDBRANCH  16  20
ENDBRANCH  15  16
ENDBRANCH   1  15
TORSDOF 7
ENDMDL
MODEL 7
REMARK VINA RESULT:      -7.7      3.694      7.008
REMARK  Name = 
REMARK  7 active torsions:
REMARK  status: ('A' for Active; 'I' for Inactive)
REMARK    1  A    between atoms: C_4  and  C_5
REMARK    2  A    between atoms: C_9  and  C_10
REMARK    3  A    between atoms: C_10  and  O_12
REMARK    4  A    between atoms: O_12  and  C_13
REMARK    5  A    between atoms: C_13  and  C_14
REMARK    6  A    between atoms: C_18  and  O_19
REMARK    7  A    between atoms: O_19  and  C_20
REMARK                            x       y       z     vdW  Elec       q    Type
REMARK                         _______ _______ _______ _____ _____    ______ ____
ROOT
ATOM      1  C   UNL     1       1.617   6.927  -6.843  0.00  0.00    +0.235 C 
ENDROOT
BRANCH   1   2
ATOM      2  C   UNL     1       2.263   6.199  -7.958  0.00  0.00    +0.024 A 
ATOM      3  C   UNL     1       3.183   6.841  -8.768  0.00  0.00    +0.037 A 
ATOM      4  C   UNL     1       3.897   6.066  -9.671  0.00  0.00    +0.145 A 
ATOM      5  C   UNL     1       3.853   4.681  -9.588  0.00  0.00    +0.037 A 
ATOM      6  C   UNL     1       2.898   4.077  -8.810  0.00  0.00    +0.003 A 
ATOM      7  C   UNL     1       2.190   4.812  -7.899  0.00  0.00    -0.000 A 
BRANCH   4   8
ATOM      8  O   UNL     1       4.517   6.603 -10.788  0.00  0.00    -0.454 OA
BRANCH   8   9
ATOM      9  C   UNL     1       5.792   6.225 -11.171  0.00  0.00    +0.145 A 
ATOM     10  C   UNL     1       6.909   6.382 -10.394  0.00  0.00    +0.037 A 
ATOM     11  C   UNL     1       8.161   6.204 -10.963  0.00  0.00    +0.003 A 
ATOM     12  C   UNL     1       8.330   5.627 -12.211  0.00  0.00    +0.000 A 
ATOM     13  C   UNL     1       7.198   5.389 -12.956  0.00  0.00    +0.003 A 
ATOM     14  C   UNL     1       5.956   5.716 -12.451  0.00  0.00    +0.037 A 
ENDBRANCH   8   9
ENDBRANCH   4   8
ENDBRANCH   1   2
BRANCH   1  15
ATOM     15  O   UNL     1       1.510   6.055  -5.722  0.00  0.00    -0.443 OA
BRANCH  15  16
ATOM     16  C   UNL     1       2.085   6.376  -4.484  0.00  0.00    +0.317 C 
ATOM     17  O   UNL     1       1.326   6.743  -3.565  0.00  0.00    -0.250 OA
BRANCH  16  20
ATOM     18  C   UNL     1       4.750   6.087  -4.979  0.00  0.00    +0.001 C 
ATOM     19  C   UNL     1       4.605   6.111  -4.838  0.00  0.00    +0.015 C 
ATOM     20  C   UNL     1       3.401   7.320  -4.647  0.00  0.00    +0.103 C 
ATOM     21  C   UNL     1       4.365   6.824  -3.294  0.00  0.00    +0.035 C 
ATOM     22  C   UNL     1       4.155   4.771  -4.994  0.00  0.00    +0.001 C 
BRANCH  21  23
ATOM     23  C   UNL     1       3.417   5.693  -2.602  0.00  0.00    -0.003 C 
ATOM     24  C   UNL     1       3.914   5.331  -1.405  0.00  0.00    +0.111 C 
ATOM     25 CL   UNL     1       3.695   3.691  -0.854  0.00  0.00    -0.070 Cl
ATOM     26 CL   UNL     1       4.623   6.530  -0.367  0.00  0.00    -0.070 Cl
ENDBRANCH  21  23
ENDBRANCH  16  20
ENDBRANCH  15  16
ENDBRANCH   1  15
TORSDOF 7
ENDMDL
MODEL 8
REMARK VINA RESULT:      -7.6      2.715      4.048
REMARK  Name = 
REMARK  7 active torsions:
REMARK  status: ('A' for Active; 'I' for Inactive)
REMARK    1  A    between atoms: C_4  and  C_5
REMARK    2  A    between atoms: C_9  and  C_10
REMARK    3  A    between atoms: C_10  and  O_12
REMARK    4  A    between atoms: O_12  and  C_13
REMARK    5  A    between atoms: C_13  and  C_14
REMARK    6  A    between atoms: C_18  and  O_19
REMARK    7  A    between atoms: O_19  and  C_20
REMARK                            x       y       z     vdW  Elec       q    Type
REMARK                         _______ _______ _______ _____ _____    ______ ____
ROOT
ATOM      1  C   UNL     1       3.423   5.888 -10.940  0.00  0.00    +0.235 C 
ENDROOT
BRANCH   1   2
ATOM      2  C   UNL     1       3.144   6.010  -9.491  0.00  0.00    +0.024 A 
ATOM      3  C   UNL     1       4.135   5.731  -8.567  0.00  0.00    +0.037 A 
ATOM      4  C   UNL     1       3.883   6.043  -7.238  0.00  0.00    +0.145 A 
ATOM      5  C   UNL     1       2.782   6.820  -6.903  0.00  0.00    +0.037 A 
ATOM      6  C   UNL     1       1.796   7.039  -7.831  0.00  0.00    +0.003 A 
ATOM      7  C   UNL     1       2.022   6.756  -9.150  0.00  0.00    -0.000 A 
BRANCH   4   8
ATOM      8  O   UNL     1       4.577   5.460  -6.190  0.00  0.00    -0.454 OA
BRANCH   8   9
ATOM      9  C   UNL     1       4.526   5.970  -4.905  0.00  0.00    +0.145 A 
ATOM     10  C   UNL     1       5.017   7.196  -4.542  0.00  0.00    +0.037 A 
ATOM     11  C   UNL     1       5.142   7.505  -3.196  0.00  0.00    +0.003 A 
ATOM     12  C   UNL     1       4.557   6.735  -2.204  0.00  0.00    +0.000 A 
ATOM     13  C   UNL     1       3.986   5.541  -2.583  0.00  0.00    +0.003 A 
ATOM     14  C   UNL     1       4.004   5.158  -3.908  0.00  0.00    +0.037 A 
ENDBRANCH   8   9
ENDBRANCH   4   8
ENDBRANCH   1   2
BRANCH   1  15
ATOM     15  O   UNL     1       4.704   5.292 -11.116  0.00  0.00    -0.443 OA
BRANCH  15  16
ATOM     16  C   UNL     1       5.387   5.365 -12.339  0.00  0.00    +0.317 C 
ATOM     17  O   UNL     1       4.930   4.717 -13.302  0.00  0.00    -0.250 OA
BRANCH  16  20
ATOM     18  C   UNL     1       7.524   6.891 -11.613  0.00  0.00    +0.001 C 
ATOM     19  C   UNL     1       7.415   6.814 -11.766  0.00  0.00    +0.015 C 
ATOM     20  C   UNL     1       6.994   5.195 -12.153  0.00  0.00    +0.103 C 
ATOM     21  C   UNL     1       7.609   6.256 -13.379  0.00  0.00    +0.035 C 
ATOM     22  C   UNL     1       6.346   7.721 -11.534  0.00  0.00    +0.001 C 
BRANCH  21  23
ATOM     23  C   UNL     1       6.236   6.830 -14.046  0.00  0.00    -0.003 C 
ATOM     24  C   UNL     1       6.423   7.095 -15.352  0.00  0.00    +0.111 C 
ATOM     25 CL   UNL     1       5.550   8.415 -16.085  0.00  0.00    -0.070 Cl
ATOM     26 CL   UNL     1       7.400   6.032 -16.317  0.00  0.00    -0.070 Cl
ENDBRANCH  21  23
ENDBRANCH  16  20
ENDBRANCH  15  16
ENDBRANCH   1  15
TORSDOF 7
ENDMDL
MODEL 9
REMARK VINA RESULT:      -7.5      3.731      5.755
REMARK  Name = 
REMARK  7 active torsions:
REMARK  status: ('A' for Active; 'I' for Inactive)
REMARK    1  A    between atoms: C_4  and  C_5
REMARK    2  A    between atoms: C_9  and  C_10
REMARK    3  A    between atoms: C_10  and  O_12
REMARK    4  A    between atoms: O_12  and  C_13
REMARK    5  A    between atoms: C_13  and  C_14
REMARK    6  A    between atoms: C_18  and  O_19
REMARK    7  A    between atoms: O_19  and  C_20
REMARK                            x       y       z     vdW  Elec       q    Type
REMARK                         _______ _______ _______ _____ _____    ______ ____
ROOT
ATOM      1  C   UNL     1       4.514   5.064  -5.160  0.00  0.00    +0.235 C 
ENDROOT
BRANCH   1   2
ATOM      2  C   UNL     1       4.057   5.893  -4.022  0.00  0.00    +0.024 A 
ATOM      3  C   UNL     1       3.644   5.293  -2.846  0.00  0.00    +0.037 A 
ATOM      4  C   UNL     1       3.410   6.114  -1.752  0.00  0.00    +0.145 A 
ATOM      5  C   UNL     1       3.808   7.443  -1.781  0.00  0.00    +0.037 A 
ATOM      6  C   UNL     1       4.169   8.019  -2.973  0.00  0.00    +0.003 A 
ATOM      7  C   UNL     1       4.422   7.234  -4.064  0.00  0.00    -0.000 A 
BRANCH   4   8
ATOM      8  O   UNL     1       2.622   5.723  -0.681  0.00  0.00    -0.454 OA
BRANCH   8   9
ATOM      9  C   UNL     1       1.245   5.864  -0.695  0.00  0.00    +0.145 A 
ATOM     10  C   UNL     1       0.402   5.123  -1.482  0.00  0.00    +0.037 A 
ATOM     11  C   UNL     1      -0.924   5.509  -1.605  0.00  0.00    +0.003 A 
ATOM     12  C   UNL     1      -1.498   6.455  -0.772  0.00  0.00    +0.000 A 
ATOM     13  C   UNL     1      -0.662   7.138   0.082  0.00  0.00    +0.003 A 
ATOM     14  C   UNL     1       0.690   6.864   0.090  0.00  0.00    +0.037 A 
ENDBRANCH   8   9
ENDBRANCH   4   8
ENDBRANCH   1   2
BRANCH   1  15
ATOM     15  O   UNL     1       3.718   5.367  -6.301  0.00  0.00    -0.443 OA
BRANCH  15  16
ATOM     16  C   UNL     1       2.362   5.016  -6.364  0.00  0.00    +0.317 C 
ATOM     17  O   UNL     1       1.973   4.056  -5.668  0.00  0.00    -0.250 OA
BRANCH  16  20
ATOM     18  C   UNL     1       1.711   6.758  -8.356  0.00  0.00    +0.001 C 
ATOM     19  C   UNL     1       1.644   6.642  -8.204  0.00  0.00    +0.015 C 
ATOM     20  C   UNL     1       1.815   4.962  -7.896  0.00  0.00    +0.103 C 
ATOM     21  C   UNL     1       0.265   5.725  -7.748  0.00  0.00    +0.035 C 
ATOM     22  C   UNL     1       2.163   7.534  -7.226  0.00  0.00    +0.001 C 
BRANCH  21  23
ATOM     23  C   UNL     1       0.209   6.067  -6.155  0.00  0.00    -0.003 C 
ATOM     24  C   UNL     1      -1.049   6.365  -5.781  0.00  0.00    +0.111 C 
ATOM     25 CL   UNL     1      -1.305   7.525  -4.505  0.00  0.00    -0.070 Cl
ATOM     26 CL   UNL     1      -2.382   5.483  -6.461  0.00  0.00    -0.070 Cl
ENDBRANCH  21  23
ENDBRANCH  16  20
ENDBRANCH  15  16
ENDBRANCH   1  15
TORSDOF 7
ENDMDL
